MODEL 1
REMARK VINA RESULT: -7.764783054      0.000      0.000
REMARK  6 active torsions:
REMARK  status: ('A' for Active; 'I' for Inactive)
REMARK    1  A    between atoms: C5_5  and  N1_6 
REMARK    2  A    between atoms: N1_6  and  C6_8 
REMARK    3  A    between atoms: C6_8  and  O1_9 
REMARK    4  A    between atoms: C6_8  and  C7_11 
REMARK    5  A    between atoms: N2_13  and  C9_14 
REMARK    6  A    between atoms: N4_24  and  C16_25 
ROOT
HETATM    1  C7  UNL     1       4.123  34.627  -1.662  1.00  0.00     0.092 A 
HETATM    2  C8  UNL     1       2.919  35.215  -1.955  1.00  0.00     0.148 A 
HETATM    3  N2  UNL     1       2.708  34.377  -2.986  1.00  0.00    -0.258 N 
HETATM    4  N5  UNL     1       3.845  33.831  -2.701  1.00  0.00    -0.292 N 
ATOM      5  H5  UNL     1       4.356  33.057  -3.124  1.00  0.00     0.187 HD
ENDROOT
BRANCH   3   6
HETATM    6  C9  UNL     1       1.655  34.185  -3.863  1.00  0.00     0.150 A 
HETATM    7  C10 UNL     1       0.561  33.436  -3.544  1.00  0.00     0.073 A 
HETATM    8  C11 UNL     1      -0.485  33.355  -4.473  1.00  0.00    -0.012 A 
HETATM    9  N4  UNL     1       0.212  32.620  -2.423  1.00  0.00    -0.370 N 
HETATM   10  C12 UNL     1      -0.431  33.996  -5.681  1.00  0.00     0.101 A 
HETATM   11  C14 UNL     1      -1.567  32.523  -3.858  1.00  0.00     0.062 C 
HETATM   12  N3  UNL     1       0.632  34.717  -5.990  1.00  0.00    -0.331 N 
HETATM   13  C13 UNL     1       1.647  34.823  -5.132  1.00  0.00     0.276 A 
ATOM     14  H3  UNL     1       0.677  35.195  -6.890  1.00  0.00     0.168 HD
HETATM   15  O2  UNL     1       2.636  35.523  -5.473  1.00  0.00    -0.266 OA
HETATM   16  C15 UNL     1      -1.263  32.804  -2.373  1.00  0.00     0.128 C 
BRANCH   9  17
HETATM   17  C16 UNL     1       1.051  31.814  -1.597  1.00  0.00     0.022 C 
HETATM   18  C17 UNL     1       1.506  32.417  -0.306  1.00  0.00     0.037 C 
HETATM   19  C18 UNL     1      -0.037  30.791  -1.043  1.00  0.00     0.037 C 
HETATM   20  C19 UNL     1       1.976  30.858  -2.254  1.00  0.00     0.037 C 
ENDBRANCH   9  17
ENDBRANCH   3   6
BRANCH   1  21
HETATM   21  C6  UNL     1       5.169  34.843  -0.650  1.00  0.00     0.273 C 
BRANCH  21  22
HETATM   22  N1  UNL     1       6.309  35.557  -1.166  1.00  0.00    -0.349 N 
ATOM     23  H1  UNL     1       7.246  35.172  -1.046  1.00  0.00     0.163 HD
BRANCH  22  24
HETATM   24  C5  UNL     1       6.136  36.799  -1.845  1.00  0.00     0.075 C 
HETATM   25  C4  UNL     1       6.806  37.090  -3.127  1.00  0.00     0.078 C 
HETATM   26  C3  UNL     1       5.944  38.164  -3.743  1.00  0.00     0.032 C 
HETATM   27  C2  UNL     1       5.507  38.896  -2.461  1.00  0.00     0.079 C 
HETATM   28  C1  UNL     1       6.626  39.863  -2.136  1.00  0.00     0.032 C 
HETATM   29  N6  UNL     1       5.437  37.802  -1.508  1.00  0.00    -0.376 N 
ATOM     30  H6  UNL     1       4.880  37.836  -0.654  1.00  0.00     0.161 HD
ENDBRANCH  22  24
ENDBRANCH  21  22
BRANCH  21  31
HETATM   31  O1  UNL     1       4.683  35.553   0.460  1.00  0.00    -0.371 OA
ATOM     32  H1  UNL     1       4.879  36.473   0.326  1.00  0.00     0.212 HD
ENDBRANCH  21  31
ENDBRANCH   1  21
TORSDOF 6
ENDMDL
MODEL 2
REMARK VINA RESULT: -7.731575197      1.625      3.460
REMARK  6 active torsions:
REMARK  status: ('A' for Active; 'I' for Inactive)
REMARK    1  A    between atoms: C5_5  and  N1_6 
REMARK    2  A    between atoms: N1_6  and  C6_8 
REMARK    3  A    between atoms: C6_8  and  O1_9 
REMARK    4  A    between atoms: C6_8  and  C7_11 
REMARK    5  A    between atoms: N2_13  and  C9_14 
REMARK    6  A    between atoms: N4_24  and  C16_25 
ROOT
HETATM    1  C7  UNL     1       4.687  35.055  -1.397  1.00  0.00     0.092 A 
HETATM    2  C8  UNL     1       3.346  35.327  -1.303  1.00  0.00     0.148 A 
HETATM    3  N2  UNL     1       3.041  34.373  -2.199  1.00  0.00    -0.258 N 
HETATM    4  N5  UNL     1       4.307  34.125  -2.280  1.00  0.00    -0.292 N 
ATOM      5  H5  UNL     1       4.838  33.450  -2.830  1.00  0.00     0.187 HD
ENDROOT
BRANCH   3   6
HETATM    6  C9  UNL     1       1.851  33.868  -2.694  1.00  0.00     0.150 A 
HETATM    7  C10 UNL     1       1.277  34.331  -3.841  1.00  0.00     0.073 A 
HETATM    8  C11 UNL     1       0.107  33.712  -4.297  1.00  0.00    -0.012 A 
HETATM    9  N4  UNL     1       1.582  35.402  -4.738  1.00  0.00    -0.370 N 
HETATM   10  C12 UNL     1      -0.471  32.670  -3.623  1.00  0.00     0.101 A 
HETATM   11  C14 UNL     1      -0.278  34.372  -5.584  1.00  0.00     0.062 C 
HETATM   12  N3  UNL     1       0.084  32.226  -2.509  1.00  0.00    -0.331 N 
HETATM   13  C13 UNL     1       1.201  32.787  -2.043  1.00  0.00     0.276 A 
ATOM     14  H3  UNL     1      -0.344  31.451  -2.003  1.00  0.00     0.168 HD
HETATM   15  O2  UNL     1       1.691  32.326  -0.980  1.00  0.00    -0.266 OA
HETATM   16  C15 UNL     1       1.121  34.839  -6.036  1.00  0.00     0.128 C 
BRANCH   9  17
HETATM   17  C16 UNL     1       2.143  36.683  -4.457  1.00  0.00     0.022 C 
HETATM   18  C17 UNL     1       3.621  36.828  -4.641  1.00  0.00     0.037 C 
HETATM   19  C18 UNL     1       1.638  37.475  -5.744  1.00  0.00     0.037 C 
HETATM   20  C19 UNL     1       1.514  37.510  -3.398  1.00  0.00     0.037 C 
ENDBRANCH   9  17
ENDBRANCH   3   6
BRANCH   1  21
HETATM   21  C6  UNL     1       5.906  35.593  -0.772  1.00  0.00     0.273 C 
BRANCH  21  22
HETATM   22  N1  UNL     1       6.703  36.375  -1.683  1.00  0.00    -0.349 N 
ATOM     23  H1  UNL     1       7.576  35.994  -2.049  1.00  0.00     0.163 HD
BRANCH  22  24
HETATM   24  C5  UNL     1       6.280  37.678  -2.076  1.00  0.00     0.075 C 
HETATM   25  C4  UNL     1       6.853  38.366  -3.249  1.00  0.00     0.078 C 
HETATM   26  C3  UNL     1       5.787  39.363  -3.633  1.00  0.00     0.032 C 
HETATM   27  C2  UNL     1       5.246  39.699  -2.230  1.00  0.00     0.079 C 
HETATM   28  C1  UNL     1       6.166  40.767  -1.678  1.00  0.00     0.032 C 
HETATM   29  N6  UNL     1       5.409  38.430  -1.543  1.00  0.00    -0.376 N 
ATOM     30  H6  UNL     1       4.875  38.168  -0.713  1.00  0.00     0.161 HD
ENDBRANCH  22  24
ENDBRANCH  21  22
BRANCH  21  31
HETATM   31  O1  UNL     1       5.611  36.397   0.341  1.00  0.00    -0.371 OA
ATOM     32  H1  UNL     1       4.855  36.930   0.123  1.00  0.00     0.212 HD
ENDBRANCH  21  31
ENDBRANCH   1  21
TORSDOF 6
ENDMDL
MODEL 3
REMARK VINA RESULT: -7.554853890      1.905      3.674
REMARK  6 active torsions:
REMARK  status: ('A' for Active; 'I' for Inactive)
REMARK    1  A    between atoms: C5_5  and  N1_6 
REMARK    2  A    between atoms: N1_6  and  C6_8 
REMARK    3  A    between atoms: C6_8  and  O1_9 
REMARK    4  A    between atoms: C6_8  and  C7_11 
REMARK    5  A    between atoms: N2_13  and  C9_14 
REMARK    6  A    between atoms: N4_24  and  C16_25 
ROOT
HETATM    1  C7  UNL     1       4.277  35.210  -2.473  1.00  0.00     0.092 A 
HETATM    2  C8  UNL     1       3.802  34.055  -3.039  1.00  0.00     0.148 A 
HETATM    3  N2  UNL     1       2.657  34.126  -2.338  1.00  0.00    -0.258 N 
HETATM    4  N5  UNL     1       3.115  35.214  -1.811  1.00  0.00    -0.292 N 
ATOM      5  H5  UNL     1       2.723  35.857  -1.123  1.00  0.00     0.187 HD
ENDROOT
BRANCH   3   6
HETATM    6  C9  UNL     1       1.496  33.373  -2.322  1.00  0.00     0.150 A 
HETATM    7  C10 UNL     1       0.527  33.496  -3.273  1.00  0.00     0.073 A 
HETATM    8  C11 UNL     1      -0.582  32.642  -3.210  1.00  0.00    -0.012 A 
HETATM    9  N4  UNL     1       0.334  34.379  -4.382  1.00  0.00    -0.370 N 
HETATM   10  C12 UNL     1      -0.717  31.703  -2.223  1.00  0.00     0.101 A 
HETATM   11  C14 UNL     1      -1.455  32.952  -4.386  1.00  0.00     0.062 C 
HETATM   12  N3  UNL     1       0.221  31.589  -1.300  1.00  0.00    -0.331 N 
HETATM   13  C13 UNL     1       1.295  32.380  -1.327  1.00  0.00     0.276 A 
ATOM     14  H3  UNL     1       0.125  30.892  -0.562  1.00  0.00     0.168 HD
HETATM   15  O2  UNL     1       2.160  32.230  -0.426  1.00  0.00    -0.266 OA
HETATM   16  C15 UNL     1      -0.375  33.493  -5.344  1.00  0.00     0.128 C 
BRANCH   9  17
HETATM   17  C16 UNL     1       0.691  35.754  -4.514  1.00  0.00     0.022 C 
HETATM   18  C17 UNL     1       1.981  36.052  -5.210  1.00  0.00     0.037 C 
HETATM   19  C18 UNL     1      -0.332  36.178  -5.659  1.00  0.00     0.037 C 
HETATM   20  C19 UNL     1       0.271  36.696  -3.448  1.00  0.00     0.037 C 
ENDBRANCH   9  17
ENDBRANCH   3   6
BRANCH   1  21
HETATM   21  C6  UNL     1       5.511  36.002  -2.599  1.00  0.00     0.273 C 
BRANCH  21  22
HETATM   22  N1  UNL     1       5.270  37.344  -3.066  1.00  0.00    -0.349 N 
ATOM     23  H1  UNL     1       5.680  37.655  -3.947  1.00  0.00     0.163 HD
BRANCH  22  24
HETATM   24  C5  UNL     1       4.462  38.238  -2.306  1.00  0.00     0.075 C 
HETATM   25  C4  UNL     1       3.233  38.842  -2.856  1.00  0.00     0.078 C 
HETATM   26  C3  UNL     1       2.432  39.199  -1.628  1.00  0.00     0.032 C 
HETATM   27  C2  UNL     1       3.586  39.561  -0.676  1.00  0.00     0.079 C 
HETATM   28  C1  UNL     1       3.931  41.005  -0.975  1.00  0.00     0.032 C 
HETATM   29  N6  UNL     1       4.627  38.649  -1.117  1.00  0.00    -0.376 N 
ATOM     30  H6  UNL     1       5.412  38.368  -0.531  1.00  0.00     0.161 HD
ENDBRANCH  22  24
ENDBRANCH  21  22
BRANCH  21  31
HETATM   31  O1  UNL     1       6.202  36.089  -1.379  1.00  0.00    -0.371 OA
ATOM     32  H1  UNL     1       6.360  35.204  -1.071  1.00  0.00     0.212 HD
ENDBRANCH  21  31
ENDBRANCH   1  21
TORSDOF 6
ENDMDL
MODEL 4
REMARK VINA RESULT: -7.533041121      1.820      3.556
REMARK  6 active torsions:
REMARK  status: ('A' for Active; 'I' for Inactive)
REMARK    1  A    between atoms: C5_5  and  N1_6 
REMARK    2  A    between atoms: N1_6  and  C6_8 
REMARK    3  A    between atoms: C6_8  and  O1_9 
REMARK    4  A    between atoms: C6_8  and  C7_11 
REMARK    5  A    between atoms: N2_13  and  C9_14 
REMARK    6  A    between atoms: N4_24  and  C16_25 
ROOT
HETATM    1  C7  UNL     1       4.437  35.280  -2.307  1.00  0.00     0.092 A 
HETATM    2  C8  UNL     1       3.160  35.370  -1.814  1.00  0.00     0.148 A 
HETATM    3  N2  UNL     1       2.806  34.207  -2.390  1.00  0.00    -0.258 N 
HETATM    4  N5  UNL     1       4.012  34.133  -2.850  1.00  0.00    -0.292 N 
ATOM      5  H5  UNL     1       4.480  33.437  -3.428  1.00  0.00     0.187 HD
ENDROOT
BRANCH   3   6
HETATM    6  C9  UNL     1       1.654  33.440  -2.368  1.00  0.00     0.150 A 
HETATM    7  C10 UNL     1       0.678  33.553  -3.314  1.00  0.00     0.073 A 
HETATM    8  C11 UNL     1      -0.420  32.686  -3.245  1.00  0.00    -0.012 A 
HETATM    9  N4  UNL     1       0.469  34.435  -4.420  1.00  0.00    -0.370 N 
HETATM   10  C12 UNL     1      -0.538  31.744  -2.258  1.00  0.00     0.101 A 
HETATM   11  C14 UNL     1      -1.304  32.986  -4.415  1.00  0.00     0.062 C 
HETATM   12  N3  UNL     1       0.406  31.640  -1.340  1.00  0.00    -0.331 N 
HETATM   13  C13 UNL     1       1.470  32.444  -1.373  1.00  0.00     0.276 A 
ATOM     14  H3  UNL     1       0.322  30.941  -0.603  1.00  0.00     0.168 HD
HETATM   15  O2  UNL     1       2.343  32.303  -0.477  1.00  0.00    -0.266 OA
HETATM   16  C15 UNL     1      -0.235  33.541  -5.379  1.00  0.00     0.128 C 
BRANCH   9  17
HETATM   17  C16 UNL     1       0.809  35.813  -4.553  1.00  0.00     0.022 C 
HETATM   18  C17 UNL     1       2.105  36.127  -5.231  1.00  0.00     0.037 C 
HETATM   19  C18 UNL     1      -0.202  36.219  -5.715  1.00  0.00     0.037 C 
HETATM   20  C19 UNL     1       0.360  36.754  -3.497  1.00  0.00     0.037 C 
ENDBRANCH   9  17
ENDBRANCH   3   6
BRANCH   1  21
HETATM   21  C6  UNL     1       5.647  36.112  -2.224  1.00  0.00     0.273 C 
BRANCH  21  22
HETATM   22  N1  UNL     1       5.985  36.737  -3.478  1.00  0.00    -0.349 N 
ATOM     23  H1  UNL     1       6.765  36.378  -4.029  1.00  0.00     0.163 HD
BRANCH  22  24
HETATM   24  C5  UNL     1       5.237  37.853  -3.952  1.00  0.00     0.075 C 
HETATM   25  C4  UNL     1       5.479  38.450  -5.280  1.00  0.00     0.078 C 
HETATM   26  C3  UNL     1       4.178  39.144  -5.601  1.00  0.00     0.032 C 
HETATM   27  C2  UNL     1       3.773  39.579  -4.180  1.00  0.00     0.079 C 
HETATM   28  C1  UNL     1       4.503  40.881  -3.924  1.00  0.00     0.032 C 
HETATM   29  N6  UNL     1       4.303  38.490  -3.378  1.00  0.00    -0.376 N 
ATOM     30  H6  UNL     1       3.958  38.261  -2.445  1.00  0.00     0.161 HD
ENDBRANCH  22  24
ENDBRANCH  21  22
BRANCH  21  31
HETATM   31  O1  UNL     1       5.519  37.124  -1.259  1.00  0.00    -0.371 OA
ATOM     32  H1  UNL     1       5.547  36.715  -0.402  1.00  0.00     0.212 HD
ENDBRANCH  21  31
ENDBRANCH   1  21
TORSDOF 6
ENDMDL
MODEL 5
REMARK VINA RESULT: -7.525264770      0.736      1.083
REMARK  6 active torsions:
REMARK  status: ('A' for Active; 'I' for Inactive)
REMARK    1  A    between atoms: C5_5  and  N1_6 
REMARK    2  A    between atoms: N1_6  and  C6_8 
REMARK    3  A    between atoms: C6_8  and  O1_9 
REMARK    4  A    between atoms: C6_8  and  C7_11 
REMARK    5  A    between atoms: N2_13  and  C9_14 
REMARK    6  A    between atoms: N4_24  and  C16_25 
ROOT
HETATM    1  C7  UNL     1       4.261  35.016  -1.703  1.00  0.00     0.092 A 
HETATM    2  C8  UNL     1       3.030  35.534  -2.012  1.00  0.00     0.148 A 
HETATM    3  N2  UNL     1       2.868  34.670  -3.029  1.00  0.00    -0.258 N 
HETATM    4  N5  UNL     1       4.030  34.189  -2.729  1.00  0.00    -0.292 N 
ATOM      5  H5  UNL     1       4.583  33.436  -3.136  1.00  0.00     0.187 HD
ENDROOT
BRANCH   3   6
HETATM    6  C9  UNL     1       1.831  34.407  -3.906  1.00  0.00     0.150 A 
HETATM    7  C10 UNL     1       0.795  33.577  -3.593  1.00  0.00     0.073 A 
HETATM    8  C11 UNL     1      -0.243  33.426  -4.521  1.00  0.00    -0.012 A 
HETATM    9  N4  UNL     1       0.510  32.728  -2.478  1.00  0.00    -0.370 N 
HETATM   10  C12 UNL     1      -0.239  34.079  -5.724  1.00  0.00     0.101 A 
HETATM   11  C14 UNL     1      -1.260  32.512  -3.912  1.00  0.00     0.062 C 
HETATM   12  N3  UNL     1       0.768  34.879  -6.028  1.00  0.00    -0.331 N 
HETATM   13  C13 UNL     1       1.774  35.053  -5.169  1.00  0.00     0.276 A 
ATOM     14  H3  UNL     1       0.776  35.367  -6.923  1.00  0.00     0.168 HD
HETATM   15  O2  UNL     1       2.708  35.827  -5.505  1.00  0.00    -0.266 OA
HETATM   16  C15 UNL     1      -0.975  32.802  -2.425  1.00  0.00     0.128 C 
BRANCH   9  17
HETATM   17  C16 UNL     1       1.407  31.980  -1.659  1.00  0.00     0.022 C 
HETATM   18  C17 UNL     1       1.830  32.610  -0.370  1.00  0.00     0.037 C 
HETATM   19  C18 UNL     1       0.395  30.885  -1.099  1.00  0.00     0.037 C 
HETATM   20  C19 UNL     1       2.389  31.089  -2.324  1.00  0.00     0.037 C 
ENDBRANCH   9  17
ENDBRANCH   3   6
BRANCH   1  21
HETATM   21  C6  UNL     1       5.290  35.304  -0.691  1.00  0.00     0.273 C 
BRANCH  21  22
HETATM   22  N1  UNL     1       6.512  35.810  -1.263  1.00  0.00    -0.349 N 
ATOM     23  H1  UNL     1       7.409  35.429  -0.960  1.00  0.00     0.163 HD
BRANCH  22  24
HETATM   24  C5  UNL     1       6.476  36.840  -2.248  1.00  0.00     0.075 C 
HETATM   25  C4  UNL     1       6.044  38.214  -1.928  1.00  0.00     0.078 C 
HETATM   26  C3  UNL     1       6.686  39.049  -3.008  1.00  0.00     0.032 C 
HETATM   27  C2  UNL     1       6.617  38.044  -4.172  1.00  0.00     0.079 C 
HETATM   28  C1  UNL     1       5.231  38.192  -4.764  1.00  0.00     0.032 C 
HETATM   29  N6  UNL     1       6.781  36.779  -3.477  1.00  0.00    -0.376 N 
ATOM     30  H6  UNL     1       7.109  35.927  -3.932  1.00  0.00     0.161 HD
ENDBRANCH  22  24
ENDBRANCH  21  22
BRANCH  21  31
HETATM   31  O1  UNL     1       4.840  36.237   0.258  1.00  0.00    -0.371 OA
ATOM     32  H1  UNL     1       3.953  36.483   0.027  1.00  0.00     0.212 HD
ENDBRANCH  21  31
ENDBRANCH   1  21
TORSDOF 6
ENDMDL
