MODEL 1
REMARK VINA RESULT: -8.138571255      0.000      0.000
REMARK  6 active torsions:
REMARK  status: ('A' for Active; 'I' for Inactive)
REMARK       I    between atoms: C1_4  and  N3_6 
REMARK    1  A    between atoms: C3_10  and  C4_11 
REMARK    2  A    between atoms: C7_14  and  N5_15 
REMARK    3  A    between atoms: N5_15  and  C8_17 
REMARK    4  A    between atoms: C8_17  and  N6_19 
REMARK    5  A    between atoms: N6_19  and  N7_21 
REMARK    6  A    between atoms: C9_23  and  C10_24 
ROOT
HETATM    1  C4  UNL     1       3.405  35.517  -1.879  1.00  0.00    -0.008 A 
HETATM    2  C5  UNL     1       2.516  36.555  -2.022  1.00  0.00     0.016 A 
HETATM    3  C6  UNL     1       1.263  36.384  -2.640  1.00  0.00     0.030 A 
HETATM    4  C7  UNL     1       0.878  35.166  -3.130  1.00  0.00     0.034 A 
HETATM    5  C14 UNL     1       1.805  34.115  -2.973  1.00  0.00     0.030 A 
HETATM    6  C15 UNL     1       3.027  34.286  -2.369  1.00  0.00     0.016 A 
ENDROOT
BRANCH   4   7
HETATM    7  N5  UNL     1      -0.332  34.886  -3.797  1.00  0.00    -0.332 N 
ATOM      8  H5  UNL     1      -1.137  35.451  -3.523  1.00  0.00     0.168 HD
BRANCH   7   9
HETATM    9  C8  UNL     1      -0.560  33.927  -4.789  1.00  0.00     0.191 C 
HETATM   10  S1  UNL     1      -0.143  34.196  -6.340  1.00  0.00    -0.039 SA
BRANCH   9  11
HETATM   11  N6  UNL     1      -1.146  32.646  -4.435  1.00  0.00    -0.276 N 
ATOM     12  H6  UNL     1      -0.802  31.777  -4.842  1.00  0.00     0.189 HD
BRANCH  11  13
HETATM   13  N7  UNL     1      -2.184  32.646  -3.531  1.00  0.00    -0.308 N 
HETATM   14  C9  UNL     1      -2.225  32.360  -2.320  1.00  0.00     0.126 C 
ATOM     15  H7  UNL     1      -3.081  32.932  -3.924  1.00  0.00     0.186 HD
BRANCH  14  16
HETATM   16  C10 UNL     1      -1.129  31.917  -1.451  1.00  0.00     0.021 A 
HETATM   17  C11 UNL     1       0.110  31.438  -1.763  1.00  0.00     0.021 A 
HETATM   18  C12 UNL     1       0.928  31.101  -0.760  1.00  0.00     0.008 A 
HETATM   19  C13 UNL     1       0.468  31.258   0.516  1.00  0.00     0.050 A 
HETATM   20  S2  UNL     1      -1.102  31.876   0.281  1.00  0.00    -0.101 SA
ENDBRANCH  14  16
ENDBRANCH  11  13
ENDBRANCH   9  11
ENDBRANCH   7   9
ENDBRANCH   4   7
BRANCH   1  21
HETATM   21  C3  UNL     1       4.711  35.704  -1.234  1.00  0.00     0.059 A 
HETATM   22  N4  UNL     1       5.015  35.305   0.014  1.00  0.00    -0.350 N 
HETATM   23  C2  UNL     1       6.284  35.614   0.322  1.00  0.00     0.191 A 
ATOM     24  H4  UNL     1       4.366  34.832   0.643  1.00  0.00     0.166 HD
HETATM   25  N3  UNL     1       6.792  36.224  -0.763  1.00  0.00    -0.291 N 
HETATM   26  C1  UNL     1       8.103  36.715  -0.873  1.00  0.00     0.193 C 
HETATM   27  C16 UNL     1       5.838  36.287  -1.729  1.00  0.00     0.130 A 
HETATM   28  N1  UNL     1       8.287  37.874  -1.407  1.00  0.00    -0.373 N 
HETATM   29  N2  UNL     1       9.193  35.959  -0.411  1.00  0.00    -0.063 NA
ATOM     30  H12 UNL     1       9.238  38.231  -1.487  1.00  0.00     0.158 HD
ATOM     31  H11 UNL     1       7.495  38.423  -1.743  1.00  0.00     0.158 HD
ENDBRANCH   1  21
TORSDOF 6
ENDMDL
MODEL 2
REMARK VINA RESULT: -8.003586411      1.819      3.994
REMARK  6 active torsions:
REMARK  status: ('A' for Active; 'I' for Inactive)
REMARK       I    between atoms: C1_4  and  N3_6 
REMARK    1  A    between atoms: C3_10  and  C4_11 
REMARK    2  A    between atoms: C7_14  and  N5_15 
REMARK    3  A    between atoms: N5_15  and  C8_17 
REMARK    4  A    between atoms: C8_17  and  N6_19 
REMARK    5  A    between atoms: N6_19  and  N7_21 
REMARK    6  A    between atoms: C9_23  and  C10_24 
ROOT
HETATM    1  C4  UNL     1       3.456  34.940  -2.790  1.00  0.00    -0.008 A 
HETATM    2  C5  UNL     1       2.170  35.404  -2.657  1.00  0.00     0.016 A 
HETATM    3  C6  UNL     1       1.071  34.532  -2.542  1.00  0.00     0.030 A 
HETATM    4  C7  UNL     1       1.242  33.176  -2.562  1.00  0.00     0.034 A 
HETATM    5  C14 UNL     1       2.570  32.721  -2.700  1.00  0.00     0.030 A 
HETATM    6  C15 UNL     1       3.639  33.576  -2.811  1.00  0.00     0.016 A 
ENDROOT
BRANCH   4   7
HETATM    7  N5  UNL     1       0.216  32.210  -2.491  1.00  0.00    -0.332 N 
ATOM      8  H5  UNL     1       0.517  31.243  -2.366  1.00  0.00     0.168 HD
BRANCH   7   9
HETATM    9  C8  UNL     1      -1.164  32.421  -2.571  1.00  0.00     0.191 C 
HETATM   10  S1  UNL     1      -2.155  32.024  -1.341  1.00  0.00    -0.039 SA
BRANCH   9  11
HETATM   11  N6  UNL     1      -1.734  33.039  -3.756  1.00  0.00    -0.276 N 
ATOM     12  H6  UNL     1      -2.455  33.755  -3.682  1.00  0.00     0.189 HD
BRANCH  11  13
HETATM   13  N7  UNL     1      -1.265  32.624  -4.981  1.00  0.00    -0.308 N 
HETATM   14  C9  UNL     1      -0.598  33.211  -5.853  1.00  0.00     0.126 C 
ATOM     15  H7  UNL     1      -1.508  31.661  -5.218  1.00  0.00     0.186 HD
BRANCH  14  16
HETATM   16  C10 UNL     1      -0.087  34.586  -5.837  1.00  0.00     0.021 A 
HETATM   17  C11 UNL     1      -0.657  35.737  -5.378  1.00  0.00     0.021 A 
HETATM   18  C12 UNL     1       0.039  36.874  -5.486  1.00  0.00     0.008 A 
HETATM   19  C13 UNL     1       1.280  36.808  -6.052  1.00  0.00     0.050 A 
HETATM   20  S2  UNL     1       1.443  35.153  -6.419  1.00  0.00    -0.101 SA
ENDBRANCH  14  16
ENDBRANCH  11  13
ENDBRANCH   9  11
ENDBRANCH   7   9
ENDBRANCH   4   7
BRANCH   1  21
HETATM   21  C3  UNL     1       4.598  35.857  -2.910  1.00  0.00     0.059 A 
HETATM   22  N4  UNL     1       4.818  36.677  -3.953  1.00  0.00    -0.350 N 
HETATM   23  C2  UNL     1       5.938  37.392  -3.775  1.00  0.00     0.191 A 
ATOM     24  H4  UNL     1       4.212  36.745  -4.772  1.00  0.00     0.166 HD
HETATM   25  N3  UNL     1       6.438  37.011  -2.586  1.00  0.00    -0.291 N 
HETATM   26  C1  UNL     1       7.614  37.512  -2.006  1.00  0.00     0.193 C 
HETATM   27  C16 UNL     1       5.625  36.067  -2.042  1.00  0.00     0.130 A 
HETATM   28  N1  UNL     1       8.435  36.685  -1.456  1.00  0.00    -0.373 N 
HETATM   29  N2  UNL     1       7.891  38.890  -2.024  1.00  0.00    -0.063 NA
ATOM     30  H12 UNL     1       9.289  37.049  -1.035  1.00  0.00     0.158 HD
ATOM     31  H11 UNL     1       8.234  35.685  -1.442  1.00  0.00     0.158 HD
ENDBRANCH   1  21
TORSDOF 6
ENDMDL
MODEL 3
REMARK VINA RESULT: -7.874427094      3.209      7.729
REMARK  6 active torsions:
REMARK  status: ('A' for Active; 'I' for Inactive)
REMARK       I    between atoms: C1_4  and  N3_6 
REMARK    1  A    between atoms: C3_10  and  C4_11 
REMARK    2  A    between atoms: C7_14  and  N5_15 
REMARK    3  A    between atoms: N5_15  and  C8_17 
REMARK    4  A    between atoms: C8_17  and  N6_19 
REMARK    5  A    between atoms: N6_19  and  N7_21 
REMARK    6  A    between atoms: C9_23  and  C10_24 
ROOT
HETATM    1  C4  UNL     1       2.549  34.673  -2.788  1.00  0.00    -0.008 A 
HETATM    2  C5  UNL     1       2.529  35.426  -3.938  1.00  0.00     0.016 A 
HETATM    3  C6  UNL     1       3.586  36.289  -4.282  1.00  0.00     0.030 A 
HETATM    4  C7  UNL     1       4.685  36.415  -3.477  1.00  0.00     0.034 A 
HETATM    5  C14 UNL     1       4.684  35.634  -2.303  1.00  0.00     0.030 A 
HETATM    6  C15 UNL     1       3.650  34.793  -1.971  1.00  0.00     0.016 A 
ENDROOT
BRANCH   4   7
HETATM    7  N5  UNL     1       5.783  37.271  -3.701  1.00  0.00    -0.332 N 
ATOM      8  H5  UNL     1       6.223  37.206  -4.620  1.00  0.00     0.168 HD
BRANCH   7   9
HETATM    9  C8  UNL     1       6.340  38.198  -2.814  1.00  0.00     0.191 C 
HETATM   10  S1  UNL     1       7.737  37.891  -2.035  1.00  0.00    -0.039 SA
BRANCH   9  11
HETATM   11  N6  UNL     1       5.688  39.478  -2.603  1.00  0.00    -0.276 N 
ATOM     12  H6  UNL     1       5.680  40.193  -3.330  1.00  0.00     0.189 HD
BRANCH  11  13
HETATM   13  N7  UNL     1       5.082  39.693  -1.387  1.00  0.00    -0.308 N 
HETATM   14  C9  UNL     1       3.895  39.591  -1.025  1.00  0.00     0.126 C 
ATOM     15  H7  UNL     1       5.720  39.990  -0.648  1.00  0.00     0.186 HD
BRANCH  14  16
HETATM   16  C10 UNL     1       2.731  39.192  -1.824  1.00  0.00     0.021 A 
HETATM   17  C11 UNL     1       1.754  38.274  -1.568  1.00  0.00     0.021 A 
HETATM   18  C12 UNL     1       0.792  38.104  -2.481  1.00  0.00     0.008 A 
HETATM   19  C13 UNL     1       0.850  38.862  -3.615  1.00  0.00     0.050 A 
HETATM   20  S2  UNL     1       2.253  39.798  -3.375  1.00  0.00    -0.101 SA
ENDBRANCH  14  16
ENDBRANCH  11  13
ENDBRANCH   9  11
ENDBRANCH   7   9
ENDBRANCH   4   7
BRANCH   1  21
HETATM   21  C3  UNL     1       1.441  33.775  -2.435  1.00  0.00     0.059 A 
HETATM   22  N4  UNL     1       1.571  32.631  -1.740  1.00  0.00    -0.350 N 
HETATM   23  C2  UNL     1       0.383  32.032  -1.574  1.00  0.00     0.191 A 
ATOM     24  H4  UNL     1       2.456  32.268  -1.387  1.00  0.00     0.166 HD
HETATM   25  N3  UNL     1      -0.521  32.821  -2.183  1.00  0.00    -0.291 N 
HETATM   26  C1  UNL     1      -1.900  32.566  -2.251  1.00  0.00     0.193 C 
HETATM   27  C16 UNL     1       0.114  33.897  -2.717  1.00  0.00     0.130 A 
HETATM   28  N1  UNL     1      -2.509  32.753  -3.371  1.00  0.00    -0.373 N 
HETATM   29  N2  UNL     1      -2.602  32.116  -1.120  1.00  0.00    -0.063 NA
ATOM     30  H12 UNL     1      -3.511  32.568  -3.420  1.00  0.00     0.158 HD
ATOM     31  H11 UNL     1      -2.000  33.080  -4.192  1.00  0.00     0.158 HD
ENDBRANCH   1  21
TORSDOF 6
ENDMDL
MODEL 4
REMARK VINA RESULT: -7.869352632      1.702      3.755
REMARK  6 active torsions:
REMARK  status: ('A' for Active; 'I' for Inactive)
REMARK       I    between atoms: C1_4  and  N3_6 
REMARK    1  A    between atoms: C3_10  and  C4_11 
REMARK    2  A    between atoms: C7_14  and  N5_15 
REMARK    3  A    between atoms: N5_15  and  C8_17 
REMARK    4  A    between atoms: C8_17  and  N6_19 
REMARK    5  A    between atoms: N6_19  and  N7_21 
REMARK    6  A    between atoms: C9_23  and  C10_24 
ROOT
HETATM    1  C4  UNL     1       3.459  35.213  -1.742  1.00  0.00    -0.008 A 
HETATM    2  C5  UNL     1       3.028  33.919  -1.913  1.00  0.00     0.016 A 
HETATM    3  C6  UNL     1       1.755  33.621  -2.433  1.00  0.00     0.030 A 
HETATM    4  C7  UNL     1       0.887  34.616  -2.789  1.00  0.00     0.034 A 
HETATM    5  C14 UNL     1       1.349  35.935  -2.605  1.00  0.00     0.030 A 
HETATM    6  C15 UNL     1       2.593  36.222  -2.097  1.00  0.00     0.016 A 
ENDROOT
BRANCH   4   7
HETATM    7  N5  UNL     1      -0.421  34.437  -3.284  1.00  0.00    -0.332 N 
ATOM      8  H5  UNL     1      -0.991  35.279  -3.364  1.00  0.00     0.168 HD
BRANCH   7   9
HETATM    9  C8  UNL     1      -1.030  33.241  -3.680  1.00  0.00     0.191 C 
HETATM   10  S1  UNL     1      -2.304  32.630  -2.869  1.00  0.00    -0.039 SA
BRANCH   9  11
HETATM   11  N6  UNL     1      -0.548  32.539  -4.856  1.00  0.00    -0.276 N 
ATOM     12  H6  UNL     1       0.126  31.778  -4.778  1.00  0.00     0.189 HD
BRANCH  11  13
HETATM   13  N7  UNL     1      -1.034  32.936  -6.081  1.00  0.00    -0.308 N 
HETATM   14  C9  UNL     1      -0.805  33.944  -6.774  1.00  0.00     0.126 C 
ATOM     15  H7  UNL     1      -1.703  32.286  -6.496  1.00  0.00     0.186 HD
BRANCH  14  16
HETATM   16  C10 UNL     1       0.093  35.066  -6.480  1.00  0.00     0.021 A 
HETATM   17  C11 UNL     1       1.456  35.124  -6.445  1.00  0.00     0.021 A 
HETATM   18  C12 UNL     1       2.032  36.293  -6.144  1.00  0.00     0.008 A 
HETATM   19  C13 UNL     1       1.215  37.357  -5.889  1.00  0.00     0.050 A 
HETATM   20  S2  UNL     1      -0.342  36.694  -6.078  1.00  0.00    -0.101 SA
ENDBRANCH  14  16
ENDBRANCH  11  13
ENDBRANCH   9  11
ENDBRANCH   7   9
ENDBRANCH   4   7
BRANCH   1  21
HETATM   21  C3  UNL     1       4.790  35.516  -1.198  1.00  0.00     0.059 A 
HETATM   22  N4  UNL     1       5.233  35.123   0.010  1.00  0.00    -0.350 N 
HETATM   23  C2  UNL     1       6.486  35.551   0.224  1.00  0.00     0.191 A 
ATOM     24  H4  UNL     1       4.688  34.574   0.674  1.00  0.00     0.166 HD
HETATM   25  N3  UNL     1       6.841  36.233  -0.880  1.00  0.00    -0.291 N 
HETATM   26  C1  UNL     1       8.083  36.856  -1.080  1.00  0.00     0.193 C 
HETATM   27  C16 UNL     1       5.809  36.220  -1.764  1.00  0.00     0.130 A 
HETATM   28  N1  UNL     1       8.107  38.038  -1.592  1.00  0.00    -0.373 N 
HETATM   29  N2  UNL     1       9.277  36.203  -0.729  1.00  0.00    -0.063 NA
ATOM     30  H12 UNL     1       9.010  38.490  -1.738  1.00  0.00     0.158 HD
ATOM     31  H11 UNL     1       7.241  38.512  -1.847  1.00  0.00     0.158 HD
ENDBRANCH   1  21
TORSDOF 6
ENDMDL
MODEL 5
REMARK VINA RESULT: -7.834124327      3.167      7.774
REMARK  6 active torsions:
REMARK  status: ('A' for Active; 'I' for Inactive)
REMARK       I    between atoms: C1_4  and  N3_6 
REMARK    1  A    between atoms: C3_10  and  C4_11 
REMARK    2  A    between atoms: C7_14  and  N5_15 
REMARK    3  A    between atoms: N5_15  and  C8_17 
REMARK    4  A    between atoms: C8_17  and  N6_19 
REMARK    5  A    between atoms: N6_19  and  N7_21 
REMARK    6  A    between atoms: C9_23  and  C10_24 
ROOT
HETATM    1  C4  UNL     1       2.597  34.242  -2.464  1.00  0.00    -0.008 A 
HETATM    2  C5  UNL     1       3.695  34.293  -1.639  1.00  0.00     0.016 A 
HETATM    3  C6  UNL     1       4.775  35.160  -1.888  1.00  0.00     0.030 A 
HETATM    4  C7  UNL     1       4.775  35.993  -2.973  1.00  0.00     0.034 A 
HETATM    5  C14 UNL     1       3.640  35.924  -3.807  1.00  0.00     0.030 A 
HETATM    6  C15 UNL     1       2.588  35.076  -3.560  1.00  0.00     0.016 A 
ENDROOT
BRANCH   4   7
HETATM    7  N5  UNL     1       5.813  36.874  -3.341  1.00  0.00    -0.332 N 
ATOM      8  H5  UNL     1       6.180  36.767  -4.287  1.00  0.00     0.168 HD
BRANCH   7   9
HETATM    9  C8  UNL     1       6.398  37.878  -2.563  1.00  0.00     0.191 C 
HETATM   10  S1  UNL     1       7.780  37.617  -1.742  1.00  0.00    -0.039 SA
BRANCH   9  11
HETATM   11  N6  UNL     1       5.790  39.196  -2.506  1.00  0.00    -0.276 N 
ATOM     12  H6  UNL     1       5.836  39.834  -3.300  1.00  0.00     0.189 HD
BRANCH  11  13
HETATM   13  N7  UNL     1       5.149  39.555  -1.342  1.00  0.00    -0.308 N 
HETATM   14  C9  UNL     1       3.945  39.549  -1.027  1.00  0.00     0.126 C 
ATOM     15  H7  UNL     1       5.773  39.884  -0.606  1.00  0.00     0.186 HD
BRANCH  14  16
HETATM   16  C10 UNL     1       2.793  39.140  -1.837  1.00  0.00     0.021 A 
HETATM   17  C11 UNL     1       1.766  38.288  -1.550  1.00  0.00     0.021 A 
HETATM   18  C12 UNL     1       0.830  38.089  -2.485  1.00  0.00     0.008 A 
HETATM   19  C13 UNL     1       0.964  38.753  -3.670  1.00  0.00     0.050 A 
HETATM   20  S2  UNL     1       2.399  39.642  -3.448  1.00  0.00    -0.101 SA
ENDBRANCH  14  16
ENDBRANCH  11  13
ENDBRANCH   9  11
ENDBRANCH   7   9
ENDBRANCH   4   7
BRANCH   1  21
HETATM   21  C3  UNL     1       1.474  33.333  -2.198  1.00  0.00     0.059 A 
HETATM   22  N4  UNL     1       1.598  32.070  -1.751  1.00  0.00    -0.350 N 
HETATM   23  C2  UNL     1       0.397  31.492  -1.603  1.00  0.00     0.191 A 
ATOM     24  H4  UNL     1       2.488  31.612  -1.552  1.00  0.00     0.166 HD
HETATM   25  N3  UNL     1      -0.508  32.418  -1.967  1.00  0.00    -0.291 N 
HETATM   26  C1  UNL     1      -1.900  32.231  -1.964  1.00  0.00     0.193 C 
HETATM   27  C16 UNL     1       0.138  33.555  -2.336  1.00  0.00     0.130 A 
HETATM   28  N1  UNL     1      -2.584  32.657  -2.971  1.00  0.00    -0.373 N 
HETATM   29  N2  UNL     1      -2.536  31.593  -0.886  1.00  0.00    -0.063 NA
ATOM     30  H12 UNL     1      -3.594  32.522  -2.969  1.00  0.00     0.158 HD
ATOM     31  H11 UNL     1      -2.123  33.121  -3.754  1.00  0.00     0.158 HD
ENDBRANCH   1  21
TORSDOF 6
ENDMDL
