MODEL 1
REMARK VINA RESULT: -8.020098428      0.000      0.000
REMARK  5 active torsions:
REMARK  status: ('A' for Active; 'I' for Inactive)
REMARK    1  A    between atoms: C2_2  and  C4_4 
REMARK    2  A    between atoms: C5_5  and  N1_6 
REMARK    3  A    between atoms: C11_17  and  N4_18 
REMARK    4  A    between atoms: N4_18  and  C12_20 
REMARK    5  A    between atoms: C18_26  and  C19_27 
ROOT
HETATM    1  C4  UNL     1       1.384  35.901  -4.536  1.00  0.00     0.015 A 
HETATM    2  C5  UNL     1       1.974  35.407  -3.382  1.00  0.00     0.113 A 
HETATM    3  N3  UNL     1       1.645  34.211  -2.878  1.00  0.00    -0.328 N 
ATOM      4  H3  UNL     1       2.118  33.907  -2.026  1.00  0.00     0.169 HD
HETATM    5  C11 UNL     1       0.737  33.386  -3.416  1.00  0.00     0.122 A 
HETATM    6  C18 UNL     1       0.109  33.797  -4.554  1.00  0.00     0.109 A 
HETATM    7  C20 UNL     1       0.450  35.071  -5.105  1.00  0.00     0.077 A 
HETATM    8  N5  UNL     1      -0.274  35.364  -6.311  1.00  0.00    -0.100 NA
ENDROOT
BRANCH   2   9
HETATM    9  N1  UNL     1       2.917  36.148  -2.672  1.00  0.00    -0.365 N 
HETATM   10  C6  UNL     1       2.385  37.094  -1.749  1.00  0.00     0.126 C 
HETATM   11  C7  UNL     1       3.532  37.642  -0.873  1.00  0.00     0.047 C 
HETATM   12  C8  UNL     1       4.163  36.513  -0.100  1.00  0.00     0.234 C 
HETATM   13  N2  UNL     1       5.333  36.079  -0.803  1.00  0.00    -0.074 N 
HETATM   14  C9  UNL     1       4.986  35.113  -1.822  1.00  0.00     0.252 C 
ATOM     15  H22 UNL     1       5.856  36.866  -1.190  1.00  0.00     0.277 HD
ATOM     16  H21 UNL     1       6.045  35.721  -0.168  1.00  0.00     0.277 HD
HETATM   17  C10 UNL     1       4.293  35.842  -2.946  1.00  0.00     0.152 C 
ENDBRANCH   2   9
BRANCH   1  18
HETATM   18  C2  UNL     1       1.740  37.140  -5.153  1.00  0.00     0.016 C 
HETATM   19  C1  UNL     1       0.621  38.111  -5.343  1.00  0.00     0.015 C 
HETATM   20  C3  UNL     1       2.537  37.124  -6.410  1.00  0.00     0.015 C 
ENDBRANCH   1  18
BRANCH   5  21
HETATM   21  N4  UNL     1       0.459  32.171  -2.775  1.00  0.00    -0.371 N 
ATOM     22  H4  UNL     1       0.696  31.307  -3.264  1.00  0.00     0.161 HD
BRANCH  21  23
HETATM   23  C12 UNL     1      -0.147  32.066  -1.458  1.00  0.00     0.083 C 
HETATM   24  C13 UNL     1      -1.626  31.840  -1.605  1.00  0.00     0.025 C 
HETATM   25  C14 UNL     1      -2.172  31.504  -0.221  1.00  0.00     0.002 C 
HETATM   26  C15 UNL     1      -1.252  32.009   0.866  1.00  0.00     0.000 C 
HETATM   27  C16 UNL     1       0.110  31.386   0.853  1.00  0.00     0.002 C 
HETATM   28  C17 UNL     1       0.398  30.974  -0.604  1.00  0.00     0.025 C 
ENDBRANCH  21  23
ENDBRANCH   5  21
BRANCH   6  29
HETATM   29  C19 UNL     1      -0.882  32.996  -5.254  1.00  0.00     0.215 C 
HETATM   30  O1  UNL     1      -0.737  32.537  -6.389  1.00  0.00    -0.644 OA
HETATM   31  O2  UNL     1      -2.108  32.685  -4.651  1.00  0.00    -0.644 OA
ENDBRANCH   6  29
TORSDOF 5
ENDMDL
MODEL 2
REMARK VINA RESULT: -7.758439509      1.862      2.395
REMARK  5 active torsions:
REMARK  status: ('A' for Active; 'I' for Inactive)
REMARK    1  A    between atoms: C2_2  and  C4_4 
REMARK    2  A    between atoms: C5_5  and  N1_6 
REMARK    3  A    between atoms: C11_17  and  N4_18 
REMARK    4  A    between atoms: N4_18  and  C12_20 
REMARK    5  A    between atoms: C18_26  and  C19_27 
ROOT
HETATM    1  C4  UNL     1       3.240  37.255  -4.120  1.00  0.00     0.015 A 
HETATM    2  C5  UNL     1       3.149  36.486  -2.969  1.00  0.00     0.113 A 
HETATM    3  N3  UNL     1       2.438  35.352  -2.932  1.00  0.00    -0.328 N 
ATOM      4  H3  UNL     1       2.413  34.834  -2.053  1.00  0.00     0.169 HD
HETATM    5  C11 UNL     1       1.757  34.851  -3.971  1.00  0.00     0.122 A 
HETATM    6  C18 UNL     1       1.795  35.548  -5.143  1.00  0.00     0.109 A 
HETATM    7  C20 UNL     1       2.549  36.760  -5.198  1.00  0.00     0.077 A 
HETATM    8  N5  UNL     1       2.515  37.374  -6.496  1.00  0.00    -0.100 NA
ENDROOT
BRANCH   2   9
HETATM    9  N1  UNL     1       3.768  36.876  -1.782  1.00  0.00    -0.365 N 
HETATM   10  C6  UNL     1       2.944  37.590  -0.865  1.00  0.00     0.126 C 
HETATM   11  C7  UNL     1       3.686  37.724   0.481  1.00  0.00     0.047 C 
HETATM   12  C8  UNL     1       3.965  36.354   1.045  1.00  0.00     0.234 C 
HETATM   13  N2  UNL     1       5.306  35.986   0.703  1.00  0.00    -0.074 N 
HETATM   14  C9  UNL     1       5.352  35.391  -0.614  1.00  0.00     0.252 C 
ATOM     15  H22 UNL     1       5.947  36.776   0.784  1.00  0.00     0.277 HD
ATOM     16  H21 UNL     1       5.723  35.378   1.408  1.00  0.00     0.277 HD
HETATM   17  C10 UNL     1       5.142  36.484  -1.632  1.00  0.00     0.152 C 
ENDBRANCH   2   9
BRANCH   1  18
HETATM   18  C2  UNL     1       4.033  38.438  -4.234  1.00  0.00     0.016 C 
HETATM   19  C1  UNL     1       3.271  39.709  -4.433  1.00  0.00     0.015 C 
HETATM   20  C3  UNL     1       5.184  38.454  -5.177  1.00  0.00     0.015 C 
ENDBRANCH   1  18
BRANCH   5  21
HETATM   21  N4  UNL     1       1.026  33.668  -3.797  1.00  0.00    -0.371 N 
ATOM     22  H4  UNL     1       0.558  33.271  -4.612  1.00  0.00     0.161 HD
BRANCH  21  23
HETATM   23  C12 UNL     1       0.892  32.973  -2.527  1.00  0.00     0.083 C 
HETATM   24  C13 UNL     1      -0.473  32.351  -2.439  1.00  0.00     0.025 C 
HETATM   25  C14 UNL     1      -0.479  31.447  -1.210  1.00  0.00     0.002 C 
HETATM   26  C15 UNL     1       0.597  31.851  -0.229  1.00  0.00     0.000 C 
HETATM   27  C16 UNL     1       1.990  31.725  -0.765  1.00  0.00     0.002 C 
HETATM   28  C17 UNL     1       1.898  31.900  -2.293  1.00  0.00     0.025 C 
ENDBRANCH  21  23
ENDBRANCH   5  21
BRANCH   6  29
HETATM   29  C19 UNL     1       1.119  35.110  -6.353  1.00  0.00     0.215 C 
HETATM   30  O1  UNL     1      -0.104  35.027  -6.481  1.00  0.00    -0.644 OA
HETATM   31  O2  UNL     1       1.851  34.743  -7.490  1.00  0.00    -0.644 OA
ENDBRANCH   6  29
TORSDOF 5
ENDMDL
MODEL 3
REMARK VINA RESULT: -7.755896267      1.032      1.509
REMARK  5 active torsions:
REMARK  status: ('A' for Active; 'I' for Inactive)
REMARK    1  A    between atoms: C2_2  and  C4_4 
REMARK    2  A    between atoms: C5_5  and  N1_6 
REMARK    3  A    between atoms: C11_17  and  N4_18 
REMARK    4  A    between atoms: N4_18  and  C12_20 
REMARK    5  A    between atoms: C18_26  and  C19_27 
ROOT
HETATM    1  C4  UNL     1       2.034  36.190  -4.403  1.00  0.00     0.015 A 
HETATM    2  C5  UNL     1       2.455  35.526  -3.260  1.00  0.00     0.113 A 
HETATM    3  N3  UNL     1       1.959  34.332  -2.914  1.00  0.00    -0.328 N 
ATOM      4  H3  UNL     1       2.313  33.898  -2.060  1.00  0.00     0.169 HD
HETATM    5  C11 UNL     1       1.028  33.667  -3.612  1.00  0.00     0.122 A 
HETATM    6  C18 UNL     1       0.559  34.252  -4.751  1.00  0.00     0.109 A 
HETATM    7  C20 UNL     1       1.080  35.526  -5.134  1.00  0.00     0.077 A 
HETATM    8  N5  UNL     1       0.511  36.010  -6.362  1.00  0.00    -0.100 NA
ENDROOT
BRANCH   2   9
HETATM    9  N1  UNL     1       3.395  36.087  -2.397  1.00  0.00    -0.365 N 
HETATM   10  C6  UNL     1       4.757  35.799  -2.703  1.00  0.00     0.126 C 
HETATM   11  C7  UNL     1       5.668  36.685  -1.827  1.00  0.00     0.047 C 
HETATM   12  C8  UNL     1       5.400  38.138  -2.123  1.00  0.00     0.234 C 
HETATM   13  N2  UNL     1       4.494  38.644  -1.136  1.00  0.00    -0.074 N 
HETATM   14  C9  UNL     1       3.125  38.372  -1.515  1.00  0.00     0.252 C 
ATOM     15  H22 UNL     1       4.707  38.283  -0.205  1.00  0.00     0.277 HD
ATOM     16  H21 UNL     1       4.647  39.635  -0.954  1.00  0.00     0.277 HD
HETATM   17  C10 UNL     1       2.870  36.897  -1.334  1.00  0.00     0.152 C 
ENDBRANCH   2   9
BRANCH   1  18
HETATM   18  C2  UNL     1       2.573  37.434  -4.854  1.00  0.00     0.016 C 
HETATM   19  C1  UNL     1       1.598  38.561  -4.955  1.00  0.00     0.015 C 
HETATM   20  C3  UNL     1       3.416  37.459  -6.080  1.00  0.00     0.015 C 
ENDBRANCH   1  18
BRANCH   5  21
HETATM   21  N4  UNL     1       0.567  32.435  -3.128  1.00  0.00    -0.371 N 
ATOM     22  H4  UNL     1       0.629  31.625  -3.745  1.00  0.00     0.161 HD
BRANCH  21  23
HETATM   23  C12 UNL     1       0.004  32.242  -1.801  1.00  0.00     0.083 C 
HETATM   24  C13 UNL     1      -1.488  32.101  -1.907  1.00  0.00     0.025 C 
HETATM   25  C14 UNL     1      -2.000  31.669  -0.537  1.00  0.00     0.002 C 
HETATM   26  C15 UNL     1      -1.017  32.029   0.552  1.00  0.00     0.000 C 
HETATM   27  C16 UNL     1       0.310  31.346   0.429  1.00  0.00     0.002 C 
HETATM   28  C17 UNL     1       0.523  31.053  -1.069  1.00  0.00     0.025 C 
ENDBRANCH  21  23
ENDBRANCH   5  21
BRANCH   6  29
HETATM   29  C19 UNL     1      -0.435  33.635  -5.614  1.00  0.00     0.215 C 
HETATM   30  O1  UNL     1      -0.520  33.821  -6.829  1.00  0.00    -0.644 OA
HETATM   31  O2  UNL     1      -1.392  32.756  -5.089  1.00  0.00    -0.644 OA
ENDBRANCH   6  29
TORSDOF 5
ENDMDL
MODEL 4
REMARK VINA RESULT: -7.596746552      1.839      2.467
REMARK  5 active torsions:
REMARK  status: ('A' for Active; 'I' for Inactive)
REMARK    1  A    between atoms: C2_2  and  C4_4 
REMARK    2  A    between atoms: C5_5  and  N1_6 
REMARK    3  A    between atoms: C11_17  and  N4_18 
REMARK    4  A    between atoms: N4_18  and  C12_20 
REMARK    5  A    between atoms: C18_26  and  C19_27 
ROOT
HETATM    1  C4  UNL     1       1.888  37.111  -4.408  1.00  0.00     0.015 A 
HETATM    2  C5  UNL     1       1.440  36.835  -3.125  1.00  0.00     0.113 A 
HETATM    3  N3  UNL     1       0.525  35.887  -2.885  1.00  0.00    -0.328 N 
ATOM      4  H3  UNL     1       0.239  35.735  -1.917  1.00  0.00     0.169 HD
HETATM    5  C11 UNL     1      -0.042  35.125  -3.830  1.00  0.00     0.122 A 
HETATM    6  C18 UNL     1       0.344  35.333  -5.122  1.00  0.00     0.109 A 
HETATM    7  C20 UNL     1       1.320  36.341  -5.393  1.00  0.00     0.077 A 
HETATM    8  N5  UNL     1       1.643  36.436  -6.790  1.00  0.00    -0.100 NA
ENDROOT
BRANCH   2   9
HETATM    9  N1  UNL     1       1.898  37.555  -2.023  1.00  0.00    -0.365 N 
HETATM   10  C6  UNL     1       3.070  37.039  -1.397  1.00  0.00     0.126 C 
HETATM   11  C7  UNL     1       3.589  38.070  -0.373  1.00  0.00     0.047 C 
HETATM   12  C8  UNL     1       3.942  39.354  -1.080  1.00  0.00     0.234 C 
HETATM   13  N2  UNL     1       2.838  40.259  -0.954  1.00  0.00    -0.074 N 
HETATM   14  C9  UNL     1       1.863  40.019  -1.995  1.00  0.00     0.252 C 
ATOM     15  H22 UNL     1       2.418  40.217  -0.025  1.00  0.00     0.277 HD
ATOM     16  H21 UNL     1       3.146  41.230  -0.940  1.00  0.00     0.277 HD
HETATM   17  C10 UNL     1       1.146  38.730  -1.682  1.00  0.00     0.152 C 
ENDBRANCH   2   9
BRANCH   1  18
HETATM   18  C2  UNL     1       2.906  38.065  -4.716  1.00  0.00     0.016 C 
HETATM   19  C1  UNL     1       2.466  39.237  -5.531  1.00  0.00     0.015 C 
HETATM   20  C3  UNL     1       4.202  37.593  -5.273  1.00  0.00     0.015 C 
ENDBRANCH   1  18
BRANCH   5  21
HETATM   21  N4  UNL     1      -1.011  34.185  -3.455  1.00  0.00    -0.371 N 
ATOM     22  H4  UNL     1      -1.884  34.161  -3.982  1.00  0.00     0.161 HD
BRANCH  21  23
HETATM   23  C12 UNL     1      -0.849  33.243  -2.359  1.00  0.00     0.083 C 
HETATM   24  C13 UNL     1      -2.155  32.545  -2.103  1.00  0.00     0.025 C 
HETATM   25  C14 UNL     1      -1.877  31.413  -1.119  1.00  0.00     0.002 C 
HETATM   26  C15 UNL     1      -0.609  31.667  -0.338  1.00  0.00     0.000 C 
HETATM   27  C16 UNL     1       0.627  31.725  -1.181  1.00  0.00     0.002 C 
HETATM   28  C17 UNL     1       0.190  32.199  -2.581  1.00  0.00     0.025 C 
ENDBRANCH  21  23
ENDBRANCH   5  21
BRANCH   6  29
HETATM   29  C19 UNL     1      -0.174  34.567  -6.243  1.00  0.00     0.215 C 
HETATM   30  O1  UNL     1      -0.440  35.038  -7.350  1.00  0.00    -0.644 OA
HETATM   31  O2  UNL     1      -0.409  33.191  -6.122  1.00  0.00    -0.644 OA
ENDBRANCH   6  29
TORSDOF 5
ENDMDL
MODEL 5
REMARK VINA RESULT: -7.469363442      2.479      3.501
REMARK  5 active torsions:
REMARK  status: ('A' for Active; 'I' for Inactive)
REMARK    1  A    between atoms: C2_2  and  C4_4 
REMARK    2  A    between atoms: C5_5  and  N1_6 
REMARK    3  A    between atoms: C11_17  and  N4_18 
REMARK    4  A    between atoms: N4_18  and  C12_20 
REMARK    5  A    between atoms: C18_26  and  C19_27 
ROOT
HETATM    1  C4  UNL     1       3.398  38.288  -4.225  1.00  0.00     0.015 A 
HETATM    2  C5  UNL     1       2.765  38.031  -3.017  1.00  0.00     0.113 A 
HETATM    3  N3  UNL     1       1.712  37.209  -2.934  1.00  0.00    -0.328 N 
ATOM      4  H3  UNL     1       1.293  37.063  -2.015  1.00  0.00     0.169 HD
HETATM    5  C11 UNL     1       1.169  36.565  -3.975  1.00  0.00     0.122 A 
HETATM    6  C18 UNL     1       1.733  36.763  -5.201  1.00  0.00     0.109 A 
HETATM    7  C20 UNL     1       2.859  37.637  -5.306  1.00  0.00     0.077 A 
HETATM    8  N5  UNL     1       3.359  37.736  -6.650  1.00  0.00    -0.100 NA
ENDROOT
BRANCH   2   9
HETATM    9  N1  UNL     1       3.177  38.643  -1.835  1.00  0.00    -0.365 N 
HETATM   10  C6  UNL     1       2.623  39.932  -1.586  1.00  0.00     0.126 C 
HETATM   11  C7  UNL     1       2.968  40.358  -0.144  1.00  0.00     0.047 C 
HETATM   12  C8  UNL     1       2.372  39.377   0.833  1.00  0.00     0.234 C 
HETATM   13  N2  UNL     1       3.385  38.436   1.207  1.00  0.00    -0.074 N 
HETATM   14  C9  UNL     1       3.454  37.355   0.248  1.00  0.00     0.252 C 
ATOM     15  H22 UNL     1       4.291  38.886   1.335  1.00  0.00     0.277 HD
ATOM     16  H21 UNL     1       3.249  38.092   2.157  1.00  0.00     0.277 HD
HETATM   17  C10 UNL     1       4.082  37.885  -1.016  1.00  0.00     0.152 C 
ENDBRANCH   2   9
BRANCH   1  18
HETATM   18  C2  UNL     1       4.563  39.105  -4.363  1.00  0.00     0.016 C 
HETATM   19  C1  UNL     1       4.344  40.437  -5.001  1.00  0.00     0.015 C 
HETATM   20  C3  UNL     1       5.795  38.520  -4.958  1.00  0.00     0.015 C 
ENDBRANCH   1  18
BRANCH   5  21
HETATM   21  N4  UNL     1       0.047  35.753  -3.763  1.00  0.00    -0.371 N 
ATOM     22  H4  UNL     1      -0.855  36.085  -4.106  1.00  0.00     0.161 HD
BRANCH  21  23
HETATM   23  C12 UNL     1       0.088  34.469  -3.084  1.00  0.00     0.083 C 
HETATM   24  C13 UNL     1      -1.141  33.678  -3.433  1.00  0.00     0.025 C 
HETATM   25  C14 UNL     1      -0.940  32.266  -2.893  1.00  0.00     0.002 C 
HETATM   26  C15 UNL     1       0.087  32.246  -1.785  1.00  0.00     0.000 C 
HETATM   27  C16 UNL     1       1.458  32.669  -2.214  1.00  0.00     0.002 C 
HETATM   28  C17 UNL     1       1.276  33.629  -3.406  1.00  0.00     0.025 C 
ENDBRANCH  21  23
ENDBRANCH   5  21
BRANCH   6  29
HETATM   29  C19 UNL     1       1.259  36.114  -6.413  1.00  0.00     0.215 C 
HETATM   30  O1  UNL     1       0.285  36.484  -7.070  1.00  0.00    -0.644 OA
HETATM   31  O2  UNL     1       1.912  34.984  -6.922  1.00  0.00    -0.644 OA
ENDBRANCH   6  29
TORSDOF 5
ENDMDL
