MODEL 1
REMARK VINA RESULT: -7.896623193      0.000      0.000
REMARK  6 active torsions:
REMARK  status: ('A' for Active; 'I' for Inactive)
REMARK    1  A    between atoms: C2_2  and  C17_29 
REMARK    2  A    between atoms: N1_3  and  N2_5 
REMARK       I    between atoms: N2_5  and  C3_7 
REMARK    3  A    between atoms: C3_7  and  C4_9 
REMARK    4  A    between atoms: C9_16  and  O2_17 
REMARK    5  A    between atoms: N4_19  and  C10_20 
REMARK    6  A    between atoms: C16_26  and  O3_27 
ROOT
HETATM    1  C4  UNL     1       1.377  34.970  -5.755  1.00  0.00     0.120 C 
HETATM    2  C5  UNL     1       0.663  35.282  -7.047  1.00  0.00     0.039 C 
HETATM    3  C6  UNL     1      -0.489  36.209  -6.876  1.00  0.00     0.121 C 
HETATM    4  N3  UNL     1      -0.372  37.140  -5.783  1.00  0.00    -0.386 N 
ATOM      5  H3  UNL     1      -1.171  37.722  -5.530  1.00  0.00     0.159 HD
HETATM    6  C7  UNL     1       0.823  37.257  -5.062  1.00  0.00     0.091 A 
HETATM    7  C8  UNL     1       1.708  36.207  -5.025  1.00  0.00     0.037 A 
HETATM    8  C9  UNL     1       2.767  36.638  -4.239  1.00  0.00     0.154 A 
HETATM    9  N4  UNL     1       2.535  37.891  -3.820  1.00  0.00    -0.301 N 
HETATM   10  C16 UNL     1       1.353  38.317  -4.298  1.00  0.00     0.172 A 
ENDROOT
BRANCH   1  11
HETATM   11  C3  UNL     1       0.588  34.016  -4.974  1.00  0.00     0.244 C 
HETATM   12  N2  UNL     1       0.753  33.953  -3.565  1.00  0.00    -0.270 N 
ATOM     13  H2  UNL     1       1.424  34.577  -3.118  1.00  0.00     0.190 HD
HETATM   14  O1  UNL     1      -0.241  33.239  -5.502  1.00  0.00    -0.271 OA
BRANCH  12  15
HETATM   15  N1  UNL     1       0.025  33.061  -2.775  1.00  0.00    -0.306 N 
HETATM   16  C2  UNL     1       0.556  32.267  -1.925  1.00  0.00     0.004 C 
HETATM   17  C1  UNL     1       2.044  32.321  -1.792  1.00  0.00     0.065 C 
ATOM     18  H1  UNL     1      -0.989  33.041  -2.883  1.00  0.00     0.186 HD
BRANCH  16  19
HETATM   19  C17 UNL     1      -0.291  31.365  -1.140  1.00  0.00     0.032 C 
HETATM   20  C18 UNL     1      -1.742  31.835  -1.175  1.00  0.00     0.010 C 
HETATM   21  C19 UNL     1      -1.710  31.856   0.340  1.00  0.00     0.001 C 
HETATM   22  C20 UNL     1      -0.246  31.563   0.358  1.00  0.00     0.010 C 
ENDBRANCH  16  19
ENDBRANCH  12  15
ENDBRANCH   1  11
BRANCH   8  23
HETATM   23  O2  UNL     1       3.867  35.832  -3.974  1.00  0.00    -0.345 OA
ATOM     24  H2  UNL     1       4.712  36.193  -3.733  1.00  0.00     0.219 HD
ENDBRANCH   8  23
BRANCH  10  25
HETATM   25  O3  UNL     1       0.737  39.533  -4.110  1.00  0.00    -0.344 OA
ATOM     26  H3  UNL     1       1.192  40.359  -3.991  1.00  0.00     0.219 HD
ENDBRANCH  10  25
BRANCH   9  27
HETATM   27  C10 UNL     1       3.408  38.658  -2.989  1.00  0.00     0.094 C 
HETATM   28  C11 UNL     1       4.118  39.776  -3.767  1.00  0.00     0.026 C 
HETATM   29  C12 UNL     1       5.248  40.233  -2.834  1.00  0.00     0.002 C 
HETATM   30  C13 UNL     1       4.557  40.865  -1.633  1.00  0.00     0.000 C 
HETATM   31  C14 UNL     1       3.875  39.740  -0.863  1.00  0.00     0.002 C 
HETATM   32  C15 UNL     1       2.752  39.243  -1.776  1.00  0.00     0.026 C 
ENDBRANCH   9  27
TORSDOF 6
ENDMDL
MODEL 2
REMARK VINA RESULT: -7.794831082      2.754      3.428
REMARK  6 active torsions:
REMARK  status: ('A' for Active; 'I' for Inactive)
REMARK    1  A    between atoms: C2_2  and  C17_29 
REMARK    2  A    between atoms: N1_3  and  N2_5 
REMARK       I    between atoms: N2_5  and  C3_7 
REMARK    3  A    between atoms: C3_7  and  C4_9 
REMARK    4  A    between atoms: C9_16  and  O2_17 
REMARK    5  A    between atoms: N4_19  and  C10_20 
REMARK    6  A    between atoms: C16_26  and  O3_27 
ROOT
HETATM    1  C4  UNL     1       1.742  36.469  -3.972  1.00  0.00     0.120 C 
HETATM    2  C5  UNL     1       1.026  37.707  -4.455  1.00  0.00     0.039 C 
HETATM    3  C6  UNL     1       0.521  38.565  -3.349  1.00  0.00     0.121 C 
HETATM    4  N3  UNL     1       1.284  38.509  -2.129  1.00  0.00    -0.386 N 
ATOM      5  H3  UNL     1       0.931  38.975  -1.293  1.00  0.00     0.159 HD
HETATM    6  C7  UNL     1       2.505  37.823  -2.075  1.00  0.00     0.091 A 
HETATM    7  C8  UNL     1       2.763  36.811  -2.966  1.00  0.00     0.037 A 
HETATM    8  C9  UNL     1       4.031  36.346  -2.647  1.00  0.00     0.154 A 
HETATM    9  N4  UNL     1       4.518  37.043  -1.610  1.00  0.00    -0.301 N 
HETATM   10  C16 UNL     1       3.617  37.963  -1.221  1.00  0.00     0.172 A 
ENDROOT
BRANCH   1  11
HETATM   11  C3  UNL     1       0.763  35.483  -3.511  1.00  0.00     0.244 C 
HETATM   12  N2  UNL     1       1.193  34.382  -2.724  1.00  0.00    -0.270 N 
ATOM     13  H2  UNL     1       2.182  34.295  -2.492  1.00  0.00     0.190 HD
HETATM   14  O1  UNL     1      -0.457  35.568  -3.783  1.00  0.00    -0.271 OA
BRANCH  12  15
HETATM   15  N1  UNL     1       0.300  33.414  -2.258  1.00  0.00    -0.306 N 
HETATM   16  C2  UNL     1       0.652  32.388  -1.582  1.00  0.00     0.004 C 
HETATM   17  C1  UNL     1       2.112  32.243  -1.289  1.00  0.00     0.065 C 
ATOM     18  H1  UNL     1      -0.691  33.532  -2.470  1.00  0.00     0.186 HD
BRANCH  16  19
HETATM   19  C17 UNL     1      -0.358  31.424  -1.136  1.00  0.00     0.032 C 
HETATM   20  C18 UNL     1      -1.751  31.886  -1.552  1.00  0.00     0.010 C 
HETATM   21  C19 UNL     1      -2.152  31.796  -0.093  1.00  0.00     0.001 C 
HETATM   22  C20 UNL     1      -0.746  31.512   0.323  1.00  0.00     0.010 C 
ENDBRANCH  16  19
ENDBRANCH  12  15
ENDBRANCH   1  11
BRANCH   8  23
HETATM   23  O2  UNL     1       4.635  35.308  -3.345  1.00  0.00    -0.345 OA
ATOM     24  H2  UNL     1       4.441  34.396  -3.164  1.00  0.00     0.219 HD
ENDBRANCH   8  23
BRANCH  10  25
HETATM   25  O3  UNL     1       3.713  38.882  -0.200  1.00  0.00    -0.344 OA
ATOM     26  H3  UNL     1       4.524  39.276   0.101  1.00  0.00     0.219 HD
ENDBRANCH  10  25
BRANCH   9  27
HETATM   27  C10 UNL     1       5.797  36.841  -1.007  1.00  0.00     0.094 C 
HETATM   28  C11 UNL     1       5.897  35.482  -0.298  1.00  0.00     0.026 C 
HETATM   29  C12 UNL     1       7.157  35.596   0.571  1.00  0.00     0.002 C 
HETATM   30  C13 UNL     1       8.321  35.703  -0.405  1.00  0.00     0.000 C 
HETATM   31  C14 UNL     1       8.216  37.064  -1.083  1.00  0.00     0.002 C 
HETATM   32  C15 UNL     1       6.953  36.994  -1.946  1.00  0.00     0.026 C 
ENDBRANCH   9  27
TORSDOF 6
ENDMDL
MODEL 3
REMARK VINA RESULT: -7.760667361      1.435      1.923
REMARK  6 active torsions:
REMARK  status: ('A' for Active; 'I' for Inactive)
REMARK    1  A    between atoms: C2_2  and  C17_29 
REMARK    2  A    between atoms: N1_3  and  N2_5 
REMARK       I    between atoms: N2_5  and  C3_7 
REMARK    3  A    between atoms: C3_7  and  C4_9 
REMARK    4  A    between atoms: C9_16  and  O2_17 
REMARK    5  A    between atoms: N4_19  and  C10_20 
REMARK    6  A    between atoms: C16_26  and  O3_27 
ROOT
HETATM    1  C4  UNL     1       1.992  35.627  -4.480  1.00  0.00     0.120 C 
HETATM    2  C5  UNL     1       0.964  35.501  -5.578  1.00  0.00     0.039 C 
HETATM    3  C6  UNL     1      -0.319  36.188  -5.267  1.00  0.00     0.121 C 
HETATM    4  N3  UNL     1      -0.209  37.336  -4.403  1.00  0.00    -0.386 N 
ATOM      5  H3  UNL     1      -1.055  37.783  -4.050  1.00  0.00     0.159 HD
HETATM    6  C7  UNL     1       1.045  37.847  -4.042  1.00  0.00     0.091 A 
HETATM    7  C8  UNL     1       2.150  37.033  -4.067  1.00  0.00     0.037 A 
HETATM    8  C9  UNL     1       3.211  37.829  -3.659  1.00  0.00     0.154 A 
HETATM    9  N4  UNL     1       2.768  39.068  -3.399  1.00  0.00    -0.301 N 
HETATM   10  C16 UNL     1       1.443  39.131  -3.620  1.00  0.00     0.172 A 
ENDROOT
BRANCH   1  11
HETATM   11  C3  UNL     1       1.651  34.722  -3.381  1.00  0.00     0.244 C 
HETATM   12  N2  UNL     1       0.991  33.496  -3.660  1.00  0.00    -0.270 N 
ATOM     13  H2  UNL     1       0.763  33.265  -4.627  1.00  0.00     0.190 HD
HETATM   14  O1  UNL     1       1.919  34.984  -2.186  1.00  0.00    -0.271 OA
BRANCH  12  15
HETATM   15  N1  UNL     1       0.644  32.597  -2.648  1.00  0.00    -0.306 N 
HETATM   16  C2  UNL     1      -0.562  32.341  -2.308  1.00  0.00     0.004 C 
HETATM   17  C1  UNL     1      -1.639  33.059  -3.055  1.00  0.00     0.065 C 
ATOM     18  H1  UNL     1       1.395  32.118  -2.152  1.00  0.00     0.186 HD
BRANCH  16  19
HETATM   19  C17 UNL     1      -0.829  31.381  -1.232  1.00  0.00     0.032 C 
HETATM   20  C18 UNL     1      -2.182  31.670  -0.589  1.00  0.00     0.010 C 
HETATM   21  C19 UNL     1      -1.461  31.767   0.741  1.00  0.00     0.001 C 
HETATM   22  C20 UNL     1      -0.127  31.655   0.078  1.00  0.00     0.010 C 
ENDBRANCH  16  19
ENDBRANCH  12  15
ENDBRANCH   1  11
BRANCH   8  23
HETATM   23  O2  UNL     1       4.508  37.340  -3.561  1.00  0.00    -0.345 OA
ATOM     24  H2  UNL     1       5.207  37.840  -3.157  1.00  0.00     0.219 HD
ENDBRANCH   8  23
BRANCH  10  25
HETATM   25  O3  UNL     1       0.598  40.208  -3.476  1.00  0.00    -0.344 OA
ATOM     26  H3  UNL     1       0.816  41.011  -3.018  1.00  0.00     0.219 HD
ENDBRANCH  10  25
BRANCH   9  27
HETATM   27  C10 UNL     1       3.579  40.157  -2.955  1.00  0.00     0.094 C 
HETATM   28  C11 UNL     1       4.269  39.860  -1.616  1.00  0.00     0.026 C 
HETATM   29  C12 UNL     1       4.774  41.227  -1.134  1.00  0.00     0.002 C 
HETATM   30  C13 UNL     1       5.847  41.643  -2.132  1.00  0.00     0.000 C 
HETATM   31  C14 UNL     1       5.142  41.953  -3.448  1.00  0.00     0.002 C 
HETATM   32  C15 UNL     1       4.604  40.610  -3.948  1.00  0.00     0.026 C 
ENDBRANCH   9  27
TORSDOF 6
ENDMDL
MODEL 4
REMARK VINA RESULT: -7.592675973      2.576      3.019
REMARK  6 active torsions:
REMARK  status: ('A' for Active; 'I' for Inactive)
REMARK    1  A    between atoms: C2_2  and  C17_29 
REMARK    2  A    between atoms: N1_3  and  N2_5 
REMARK       I    between atoms: N2_5  and  C3_7 
REMARK    3  A    between atoms: C3_7  and  C4_9 
REMARK    4  A    between atoms: C9_16  and  O2_17 
REMARK    5  A    between atoms: N4_19  and  C10_20 
REMARK    6  A    between atoms: C16_26  and  O3_27 
ROOT
HETATM    1  C4  UNL     1       2.121  34.864  -4.575  1.00  0.00     0.120 C 
HETATM    2  C5  UNL     1       1.538  35.795  -5.610  1.00  0.00     0.039 C 
HETATM    3  C6  UNL     1       0.864  36.984  -5.021  1.00  0.00     0.121 C 
HETATM    4  N3  UNL     1       1.392  37.426  -3.755  1.00  0.00    -0.386 N 
ATOM      5  H3  UNL     1       0.907  38.157  -3.236  1.00  0.00     0.159 HD
HETATM    6  C7  UNL     1       2.564  36.866  -3.230  1.00  0.00     0.091 A 
HETATM    7  C8  UNL     1       2.952  35.605  -3.609  1.00  0.00     0.037 A 
HETATM    8  C9  UNL     1       4.128  35.351  -2.918  1.00  0.00     0.154 A 
HETATM    9  N4  UNL     1       4.438  36.410  -2.154  1.00  0.00    -0.301 N 
HETATM   10  C16 UNL     1       3.507  37.368  -2.310  1.00  0.00     0.172 A 
ENDROOT
BRANCH   1  11
HETATM   11  C3  UNL     1       1.048  34.083  -3.955  1.00  0.00     0.244 C 
HETATM   12  N2  UNL     1       1.173  33.668  -2.603  1.00  0.00    -0.270 N 
ATOM     13  H2  UNL     1       2.012  33.922  -2.082  1.00  0.00     0.190 HD
HETATM   14  O1  UNL     1       0.009  33.759  -4.575  1.00  0.00    -0.271 OA
BRANCH  12  15
HETATM   15  N1  UNL     1       0.179  32.923  -1.965  1.00  0.00    -0.306 N 
HETATM   16  C2  UNL     1       0.405  31.846  -1.314  1.00  0.00     0.004 C 
HETATM   17  C1  UNL     1       1.826  31.384  -1.250  1.00  0.00     0.065 C 
ATOM     18  H1  UNL     1      -0.783  33.256  -2.022  1.00  0.00     0.186 HD
BRANCH  16  19
HETATM   19  C17 UNL     1      -0.704  31.130  -0.677  1.00  0.00     0.032 C 
HETATM   20  C18 UNL     1      -2.036  31.586  -1.265  1.00  0.00     0.010 C 
HETATM   21  C19 UNL     1      -2.475  31.924   0.146  1.00  0.00     0.001 C 
HETATM   22  C20 UNL     1      -1.113  31.639   0.687  1.00  0.00     0.010 C 
ENDBRANCH  16  19
ENDBRANCH  12  15
ENDBRANCH   1  11
BRANCH   8  23
HETATM   23  O2  UNL     1       4.821  34.155  -3.052  1.00  0.00    -0.345 OA
ATOM     24  H2  UNL     1       5.406  33.831  -2.377  1.00  0.00     0.219 HD
ENDBRANCH   8  23
BRANCH  10  25
HETATM   25  O3  UNL     1       3.442  38.607  -1.715  1.00  0.00    -0.344 OA
ATOM     26  H3  UNL     1       4.166  39.037  -1.276  1.00  0.00     0.219 HD
ENDBRANCH  10  25
BRANCH   9  27
HETATM   27  C10 UNL     1       5.581  36.507  -1.303  1.00  0.00     0.094 C 
HETATM   28  C11 UNL     1       5.713  35.296  -0.367  1.00  0.00     0.026 C 
HETATM   29  C12 UNL     1       6.740  35.736   0.685  1.00  0.00     0.002 C 
HETATM   30  C13 UNL     1       8.055  35.893  -0.066  1.00  0.00     0.000 C 
HETATM   31  C14 UNL     1       7.912  37.110  -0.975  1.00  0.00     0.002 C 
HETATM   32  C15 UNL     1       6.875  36.713  -2.028  1.00  0.00     0.026 C 
ENDBRANCH   9  27
TORSDOF 6
ENDMDL
MODEL 5
REMARK VINA RESULT: -7.580092861      2.078      6.911
REMARK  6 active torsions:
REMARK  status: ('A' for Active; 'I' for Inactive)
REMARK    1  A    between atoms: C2_2  and  C17_29 
REMARK    2  A    between atoms: N1_3  and  N2_5 
REMARK       I    between atoms: N2_5  and  C3_7 
REMARK    3  A    between atoms: C3_7  and  C4_9 
REMARK    4  A    between atoms: C9_16  and  O2_17 
REMARK    5  A    between atoms: N4_19  and  C10_20 
REMARK    6  A    between atoms: C16_26  and  O3_27 
ROOT
HETATM    1  C4  UNL     1       0.390  36.691  -5.320  1.00  0.00     0.120 C 
HETATM    2  C5  UNL     1      -0.282  36.978  -6.640  1.00  0.00     0.039 C 
HETATM    3  C6  UNL     1      -0.055  35.920  -7.661  1.00  0.00     0.121 C 
HETATM    4  N3  UNL     1       0.141  34.592  -7.137  1.00  0.00    -0.386 N 
ATOM      5  H3  UNL     1       0.421  33.839  -7.766  1.00  0.00     0.159 HD
HETATM    6  C7  UNL     1      -0.047  34.321  -5.776  1.00  0.00     0.091 A 
HETATM    7  C8  UNL     1       0.070  35.330  -4.853  1.00  0.00     0.037 A 
HETATM    8  C9  UNL     1      -0.167  34.738  -3.619  1.00  0.00     0.154 A 
HETATM    9  N4  UNL     1      -0.416  33.432  -3.789  1.00  0.00    -0.301 N 
HETATM   10  C16 UNL     1      -0.354  33.124  -5.096  1.00  0.00     0.172 A 
ENDROOT
BRANCH   1  11
HETATM   11  C3  UNL     1       1.826  36.956  -5.431  1.00  0.00     0.244 C 
HETATM   12  N2  UNL     1       2.664  36.771  -4.300  1.00  0.00    -0.270 N 
ATOM     13  H2  UNL     1       2.249  36.455  -3.423  1.00  0.00     0.190 HD
HETATM   14  O1  UNL     1       2.357  37.345  -6.497  1.00  0.00    -0.271 OA
BRANCH  12  15
HETATM   15  N1  UNL     1       4.039  37.009  -4.353  1.00  0.00    -0.306 N 
HETATM   16  C2  UNL     1       4.841  36.762  -3.389  1.00  0.00     0.004 C 
HETATM   17  C1  UNL     1       4.243  36.184  -2.147  1.00  0.00     0.065 C 
ATOM     18  H1  UNL     1       4.426  37.404  -5.210  1.00  0.00     0.186 HD
BRANCH  16  19
HETATM   19  C17 UNL     1       6.272  37.046  -3.537  1.00  0.00     0.032 C 
HETATM   20  C18 UNL     1       6.970  36.968  -2.183  1.00  0.00     0.010 C 
HETATM   21  C19 UNL     1       7.465  38.381  -2.424  1.00  0.00     0.001 C 
HETATM   22  C20 UNL     1       6.639  38.507  -3.662  1.00  0.00     0.010 C 
ENDBRANCH  16  19
ENDBRANCH  12  15
ENDBRANCH   1  11
BRANCH   8  23
HETATM   23  O2  UNL     1      -0.134  35.462  -2.434  1.00  0.00    -0.345 OA
ATOM     24  H2  UNL     1       0.594  35.402  -1.826  1.00  0.00     0.219 HD
ENDBRANCH   8  23
BRANCH  10  25
HETATM   25  O3  UNL     1      -0.543  31.903  -5.703  1.00  0.00    -0.344 OA
ATOM     26  H3  UNL     1      -0.115  31.096  -5.442  1.00  0.00     0.219 HD
ENDBRANCH  10  25
BRANCH   9  27
HETATM   27  C10 UNL     1      -0.703  32.504  -2.741  1.00  0.00     0.094 C 
HETATM   28  C11 UNL     1       0.421  32.441  -1.696  1.00  0.00     0.026 C 
HETATM   29  C12 UNL     1       0.119  31.174  -0.885  1.00  0.00     0.002 C 
HETATM   30  C13 UNL     1      -1.186  31.458  -0.152  1.00  0.00     0.000 C 
HETATM   31  C14 UNL     1      -2.292  31.497  -1.201  1.00  0.00     0.002 C 
HETATM   32  C15 UNL     1      -2.008  32.741  -2.046  1.00  0.00     0.026 C 
ENDBRANCH   9  27
TORSDOF 6
ENDMDL
