MODEL 1
REMARK VINA RESULT: -7.603174114      0.000      0.000
REMARK  6 active torsions:
REMARK  status: ('A' for Active; 'I' for Inactive)
REMARK    1  A    between atoms: C2_2  and  O1_4 
REMARK    2  A    between atoms: O1_4  and  C4_5 
REMARK    3  A    between atoms: C6_7  and  C7_8 
REMARK    4  A    between atoms: N1_10  and  C9_11 
REMARK    5  A    between atoms: C17_19  and  N2_20 
REMARK    6  A    between atoms: C20_31  and  N6_32 
ROOT
HETATM    1  C7  UNL     1       2.258  35.813  -3.118  1.00  0.00     0.074 A 
HETATM    2  C8  UNL     1       2.320  37.169  -2.897  1.00  0.00     0.139 A 
HETATM    3  N1  UNL     1       3.620  37.565  -3.006  1.00  0.00    -0.280 N 
HETATM    4  N3  UNL     1       4.311  36.471  -3.283  1.00  0.00    -0.020 NA
HETATM    5  N4  UNL     1       3.517  35.417  -3.353  1.00  0.00    -0.282 N 
ATOM      6  H4  UNL     1       3.813  34.462  -3.554  1.00  0.00     0.184 HD
ENDROOT
BRANCH   1   7
HETATM    7  C6  UNL     1       1.109  34.922  -3.113  1.00  0.00     0.011 A 
HETATM    8  C5  UNL     1       1.190  33.615  -2.724  1.00  0.00     0.055 A 
HETATM    9  C4  UNL     1       0.080  32.737  -2.714  1.00  0.00     0.113 A 
HETATM   10  C20 UNL     1      -1.131  33.246  -3.120  1.00  0.00     0.132 A 
HETATM   11  N5  UNL     1      -1.205  34.537  -3.503  1.00  0.00    -0.350 N 
HETATM   12  C19 UNL     1      -0.143  35.361  -3.508  1.00  0.00     0.103 A 
ATOM     13  H5  UNL     1      -2.108  34.905  -3.803  1.00  0.00     0.166 HD
BRANCH   9  14
HETATM   14  O1  UNL     1       0.276  31.474  -2.313  1.00  0.00    -0.343 OA
BRANCH  14  15
HETATM   15  C2  UNL     1       0.534  30.733  -1.226  1.00  0.00     0.121 C 
HETATM   16  C1  UNL     1       0.308  31.472   0.099  1.00  0.00     0.040 C 
HETATM   17  C3  UNL     1       2.007  30.291  -1.162  1.00  0.00     0.040 C 
ENDBRANCH  14  15
ENDBRANCH   9  14
BRANCH  10  18
HETATM   18  N6  UNL     1      -2.215  32.511  -3.145  1.00  0.00    -0.383 N 
ATOM     19  H62 UNL     1      -2.465  32.026  -4.006  1.00  0.00     0.157 HD
ATOM     20  H61 UNL     1      -2.816  32.412  -2.326  1.00  0.00     0.157 HD
ENDBRANCH  10  18
ENDBRANCH   1   7
BRANCH   3  21
HETATM   21  C9  UNL     1       4.165  38.901  -2.854  1.00  0.00     0.108 C 
HETATM   22  C10 UNL     1       5.631  38.783  -2.559  1.00  0.00     0.027 C 
HETATM   23  C11 UNL     1       6.261  40.001  -2.008  1.00  0.00     0.009 C 
HETATM   24  C12 UNL     1       5.405  41.192  -1.854  1.00  0.00     0.021 C 
HETATM   25  C13 UNL     1       5.585  42.146  -3.045  1.00  0.00     0.007 C 
HETATM   26  C17 UNL     1       3.967  40.957  -1.569  1.00  0.00     0.129 C 
HETATM   27  C14 UNL     1       4.858  43.437  -2.818  1.00  0.00     0.001 C 
HETATM   28  C15 UNL     1       3.425  43.199  -2.357  1.00  0.00     0.002 C 
HETATM   29  C16 UNL     1       3.136  41.730  -2.593  1.00  0.00     0.039 C 
HETATM   30  C18 UNL     1       3.532  39.526  -1.633  1.00  0.00     0.066 C 
BRANCH  26  31
HETATM   31  N2  UNL     1       3.549  41.477  -0.265  1.00  0.00    -0.070 N 
ATOM     32  H23 UNL     1       3.403  40.717   0.400  1.00  0.00     0.275 HD
ATOM     33  H22 UNL     1       4.319  41.959   0.198  1.00  0.00     0.275 HD
ATOM     34  H21 UNL     1       2.725  42.075  -0.320  1.00  0.00     0.275 HD
ENDBRANCH  26  31
ENDBRANCH   3  21
TORSDOF 6
ENDMDL
MODEL 2
REMARK VINA RESULT: -7.539123014      2.679      9.041
REMARK  6 active torsions:
REMARK  status: ('A' for Active; 'I' for Inactive)
REMARK    1  A    between atoms: C2_2  and  O1_4 
REMARK    2  A    between atoms: O1_4  and  C4_5 
REMARK    3  A    between atoms: C6_7  and  C7_8 
REMARK    4  A    between atoms: N1_10  and  C9_11 
REMARK    5  A    between atoms: C17_19  and  N2_20 
REMARK    6  A    between atoms: C20_31  and  N6_32 
ROOT
HETATM    1  C7  UNL     1       3.870  37.145  -2.691  1.00  0.00     0.074 A 
HETATM    2  C8  UNL     1       2.959  36.388  -1.992  1.00  0.00     0.139 A 
HETATM    3  N1  UNL     1       2.635  35.298  -2.745  1.00  0.00    -0.280 N 
HETATM    4  N3  UNL     1       3.335  35.408  -3.862  1.00  0.00    -0.020 NA
HETATM    5  N4  UNL     1       4.076  36.502  -3.849  1.00  0.00    -0.282 N 
ATOM      6  H4  UNL     1       4.701  36.805  -4.595  1.00  0.00     0.184 HD
ENDROOT
BRANCH   1   7
HETATM    7  C6  UNL     1       4.518  38.393  -2.323  1.00  0.00     0.011 A 
HETATM    8  C5  UNL     1       3.819  39.530  -2.032  1.00  0.00     0.055 A 
HETATM    9  C4  UNL     1       4.436  40.752  -1.672  1.00  0.00     0.113 A 
HETATM   10  C20 UNL     1       5.809  40.773  -1.618  1.00  0.00     0.132 A 
HETATM   11  N5  UNL     1       6.495  39.647  -1.905  1.00  0.00    -0.350 N 
HETATM   12  C19 UNL     1       5.896  38.492  -2.246  1.00  0.00     0.103 A 
ATOM     13  H5  UNL     1       7.514  39.672  -1.862  1.00  0.00     0.166 HD
BRANCH   9  14
HETATM   14  O1  UNL     1       3.650  41.805  -1.409  1.00  0.00    -0.343 OA
BRANCH  14  15
HETATM   15  C2  UNL     1       2.920  42.368  -0.436  1.00  0.00     0.121 C 
HETATM   16  C1  UNL     1       3.660  43.463   0.343  1.00  0.00     0.040 C 
HETATM   17  C3  UNL     1       2.513  41.350   0.644  1.00  0.00     0.040 C 
ENDBRANCH  14  15
ENDBRANCH   9  14
BRANCH  10  18
HETATM   18  N6  UNL     1       6.471  41.855  -1.294  1.00  0.00    -0.383 N 
ATOM     19  H62 UNL     1       5.969  42.636  -0.872  1.00  0.00     0.157 HD
ATOM     20  H61 UNL     1       7.476  41.939  -1.454  1.00  0.00     0.157 HD
ENDBRANCH  10  18
ENDBRANCH   1   7
BRANCH   3  21
HETATM   21  C9  UNL     1       1.717  34.224  -2.418  1.00  0.00     0.108 C 
HETATM   22  C10 UNL     1       2.516  33.046  -1.945  1.00  0.00     0.027 C 
HETATM   23  C11 UNL     1       1.789  31.759  -1.932  1.00  0.00     0.009 C 
HETATM   24  C12 UNL     1       0.370  31.782  -2.333  1.00  0.00     0.021 C 
HETATM   25  C13 UNL     1      -0.542  31.828  -1.097  1.00  0.00     0.007 C 
HETATM   26  C17 UNL     1      -0.031  32.802  -3.334  1.00  0.00     0.129 C 
HETATM   27  C14 UNL     1      -1.982  31.674  -1.483  1.00  0.00     0.001 C 
HETATM   28  C15 UNL     1      -2.357  32.602  -2.631  1.00  0.00     0.002 C 
HETATM   29  C16 UNL     1      -1.216  33.590  -2.776  1.00  0.00     0.039 C 
HETATM   30  C18 UNL     1       1.032  33.792  -3.693  1.00  0.00     0.066 C 
BRANCH  26  31
HETATM   31  N2  UNL     1      -0.517  32.216  -4.586  1.00  0.00    -0.070 N 
ATOM     32  H23 UNL     1      -0.110  32.692  -5.392  1.00  0.00     0.275 HD
ATOM     33  H22 UNL     1      -0.126  31.285  -4.727  1.00  0.00     0.275 HD
ATOM     34  H21 UNL     1      -1.534  32.199  -4.650  1.00  0.00     0.275 HD
ENDBRANCH  26  31
ENDBRANCH   3  21
TORSDOF 6
ENDMDL
MODEL 3
REMARK VINA RESULT: -7.488460125      1.037      1.339
REMARK  6 active torsions:
REMARK  status: ('A' for Active; 'I' for Inactive)
REMARK    1  A    between atoms: C2_2  and  O1_4 
REMARK    2  A    between atoms: O1_4  and  C4_5 
REMARK    3  A    between atoms: C6_7  and  C7_8 
REMARK    4  A    between atoms: N1_10  and  C9_11 
REMARK    5  A    between atoms: C17_19  and  N2_20 
REMARK    6  A    between atoms: C20_31  and  N6_32 
ROOT
HETATM    1  C7  UNL     1       2.076  35.905  -2.939  1.00  0.00     0.074 A 
HETATM    2  C8  UNL     1       2.077  37.234  -2.588  1.00  0.00     0.139 A 
HETATM    3  N1  UNL     1       3.354  37.704  -2.672  1.00  0.00    -0.280 N 
HETATM    4  N3  UNL     1       4.092  36.678  -3.063  1.00  0.00    -0.020 NA
HETATM    5  N4  UNL     1       3.350  35.597  -3.227  1.00  0.00    -0.282 N 
ATOM      6  H4  UNL     1       3.689  34.682  -3.523  1.00  0.00     0.184 HD
ENDROOT
BRANCH   1   7
HETATM    7  C6  UNL     1       0.973  34.961  -3.007  1.00  0.00     0.011 A 
HETATM    8  C5  UNL     1       1.094  33.654  -2.629  1.00  0.00     0.055 A 
HETATM    9  C4  UNL     1       0.028  32.725  -2.690  1.00  0.00     0.113 A 
HETATM   10  C20 UNL     1      -1.181  33.182  -3.156  1.00  0.00     0.132 A 
HETATM   11  N5  UNL     1      -1.296  34.474  -3.528  1.00  0.00    -0.350 N 
HETATM   12  C19 UNL     1      -0.275  35.347  -3.465  1.00  0.00     0.103 A 
ATOM     13  H5  UNL     1      -2.198  34.803  -3.873  1.00  0.00     0.166 HD
BRANCH   9  14
HETATM   14  O1  UNL     1       0.263  31.466  -2.293  1.00  0.00    -0.343 OA
BRANCH  14  15
HETATM   15  C2  UNL     1       0.531  30.729  -1.206  1.00  0.00     0.121 C 
HETATM   16  C1  UNL     1       0.314  31.470   0.119  1.00  0.00     0.040 C 
HETATM   17  C3  UNL     1       2.005  30.292  -1.153  1.00  0.00     0.040 C 
ENDBRANCH  14  15
ENDBRANCH   9  14
BRANCH  10  18
HETATM   18  N6  UNL     1      -2.226  32.398  -3.249  1.00  0.00    -0.383 N 
ATOM     19  H62 UNL     1      -2.085  31.401  -3.413  1.00  0.00     0.157 HD
ATOM     20  H61 UNL     1      -3.177  32.757  -3.161  1.00  0.00     0.157 HD
ENDBRANCH  10  18
ENDBRANCH   1   7
BRANCH   3  21
HETATM   21  C9  UNL     1       3.835  39.044  -2.398  1.00  0.00     0.108 C 
HETATM   22  C10 UNL     1       3.687  39.308  -0.928  1.00  0.00     0.027 C 
HETATM   23  C11 UNL     1       3.769  40.730  -0.535  1.00  0.00     0.009 C 
HETATM   24  C12 UNL     1       4.029  41.712  -1.604  1.00  0.00     0.021 C 
HETATM   25  C13 UNL     1       5.521  42.076  -1.655  1.00  0.00     0.007 C 
HETATM   26  C17 UNL     1       3.510  41.389  -2.957  1.00  0.00     0.129 C 
HETATM   27  C14 UNL     1       5.771  43.199  -2.615  1.00  0.00     0.001 C 
HETATM   28  C15 UNL     1       5.093  42.951  -3.956  1.00  0.00     0.002 C 
HETATM   29  C16 UNL     1       4.661  41.497  -3.957  1.00  0.00     0.039 C 
HETATM   30  C18 UNL     1       2.922  40.020  -3.101  1.00  0.00     0.066 C 
BRANCH  26  31
HETATM   31  N2  UNL     1       2.503  42.343  -3.427  1.00  0.00    -0.070 N 
ATOM     32  H23 UNL     1       1.829  42.554  -2.690  1.00  0.00     0.275 HD
ATOM     33  H22 UNL     1       2.910  43.270  -3.551  1.00  0.00     0.275 HD
ATOM     34  H21 UNL     1       2.029  42.037  -4.276  1.00  0.00     0.275 HD
ENDBRANCH  26  31
ENDBRANCH   3  21
TORSDOF 6
ENDMDL
MODEL 4
REMARK VINA RESULT: -7.463626648      2.103      2.396
REMARK  6 active torsions:
REMARK  status: ('A' for Active; 'I' for Inactive)
REMARK    1  A    between atoms: C2_2  and  O1_4 
REMARK    2  A    between atoms: O1_4  and  C4_5 
REMARK    3  A    between atoms: C6_7  and  C7_8 
REMARK    4  A    between atoms: N1_10  and  C9_11 
REMARK    5  A    between atoms: C17_19  and  N2_20 
REMARK    6  A    between atoms: C20_31  and  N6_32 
ROOT
HETATM    1  C7  UNL     1       2.311  36.688  -5.537  1.00  0.00     0.074 A 
HETATM    2  C8  UNL     1       2.649  37.372  -4.393  1.00  0.00     0.139 A 
HETATM    3  N1  UNL     1       3.594  38.303  -4.708  1.00  0.00    -0.280 N 
HETATM    4  N3  UNL     1       3.811  38.173  -6.007  1.00  0.00    -0.020 NA
HETATM    5  N4  UNL     1       3.056  37.216  -6.518  1.00  0.00    -0.282 N 
ATOM      6  H4  UNL     1       3.044  36.928  -7.496  1.00  0.00     0.184 HD
ENDROOT
BRANCH   1   7
HETATM    7  C6  UNL     1       1.358  35.607  -5.727  1.00  0.00     0.011 A 
HETATM    8  C5  UNL     1       1.043  34.719  -4.738  1.00  0.00     0.055 A 
HETATM    9  C4  UNL     1       0.116  33.662  -4.908  1.00  0.00     0.113 A 
HETATM   10  C20 UNL     1      -0.484  33.542  -6.139  1.00  0.00     0.132 A 
HETATM   11  N5  UNL     1      -0.169  34.422  -7.111  1.00  0.00    -0.350 N 
HETATM   12  C19 UNL     1       0.712  35.422  -6.937  1.00  0.00     0.103 A 
ATOM     13  H5  UNL     1      -0.621  34.324  -8.021  1.00  0.00     0.166 HD
BRANCH   9  14
HETATM   14  O1  UNL     1      -0.115  32.850  -3.868  1.00  0.00    -0.343 OA
BRANCH  14  15
HETATM   15  C2  UNL     1      -0.448  32.856  -2.570  1.00  0.00     0.121 C 
HETATM   16  C1  UNL     1       0.260  31.777  -1.740  1.00  0.00     0.040 C 
HETATM   17  C3  UNL     1      -1.945  32.572  -2.354  1.00  0.00     0.040 C 
ENDBRANCH  14  15
ENDBRANCH   9  14
BRANCH  10  18
HETATM   18  N6  UNL     1      -1.354  32.597  -6.393  1.00  0.00    -0.383 N 
ATOM     19  H62 UNL     1      -1.952  32.258  -5.640  1.00  0.00     0.157 HD
ATOM     20  H61 UNL     1      -1.450  32.191  -7.324  1.00  0.00     0.157 HD
ENDBRANCH  10  18
ENDBRANCH   1   7
BRANCH   3  21
HETATM   21  C9  UNL     1       4.245  39.252  -3.827  1.00  0.00     0.108 C 
HETATM   22  C10 UNL     1       5.688  38.864  -3.696  1.00  0.00     0.027 C 
HETATM   23  C11 UNL     1       6.404  39.479  -2.559  1.00  0.00     0.009 C 
HETATM   24  C12 UNL     1       5.648  40.427  -1.720  1.00  0.00     0.021 C 
HETATM   25  C13 UNL     1       5.938  41.876  -2.142  1.00  0.00     0.007 C 
HETATM   26  C17 UNL     1       4.189  40.191  -1.583  1.00  0.00     0.129 C 
HETATM   27  C14 UNL     1       5.317  42.851  -1.189  1.00  0.00     0.001 C 
HETATM   28  C15 UNL     1       3.859  42.511  -0.910  1.00  0.00     0.002 C 
HETATM   29  C16 UNL     1       3.452  41.481  -1.946  1.00  0.00     0.039 C 
HETATM   30  C18 UNL     1       3.637  39.104  -2.452  1.00  0.00     0.066 C 
BRANCH  26  31
HETATM   31  N2  UNL     1       3.783  39.892  -0.208  1.00  0.00    -0.070 N 
ATOM     32  H23 UNL     1       2.977  40.456   0.065  1.00  0.00     0.275 HD
ATOM     33  H22 UNL     1       3.367  38.964  -0.145  1.00  0.00     0.275 HD
ATOM     34  H21 UNL     1       4.543  39.996   0.464  1.00  0.00     0.275 HD
ENDBRANCH  26  31
ENDBRANCH   3  21
TORSDOF 6
ENDMDL
MODEL 5
REMARK VINA RESULT: -7.436910360      2.586      9.089
REMARK  6 active torsions:
REMARK  status: ('A' for Active; 'I' for Inactive)
REMARK    1  A    between atoms: C2_2  and  O1_4 
REMARK    2  A    between atoms: O1_4  and  C4_5 
REMARK    3  A    between atoms: C6_7  and  C7_8 
REMARK    4  A    between atoms: N1_10  and  C9_11 
REMARK    5  A    between atoms: C17_19  and  N2_20 
REMARK    6  A    between atoms: C20_31  and  N6_32 
ROOT
HETATM    1  C7  UNL     1       3.926  37.160  -2.675  1.00  0.00     0.074 A 
HETATM    2  C8  UNL     1       2.994  36.415  -1.991  1.00  0.00     0.139 A 
HETATM    3  N1  UNL     1       2.688  35.316  -2.736  1.00  0.00    -0.280 N 
HETATM    4  N3  UNL     1       3.418  35.408  -3.835  1.00  0.00    -0.020 NA
HETATM    5  N4  UNL     1       4.162  36.499  -3.817  1.00  0.00    -0.282 N 
ATOM      6  H4  UNL     1       4.808  36.790  -4.550  1.00  0.00     0.184 HD
ENDROOT
BRANCH   1   7
HETATM    7  C6  UNL     1       4.567  38.412  -2.307  1.00  0.00     0.011 A 
HETATM    8  C5  UNL     1       3.861  39.533  -1.974  1.00  0.00     0.055 A 
HETATM    9  C4  UNL     1       4.472  40.758  -1.613  1.00  0.00     0.113 A 
HETATM   10  C20 UNL     1       5.846  40.799  -1.605  1.00  0.00     0.132 A 
HETATM   11  N5  UNL     1       6.538  39.689  -1.934  1.00  0.00    -0.350 N 
HETATM   12  C19 UNL     1       5.946  38.531  -2.275  1.00  0.00     0.103 A 
ATOM     13  H5  UNL     1       7.557  39.730  -1.925  1.00  0.00     0.166 HD
BRANCH   9  14
HETATM   14  O1  UNL     1       3.680  41.794  -1.306  1.00  0.00    -0.343 OA
BRANCH  14  15
HETATM   15  C2  UNL     1       2.976  42.792  -1.858  1.00  0.00     0.121 C 
HETATM   16  C1  UNL     1       1.489  42.470  -2.058  1.00  0.00     0.040 C 
HETATM   17  C3  UNL     1       3.476  43.141  -3.271  1.00  0.00     0.040 C 
ENDBRANCH  14  15
ENDBRANCH   9  14
BRANCH  10  18
HETATM   18  N6  UNL     1       6.502  41.886  -1.285  1.00  0.00    -0.383 N 
ATOM     19  H62 UNL     1       6.723  42.062  -0.305  1.00  0.00     0.157 HD
ATOM     20  H61 UNL     1       6.797  42.563  -1.990  1.00  0.00     0.157 HD
ENDBRANCH  10  18
ENDBRANCH   1   7
BRANCH   3  21
HETATM   21  C9  UNL     1       1.758  34.249  -2.419  1.00  0.00     0.108 C 
HETATM   22  C10 UNL     1       2.542  33.063  -1.940  1.00  0.00     0.027 C 
HETATM   23  C11 UNL     1       1.805  31.783  -1.935  1.00  0.00     0.009 C 
HETATM   24  C12 UNL     1       0.391  31.817  -2.349  1.00  0.00     0.021 C 
HETATM   25  C13 UNL     1      -0.533  31.870  -1.123  1.00  0.00     0.007 C 
HETATM   26  C17 UNL     1       0.007  32.842  -3.354  1.00  0.00     0.129 C 
HETATM   27  C14 UNL     1      -1.970  31.728  -1.522  1.00  0.00     0.001 C 
HETATM   28  C15 UNL     1      -2.327  32.660  -2.673  1.00  0.00     0.002 C 
HETATM   29  C16 UNL     1      -1.177  33.639  -2.805  1.00  0.00     0.039 C 
HETATM   30  C18 UNL     1       1.082  33.824  -3.701  1.00  0.00     0.066 C 
BRANCH  26  31
HETATM   31  N2  UNL     1      -0.471  32.261  -4.610  1.00  0.00    -0.070 N 
ATOM     32  H23 UNL     1      -0.675  32.991  -5.294  1.00  0.00     0.275 HD
ATOM     33  H22 UNL     1       0.284  31.781  -5.099  1.00  0.00     0.275 HD
ATOM     34  H21 UNL     1      -1.274  31.645  -4.485  1.00  0.00     0.275 HD
ENDBRANCH  26  31
ENDBRANCH   3  21
TORSDOF 6
ENDMDL
