MODEL 1
REMARK VINA RESULT: -7.348237973      0.000      0.000
REMARK  4 active torsions:
REMARK  status: ('A' for Active; 'I' for Inactive)
REMARK       I    between atoms: C1_4  and  N2_5 
REMARK       I    between atoms: C1_4  and  N4_21 
REMARK    1  A    between atoms: N2_5  and  C2_7 
REMARK    2  A    between atoms: C7_12  and  N3_13 
REMARK    3  A    between atoms: N3_13  and  C8_15 
REMARK    4  A    between atoms: N4_21  and  N5_23 
ROOT
HETATM    1  C2  UNL     1      35.426  35.224  -4.398  1.00  0.00     0.075 A 
HETATM    2  C3  UNL     1      35.657  35.744  -5.653  1.00  0.00     0.032 A 
HETATM    3  C4  UNL     1      35.770  34.979  -6.793  1.00  0.00     0.002 A 
HETATM    4  C5  UNL     1      35.637  33.620  -6.618  1.00  0.00     0.002 A 
HETATM    5  C6  UNL     1      35.404  33.024  -5.396  1.00  0.00     0.032 A 
HETATM    6  C7  UNL     1      35.296  33.839  -4.263  1.00  0.00     0.060 A 
ENDROOT
BRANCH   1   7
HETATM    7  N2  UNL     1      35.320  36.138  -3.312  1.00  0.00    -0.189 N 
HETATM    8  C1  UNL     1      36.465  36.843  -2.834  1.00  0.00     0.695 C 
HETATM    9  N1  UNL     1      36.593  38.087  -3.116  1.00  0.00    -0.233 N 
HETATM   10  N4  UNL     1      37.448  36.196  -2.063  1.00  0.00    -0.072 N 
ATOM     11  H12 UNL     1      35.880  38.555  -3.675  1.00  0.00     0.174 HD
ATOM     12  H11 UNL     1      37.412  38.590  -2.774  1.00  0.00     0.174 HD
ATOM     13  H4  UNL     1      37.202  35.320  -1.602  1.00  0.00     0.212 HD
ATOM     14  H2  UNL     1      34.415  36.291  -2.870  1.00  0.00     0.184 HD
BRANCH  10  15
HETATM   15  N5  UNL     1      38.737  36.685  -1.894  1.00  0.00    -0.024 N 
HETATM   16  O1  UNL     1      39.403  36.951  -2.905  1.00  0.00    -0.516 OA
HETATM   17  O2  UNL     1      39.243  36.863  -0.638  1.00  0.00    -0.516 OA
ENDBRANCH  10  15
ENDBRANCH   1   7
BRANCH   6  18
HETATM   18  N3  UNL     1      35.111  33.321  -2.985  1.00  0.00    -0.354 N 
ATOM     19  H3  UNL     1      34.266  33.607  -2.491  1.00  0.00     0.166 HD
BRANCH  18  20
HETATM   20  C8  UNL     1      35.980  32.437  -2.304  1.00  0.00     0.032 A 
HETATM   21  C9  UNL     1      35.599  31.263  -1.706  1.00  0.00     0.029 A 
HETATM   22  C10 UNL     1      36.528  30.433  -1.071  1.00  0.00     0.002 A 
HETATM   23  C11 UNL     1      37.866  30.749  -1.014  1.00  0.00     0.000 A 
HETATM   24  C12 UNL     1      38.264  31.925  -1.610  1.00  0.00     0.002 A 
HETATM   25  C13 UNL     1      37.346  32.738  -2.234  1.00  0.00     0.029 A 
ENDBRANCH  18  20
ENDBRANCH   6  18
TORSDOF 4
ENDMDL
MODEL 2
REMARK VINA RESULT: -7.298812970      0.136      1.054
REMARK  4 active torsions:
REMARK  status: ('A' for Active; 'I' for Inactive)
REMARK       I    between atoms: C1_4  and  N2_5 
REMARK       I    between atoms: C1_4  and  N4_21 
REMARK    1  A    between atoms: N2_5  and  C2_7 
REMARK    2  A    between atoms: C7_12  and  N3_13 
REMARK    3  A    between atoms: N3_13  and  C8_15 
REMARK    4  A    between atoms: N4_21  and  N5_23 
ROOT
HETATM    1  C2  UNL     1      35.429  35.239  -4.411  1.00  0.00     0.075 A 
HETATM    2  C3  UNL     1      35.604  35.795  -5.660  1.00  0.00     0.032 A 
HETATM    3  C4  UNL     1      35.713  35.060  -6.819  1.00  0.00     0.002 A 
HETATM    4  C5  UNL     1      35.639  33.694  -6.672  1.00  0.00     0.002 A 
HETATM    5  C6  UNL     1      35.466  33.062  -5.458  1.00  0.00     0.032 A 
HETATM    6  C7  UNL     1      35.358  33.847  -4.304  1.00  0.00     0.060 A 
ENDROOT
BRANCH   1   7
HETATM    7  N2  UNL     1      35.320  36.124  -3.302  1.00  0.00    -0.189 N 
HETATM    8  C1  UNL     1      36.458  36.831  -2.813  1.00  0.00     0.695 C 
HETATM    9  N1  UNL     1      36.569  38.083  -3.064  1.00  0.00    -0.233 N 
HETATM   10  N4  UNL     1      37.455  36.177  -2.064  1.00  0.00    -0.072 N 
ATOM     11  H12 UNL     1      35.848  38.556  -3.607  1.00  0.00     0.174 HD
ATOM     12  H11 UNL     1      37.384  38.588  -2.715  1.00  0.00     0.174 HD
ATOM     13  H4  UNL     1      37.222  35.287  -1.624  1.00  0.00     0.212 HD
ATOM     14  H2  UNL     1      34.415  36.255  -2.850  1.00  0.00     0.184 HD
BRANCH  10  15
HETATM   15  N5  UNL     1      38.738  36.678  -1.891  1.00  0.00    -0.024 N 
HETATM   16  O1  UNL     1      39.403  36.955  -2.899  1.00  0.00    -0.516 OA
HETATM   17  O2  UNL     1      39.240  36.855  -0.633  1.00  0.00    -0.516 OA
ENDBRANCH  10  15
ENDBRANCH   1   7
BRANCH   6  18
HETATM   18  N3  UNL     1      35.231  33.294  -3.034  1.00  0.00    -0.354 N 
ATOM     19  H3  UNL     1      34.395  33.543  -2.506  1.00  0.00     0.166 HD
BRANCH  18  20
HETATM   20  C8  UNL     1      36.147  32.421  -2.402  1.00  0.00     0.032 A 
HETATM   21  C9  UNL     1      37.464  32.709  -2.153  1.00  0.00     0.029 A 
HETATM   22  C10 UNL     1      38.299  31.795  -1.502  1.00  0.00     0.002 A 
HETATM   23  C11 UNL     1      37.844  30.567  -1.079  1.00  0.00     0.000 A 
HETATM   24  C12 UNL     1      36.523  30.264  -1.323  1.00  0.00     0.002 A 
HETATM   25  C13 UNL     1      35.706  31.166  -1.963  1.00  0.00     0.029 A 
ENDBRANCH  18  20
ENDBRANCH   6  18
TORSDOF 4
ENDMDL
MODEL 3
REMARK VINA RESULT: -7.259822282      1.719      2.236
REMARK  4 active torsions:
REMARK  status: ('A' for Active; 'I' for Inactive)
REMARK       I    between atoms: C1_4  and  N2_5 
REMARK       I    between atoms: C1_4  and  N4_21 
REMARK    1  A    between atoms: N2_5  and  C2_7 
REMARK    2  A    between atoms: C7_12  and  N3_13 
REMARK    3  A    between atoms: N3_13  and  C8_15 
REMARK    4  A    between atoms: N4_21  and  N5_23 
ROOT
HETATM    1  C2  UNL     1      36.218  34.440  -4.071  1.00  0.00     0.075 A 
HETATM    2  C3  UNL     1      35.961  35.370  -5.055  1.00  0.00     0.032 A 
HETATM    3  C4  UNL     1      35.545  35.046  -6.327  1.00  0.00     0.002 A 
HETATM    4  C5  UNL     1      35.392  33.703  -6.584  1.00  0.00     0.002 A 
HETATM    5  C6  UNL     1      35.629  32.713  -5.653  1.00  0.00     0.032 A 
HETATM    6  C7  UNL     1      36.050  33.086  -4.372  1.00  0.00     0.060 A 
ENDROOT
BRANCH   1   7
HETATM    7  N2  UNL     1      36.631  34.922  -2.797  1.00  0.00    -0.189 N 
HETATM    8  C1  UNL     1      37.969  35.365  -2.579  1.00  0.00     0.695 C 
HETATM    9  N1  UNL     1      38.202  36.622  -2.488  1.00  0.00    -0.233 N 
HETATM   10  N4  UNL     1      39.030  34.448  -2.463  1.00  0.00    -0.072 N 
ATOM     11  H12 UNL     1      37.433  37.287  -2.573  1.00  0.00     0.174 HD
ATOM     12  H11 UNL     1      39.159  36.939  -2.333  1.00  0.00     0.174 HD
ATOM     13  H4  UNL     1      38.808  33.478  -2.239  1.00  0.00     0.212 HD
ATOM     14  H2  UNL     1      35.960  34.951  -2.029  1.00  0.00     0.184 HD
BRANCH  10  15
HETATM   15  N5  UNL     1      40.364  34.791  -2.636  1.00  0.00    -0.024 N 
HETATM   16  O1  UNL     1      41.206  34.286  -1.881  1.00  0.00    -0.516 OA
HETATM   17  O2  UNL     1      40.723  35.666  -3.622  1.00  0.00    -0.516 OA
ENDBRANCH  10  15
ENDBRANCH   1   7
BRANCH   6  18
HETATM   18  N3  UNL     1      36.359  32.153  -3.386  1.00  0.00    -0.354 N 
ATOM     19  H3  UNL     1      37.234  31.641  -3.496  1.00  0.00     0.166 HD
BRANCH  18  20
HETATM   20  C8  UNL     1      35.579  31.845  -2.247  1.00  0.00     0.032 A 
HETATM   21  C9  UNL     1      34.209  31.863  -2.203  1.00  0.00     0.029 A 
HETATM   22  C10 UNL     1      33.512  31.522  -1.039  1.00  0.00     0.002 A 
HETATM   23  C11 UNL     1      34.163  31.153   0.117  1.00  0.00     0.000 A 
HETATM   24  C12 UNL     1      35.540  31.131   0.088  1.00  0.00     0.002 A 
HETATM   25  C13 UNL     1      36.220  31.467  -1.060  1.00  0.00     0.029 A 
ENDBRANCH  18  20
ENDBRANCH   6  18
TORSDOF 4
ENDMDL
MODEL 4
REMARK VINA RESULT: -7.185434872      1.418      4.730
REMARK  4 active torsions:
REMARK  status: ('A' for Active; 'I' for Inactive)
REMARK       I    between atoms: C1_4  and  N2_5 
REMARK       I    between atoms: C1_4  and  N4_21 
REMARK    1  A    between atoms: N2_5  and  C2_7 
REMARK    2  A    between atoms: C7_12  and  N3_13 
REMARK    3  A    between atoms: N3_13  and  C8_15 
REMARK    4  A    between atoms: N4_21  and  N5_23 
ROOT
HETATM    1  C2  UNL     1      37.710  32.302  -2.397  1.00  0.00     0.075 A 
HETATM    2  C3  UNL     1      38.233  31.176  -1.799  1.00  0.00     0.032 A 
HETATM    3  C4  UNL     1      37.475  30.236  -1.136  1.00  0.00     0.002 A 
HETATM    4  C5  UNL     1      36.121  30.480  -1.093  1.00  0.00     0.002 A 
HETATM    5  C6  UNL     1      35.523  31.582  -1.667  1.00  0.00     0.032 A 
HETATM    6  C7  UNL     1      36.330  32.512  -2.332  1.00  0.00     0.060 A 
ENDROOT
BRANCH   1   7
HETATM    7  N2  UNL     1      38.614  33.180  -3.058  1.00  0.00    -0.189 N 
HETATM    8  C1  UNL     1      39.356  34.154  -2.326  1.00  0.00     0.695 C 
HETATM    9  N1  UNL     1      40.606  33.956  -2.117  1.00  0.00    -0.233 N 
HETATM   10  N4  UNL     1      38.742  35.320  -1.834  1.00  0.00    -0.072 N 
ATOM     11  H12 UNL     1      41.051  33.111  -2.474  1.00  0.00     0.174 HD
ATOM     12  H11 UNL     1      41.137  34.653  -1.594  1.00  0.00     0.174 HD
ATOM     13  H4  UNL     1      37.855  35.610  -2.247  1.00  0.00     0.212 HD
ATOM     14  H2  UNL     1      38.732  33.112  -4.068  1.00  0.00     0.184 HD
BRANCH  10  15
HETATM   15  N5  UNL     1      39.276  36.099  -0.817  1.00  0.00    -0.024 N 
HETATM   16  O1  UNL     1      39.431  37.311  -1.022  1.00  0.00    -0.516 OA
HETATM   17  O2  UNL     1      39.617  35.527   0.376  1.00  0.00    -0.516 OA
ENDBRANCH  10  15
ENDBRANCH   1   7
BRANCH   6  18
HETATM   18  N3  UNL     1      35.818  33.677  -2.896  1.00  0.00    -0.354 N 
ATOM     19  H3  UNL     1      35.494  34.396  -2.251  1.00  0.00     0.166 HD
BRANCH  18  20
HETATM   20  C8  UNL     1      35.704  33.961  -4.277  1.00  0.00     0.032 A 
HETATM   21  C9  UNL     1      35.873  35.198  -4.844  1.00  0.00     0.029 A 
HETATM   22  C10 UNL     1      35.764  35.389  -6.225  1.00  0.00     0.002 A 
HETATM   23  C11 UNL     1      35.484  34.349  -7.083  1.00  0.00     0.000 A 
HETATM   24  C12 UNL     1      35.312  33.100  -6.528  1.00  0.00     0.002 A 
HETATM   25  C13 UNL     1      35.420  32.918  -5.169  1.00  0.00     0.029 A 
ENDBRANCH  18  20
ENDBRANCH   6  18
TORSDOF 4
ENDMDL
MODEL 5
REMARK VINA RESULT: -7.177522789      1.716      2.340
REMARK  4 active torsions:
REMARK  status: ('A' for Active; 'I' for Inactive)
REMARK       I    between atoms: C1_4  and  N2_5 
REMARK       I    between atoms: C1_4  and  N4_21 
REMARK    1  A    between atoms: N2_5  and  C2_7 
REMARK    2  A    between atoms: C7_12  and  N3_13 
REMARK    3  A    between atoms: N3_13  and  C8_15 
REMARK    4  A    between atoms: N4_21  and  N5_23 
ROOT
HETATM    1  C2  UNL     1      36.318  34.577  -3.969  1.00  0.00     0.075 A 
HETATM    2  C3  UNL     1      36.033  35.551  -4.901  1.00  0.00     0.032 A 
HETATM    3  C4  UNL     1      35.619  35.285  -6.187  1.00  0.00     0.002 A 
HETATM    4  C5  UNL     1      35.498  33.954  -6.515  1.00  0.00     0.002 A 
HETATM    5  C6  UNL     1      35.764  32.922  -5.639  1.00  0.00     0.032 A 
HETATM    6  C7  UNL     1      36.181  33.236  -4.341  1.00  0.00     0.060 A 
ENDROOT
BRANCH   1   7
HETATM    7  N2  UNL     1      36.725  35.000  -2.672  1.00  0.00    -0.189 N 
HETATM    8  C1  UNL     1      38.068  35.410  -2.423  1.00  0.00     0.695 C 
HETATM    9  N1  UNL     1      38.321  36.659  -2.280  1.00  0.00    -0.233 N 
HETATM   10  N4  UNL     1      39.112  34.471  -2.333  1.00  0.00    -0.072 N 
ATOM     11  H12 UNL     1      37.565  37.340  -2.345  1.00  0.00     0.174 HD
ATOM     12  H11 UNL     1      39.282  36.952  -2.102  1.00  0.00     0.174 HD
ATOM     13  H4  UNL     1      38.870  33.497  -2.150  1.00  0.00     0.212 HD
ATOM     14  H2  UNL     1      36.046  35.010  -1.911  1.00  0.00     0.184 HD
BRANCH  10  15
HETATM   15  N5  UNL     1      40.453  34.797  -2.479  1.00  0.00    -0.024 N 
HETATM   16  O1  UNL     1      41.284  34.206  -1.774  1.00  0.00    -0.516 OA
HETATM   17  O2  UNL     1      40.832  35.749  -3.383  1.00  0.00    -0.516 OA
ENDBRANCH  10  15
ENDBRANCH   1   7
BRANCH   6  18
HETATM   18  N3  UNL     1      36.519  32.260  -3.407  1.00  0.00    -0.354 N 
ATOM     19  H3  UNL     1      37.402  31.772  -3.552  1.00  0.00     0.166 HD
BRANCH  18  20
HETATM   20  C8  UNL     1      35.756  31.879  -2.279  1.00  0.00     0.032 A 
HETATM   21  C9  UNL     1      36.277  31.474  -1.077  1.00  0.00     0.029 A 
HETATM   22  C10 UNL     1      35.451  31.135  -0.001  1.00  0.00     0.002 A 
HETATM   23  C11 UNL     1      34.078  31.191  -0.092  1.00  0.00     0.000 A 
HETATM   24  C12 UNL     1      33.540  31.596  -1.294  1.00  0.00     0.002 A 
HETATM   25  C13 UNL     1      34.358  31.928  -2.349  1.00  0.00     0.029 A 
ENDBRANCH  18  20
ENDBRANCH   6  18
TORSDOF 4
ENDMDL
