MODEL 1
REMARK VINA RESULT: -6.916855772      0.000      0.000
REMARK  3 active torsions:
REMARK  status: ('A' for Active; 'I' for Inactive)
REMARK       I    between atoms: C1_4  and  N2_5 
REMARK       I    between atoms: C1_4  and  N5_16 
REMARK    1  A    between atoms: N2_5  and  N3_7 
REMARK    2  A    between atoms: C2_9  and  C3_11 
REMARK    3  A    between atoms: N5_16  and  C7_18 
ROOT
HETATM    1  N1  UNL     1      35.518  35.854  -3.261  1.00  0.00    -0.233 N 
ATOM      2  H11 UNL     1      34.768  35.422  -3.802  1.00  0.00     0.174 HD
ATOM      3  H12 UNL     1      35.480  36.842  -3.011  1.00  0.00     0.174 HD
HETATM    4  C1  UNL     1      36.530  35.167  -2.881  1.00  0.00     0.691 C 
HETATM    5  N2  UNL     1      37.590  35.778  -2.116  1.00  0.00    -0.131 N 
ATOM      6  H2  UNL     1      37.560  35.734  -1.098  1.00  0.00     0.205 HD
HETATM    7  N5  UNL     1      36.583  33.790  -3.231  1.00  0.00    -0.191 N 
ATOM      8  H5  UNL     1      37.225  33.474  -3.959  1.00  0.00     0.184 HD
ENDROOT
BRANCH   5   9
HETATM    9  N3  UNL     1      38.654  36.424  -2.737  1.00  0.00    -0.272 N 
HETATM   10  C2  UNL     1      39.663  35.793  -3.204  1.00  0.00     0.148 C 
HETATM   11  N4  UNL     1      39.760  34.389  -3.117  1.00  0.00    -0.080 NA
ATOM     12  H3  UNL     1      38.628  37.441  -2.824  1.00  0.00     0.189 HD
BRANCH  10  13
HETATM   13  C3  UNL     1      40.776  36.512  -3.858  1.00  0.00     0.047 A 
HETATM   14  C4  UNL     1      40.731  37.353  -4.924  1.00  0.00     0.023 A 
HETATM   15  C5  UNL     1      41.885  37.893  -5.343  1.00  0.00     0.009 A 
HETATM   16  C6  UNL     1      43.022  37.553  -4.661  1.00  0.00     0.050 A 
HETATM   17  S1  UNL     1      42.449  36.494  -3.461  1.00  0.00    -0.099 SA
ENDBRANCH  10  13
ENDBRANCH   5   9
BRANCH   7  18
HETATM   18  C7  UNL     1      35.753  32.858  -2.576  1.00  0.00     0.049 A 
HETATM   19  C8  UNL     1      34.409  32.752  -2.862  1.00  0.00     0.030 A 
HETATM   20  C9  UNL     1      33.600  31.835  -2.216  1.00  0.00     0.002 A 
HETATM   21  C10 UNL     1      34.116  30.998  -1.263  1.00  0.00     0.000 A 
HETATM   22  C11 UNL     1      35.459  31.088  -0.961  1.00  0.00     0.002 A 
HETATM   23  C12 UNL     1      36.275  32.007  -1.608  1.00  0.00     0.030 A 
ENDBRANCH   7  18
TORSDOF 3
ENDMDL
MODEL 2
REMARK VINA RESULT: -6.886173661      3.571      4.061
REMARK  3 active torsions:
REMARK  status: ('A' for Active; 'I' for Inactive)
REMARK       I    between atoms: C1_4  and  N2_5 
REMARK       I    between atoms: C1_4  and  N5_16 
REMARK    1  A    between atoms: N2_5  and  N3_7 
REMARK    2  A    between atoms: C2_9  and  C3_11 
REMARK    3  A    between atoms: N5_16  and  C7_18 
ROOT
HETATM    1  N1  UNL     1      35.221  35.029  -3.455  1.00  0.00    -0.233 N 
ATOM      2  H11 UNL     1      34.313  35.030  -2.989  1.00  0.00     0.174 HD
ATOM      3  H12 UNL     1      35.737  35.898  -3.593  1.00  0.00     0.174 HD
HETATM    4  C1  UNL     1      35.738  33.938  -3.880  1.00  0.00     0.691 C 
HETATM    5  N2  UNL     1      37.022  33.937  -4.539  1.00  0.00    -0.131 N 
ATOM      6  H2  UNL     1      37.864  33.769  -3.989  1.00  0.00     0.205 HD
HETATM    7  N5  UNL     1      35.017  32.727  -3.687  1.00  0.00    -0.191 N 
ATOM      8  H5  UNL     1      34.557  32.278  -4.479  1.00  0.00     0.184 HD
ENDROOT
BRANCH   5   9
HETATM    9  N3  UNL     1      37.136  34.162  -5.907  1.00  0.00    -0.272 N 
HETATM   10  C2  UNL     1      37.347  35.324  -6.397  1.00  0.00     0.148 C 
HETATM   11  N4  UNL     1      37.479  36.459  -5.572  1.00  0.00    -0.080 NA
ATOM     12  H3  UNL     1      37.048  33.369  -6.544  1.00  0.00     0.189 HD
BRANCH  10  13
HETATM   13  C3  UNL     1      37.462  35.526  -7.856  1.00  0.00     0.047 A 
HETATM   14  C4  UNL     1      36.934  34.777  -8.860  1.00  0.00     0.023 A 
HETATM   15  C5  UNL     1      37.177  35.162 -10.121  1.00  0.00     0.009 A 
HETATM   16  C6  UNL     1      37.941  36.284 -10.299  1.00  0.00     0.050 A 
HETATM   17  S1  UNL     1      38.295  36.766  -8.707  1.00  0.00    -0.099 SA
ENDBRANCH  10  13
ENDBRANCH   5   9
BRANCH   7  18
HETATM   18  C7  UNL     1      34.936  32.145  -2.407  1.00  0.00     0.049 A 
HETATM   19  C8  UNL     1      33.727  31.903  -1.792  1.00  0.00     0.030 A 
HETATM   20  C9  UNL     1      33.654  31.331  -0.535  1.00  0.00     0.002 A 
HETATM   21  C10 UNL     1      34.793  30.986   0.142  1.00  0.00     0.000 A 
HETATM   22  C11 UNL     1      36.013  31.220  -0.455  1.00  0.00     0.002 A 
HETATM   23  C12 UNL     1      36.091  31.794  -1.717  1.00  0.00     0.030 A 
ENDBRANCH   7  18
TORSDOF 3
ENDMDL
MODEL 3
REMARK VINA RESULT: -6.872468895      0.041      1.116
REMARK  3 active torsions:
REMARK  status: ('A' for Active; 'I' for Inactive)
REMARK       I    between atoms: C1_4  and  N2_5 
REMARK       I    between atoms: C1_4  and  N5_16 
REMARK    1  A    between atoms: N2_5  and  N3_7 
REMARK    2  A    between atoms: C2_9  and  C3_11 
REMARK    3  A    between atoms: N5_16  and  C7_18 
ROOT
HETATM    1  N1  UNL     1      35.510  35.837  -3.306  1.00  0.00    -0.233 N 
ATOM      2  H11 UNL     1      34.773  35.386  -3.848  1.00  0.00     0.174 HD
ATOM      3  H12 UNL     1      35.460  36.829  -3.077  1.00  0.00     0.174 HD
HETATM    4  C1  UNL     1      36.523  35.168  -2.897  1.00  0.00     0.691 C 
HETATM    5  N2  UNL     1      37.567  35.805  -2.130  1.00  0.00    -0.131 N 
ATOM      6  H2  UNL     1      37.522  35.782  -1.112  1.00  0.00     0.205 HD
HETATM    7  N5  UNL     1      36.594  33.784  -3.217  1.00  0.00    -0.191 N 
ATOM      8  H5  UNL     1      37.250  33.460  -3.929  1.00  0.00     0.184 HD
ENDROOT
BRANCH   5   9
HETATM    9  N3  UNL     1      38.633  36.449  -2.750  1.00  0.00    -0.272 N 
HETATM   10  C2  UNL     1      39.654  35.817  -3.189  1.00  0.00     0.148 C 
HETATM   11  N4  UNL     1      39.762  34.416  -3.072  1.00  0.00    -0.080 NA
ATOM     12  H3  UNL     1      38.599  37.463  -2.857  1.00  0.00     0.189 HD
BRANCH  10  13
HETATM   13  C3  UNL     1      40.770  36.533  -3.841  1.00  0.00     0.047 A 
HETATM   14  C4  UNL     1      40.722  37.417  -4.873  1.00  0.00     0.023 A 
HETATM   15  C5  UNL     1      41.880  37.943  -5.299  1.00  0.00     0.009 A 
HETATM   16  C6  UNL     1      43.023  37.547  -4.659  1.00  0.00     0.050 A 
HETATM   17  S1  UNL     1      42.451  36.456  -3.487  1.00  0.00    -0.099 SA
ENDBRANCH  10  13
ENDBRANCH   5   9
BRANCH   7  18
HETATM   18  C7  UNL     1      35.764  32.859  -2.555  1.00  0.00     0.049 A 
HETATM   19  C8  UNL     1      36.247  32.013  -1.580  1.00  0.00     0.030 A 
HETATM   20  C9  UNL     1      35.427  31.107  -0.933  1.00  0.00     0.002 A 
HETATM   21  C10 UNL     1      34.097  31.022  -1.246  1.00  0.00     0.000 A 
HETATM   22  C11 UNL     1      33.592  31.859  -2.220  1.00  0.00     0.002 A 
HETATM   23  C12 UNL     1      34.413  32.771  -2.872  1.00  0.00     0.030 A 
ENDBRANCH   7  18
TORSDOF 3
ENDMDL
MODEL 4
REMARK VINA RESULT: -6.806441502      4.122      4.650
REMARK  3 active torsions:
REMARK  status: ('A' for Active; 'I' for Inactive)
REMARK       I    between atoms: C1_4  and  N2_5 
REMARK       I    between atoms: C1_4  and  N5_16 
REMARK    1  A    between atoms: N2_5  and  N3_7 
REMARK    2  A    between atoms: C2_9  and  C3_11 
REMARK    3  A    between atoms: N5_16  and  C7_18 
ROOT
HETATM    1  N1  UNL     1      35.249  35.315  -4.189  1.00  0.00    -0.233 N 
ATOM      2  H11 UNL     1      34.396  35.334  -3.629  1.00  0.00     0.174 HD
ATOM      3  H12 UNL     1      35.783  36.168  -4.356  1.00  0.00     0.174 HD
HETATM    4  C1  UNL     1      35.674  34.220  -4.698  1.00  0.00     0.691 C 
HETATM    5  N2  UNL     1      36.881  34.194  -5.489  1.00  0.00    -0.131 N 
ATOM      6  H2  UNL     1      37.769  33.976  -5.038  1.00  0.00     0.205 HD
HETATM    7  N5  UNL     1      34.929  33.031  -4.466  1.00  0.00    -0.191 N 
ATOM      8  H5  UNL     1      34.371  32.626  -5.217  1.00  0.00     0.184 HD
ENDROOT
BRANCH   5   9
HETATM    9  N3  UNL     1      36.859  34.459  -6.855  1.00  0.00    -0.272 N 
HETATM   10  C2  UNL     1      37.529  35.415  -7.379  1.00  0.00     0.148 C 
HETATM   11  N4  UNL     1      38.337  36.265  -6.597  1.00  0.00    -0.080 NA
ATOM     12  H3  UNL     1      36.289  33.870  -7.461  1.00  0.00     0.189 HD
BRANCH  10  13
HETATM   13  C3  UNL     1      37.483  35.669  -8.833  1.00  0.00     0.047 A 
HETATM   14  C4  UNL     1      37.091  34.830  -9.828  1.00  0.00     0.023 A 
HETATM   15  C5  UNL     1      37.136  35.289 -11.087  1.00  0.00     0.009 A 
HETATM   16  C6  UNL     1      37.576  36.572 -11.273  1.00  0.00     0.050 A 
HETATM   17  S1  UNL     1      37.911  37.097  -9.690  1.00  0.00    -0.099 SA
ENDBRANCH  10  13
ENDBRANCH   5   9
BRANCH   7  18
HETATM   18  C7  UNL     1      34.959  32.411  -3.202  1.00  0.00     0.049 A 
HETATM   19  C8  UNL     1      36.142  32.043  -2.598  1.00  0.00     0.030 A 
HETATM   20  C9  UNL     1      36.165  31.434  -1.356  1.00  0.00     0.002 A 
HETATM   21  C10 UNL     1      35.001  31.175  -0.684  1.00  0.00     0.000 A 
HETATM   22  C11 UNL     1      33.805  31.534  -1.271  1.00  0.00     0.002 A 
HETATM   23  C12 UNL     1      33.778  32.146  -2.517  1.00  0.00     0.030 A 
ENDBRANCH   7  18
TORSDOF 3
ENDMDL
MODEL 5
REMARK VINA RESULT: -6.755962332      3.507      3.987
REMARK  3 active torsions:
REMARK  status: ('A' for Active; 'I' for Inactive)
REMARK       I    between atoms: C1_4  and  N2_5 
REMARK       I    between atoms: C1_4  and  N5_16 
REMARK    1  A    between atoms: N2_5  and  N3_7 
REMARK    2  A    between atoms: C2_9  and  C3_11 
REMARK    3  A    between atoms: N5_16  and  C7_18 
ROOT
HETATM    1  N1  UNL     1      34.972  31.922  -4.973  1.00  0.00    -0.233 N 
ATOM      2  H11 UNL     1      34.924  30.928  -4.749  1.00  0.00     0.174 HD
ATOM      3  H12 UNL     1      34.470  32.302  -5.776  1.00  0.00     0.174 HD
HETATM    4  C1  UNL     1      35.664  32.723  -4.253  1.00  0.00     0.691 C 
HETATM    5  N2  UNL     1      35.732  34.129  -4.570  1.00  0.00    -0.131 N 
ATOM      6  H2  UNL     1      35.079  34.774  -4.123  1.00  0.00     0.205 HD
HETATM    7  N5  UNL     1      36.364  32.194  -3.134  1.00  0.00    -0.191 N 
ATOM      8  H5  UNL     1      37.378  32.087  -3.172  1.00  0.00     0.184 HD
ENDROOT
BRANCH   5   9
HETATM    9  N3  UNL     1      36.668  34.626  -5.471  1.00  0.00    -0.272 N 
HETATM   10  C2  UNL     1      36.473  34.622  -6.735  1.00  0.00     0.148 C 
HETATM   11  N4  UNL     1      35.286  34.109  -7.297  1.00  0.00    -0.080 NA
ATOM     12  H3  UNL     1      37.542  35.008  -5.111  1.00  0.00     0.189 HD
BRANCH  10  13
HETATM   13  C3  UNL     1      37.488  35.157  -7.664  1.00  0.00     0.047 A 
HETATM   14  C4  UNL     1      37.895  34.651  -8.859  1.00  0.00     0.023 A 
HETATM   15  C5  UNL     1      38.842  35.321  -9.532  1.00  0.00     0.009 A 
HETATM   16  C6  UNL     1      39.328  36.467  -8.960  1.00  0.00     0.050 A 
HETATM   17  S1  UNL     1      38.451  36.574  -7.507  1.00  0.00    -0.099 SA
ENDBRANCH  10  13
ENDBRANCH   5   9
BRANCH   7  18
HETATM   18  C7  UNL     1      35.663  31.815  -1.972  1.00  0.00     0.049 A 
HETATM   19  C8  UNL     1      34.287  31.848  -1.908  1.00  0.00     0.030 A 
HETATM   20  C9  UNL     1      33.604  31.476  -0.764  1.00  0.00     0.002 A 
HETATM   21  C10 UNL     1      34.283  31.059   0.349  1.00  0.00     0.000 A 
HETATM   22  C11 UNL     1      35.661  31.018   0.307  1.00  0.00     0.002 A 
HETATM   23  C12 UNL     1      36.350  31.392  -0.840  1.00  0.00     0.030 A 
ENDBRANCH   7  18
TORSDOF 3
ENDMDL
