MODEL 1
REMARK VINA RESULT: -7.780087931      0.000      0.000
REMARK  6 active torsions:
REMARK  status: ('A' for Active; 'I' for Inactive)
REMARK       I    between atoms: C1_2  and  N1_3 
REMARK    1  A    between atoms: C1_2  and  O4_18 
REMARK    2  A    between atoms: N1_3  and  C2_5 
REMARK    3  A    between atoms: C5_8  and  C6_9 
REMARK    4  A    between atoms: C6_9  and  O2_10 
REMARK    5  A    between atoms: N2_12  and  O3_14 
REMARK    6  A    between atoms: O4_18  and  C9_19 
ROOT
HETATM    1  C2  UNL     1      38.009  32.974  -2.208  1.00  0.00     0.036 A 
HETATM    2  C3  UNL     1      37.499  31.791  -1.741  1.00  0.00     0.030 A 
HETATM    3  C4  UNL     1      36.174  31.429  -1.822  1.00  0.00     0.018 A 
HETATM    4  C5  UNL     1      35.281  32.328  -2.420  1.00  0.00     0.017 A 
HETATM    5  C7  UNL     1      35.732  33.523  -2.903  1.00  0.00     0.018 A 
HETATM    6  C8  UNL     1      37.079  33.838  -2.796  1.00  0.00     0.030 A 
ENDROOT
BRANCH   1   7
HETATM    7  N1  UNL     1      39.339  33.394  -2.154  1.00  0.00    -0.303 N 
HETATM    8  C1  UNL     1      39.937  34.300  -1.249  1.00  0.00     0.365 C 
HETATM    9  O1  UNL     1      39.366  34.900  -0.312  1.00  0.00    -0.238 OA
ATOM     10  H1  UNL     1      39.959  32.996  -2.859  1.00  0.00     0.171 HD
BRANCH   8  11
HETATM   11  O4  UNL     1      41.299  34.606  -1.346  1.00  0.00    -0.298 OA
BRANCH  11  12
HETATM   12  C9  UNL     1      41.785  35.866  -1.713  1.00  0.00     0.133 C 
HETATM   13  C10 UNL     1      41.637  36.150  -3.188  1.00  0.00     0.032 C 
HETATM   14  C11 UNL     1      43.042  36.492  -3.652  1.00  0.00     0.002 C 
HETATM   15  C12 UNL     1      43.680  37.081  -2.416  1.00  0.00     0.002 C 
HETATM   16  C13 UNL     1      43.216  36.095  -1.346  1.00  0.00     0.032 C 
ENDBRANCH  11  12
ENDBRANCH   8  11
ENDBRANCH   1   7
BRANCH   4  17
HETATM   17  C6  UNL     1      33.888  31.968  -2.514  1.00  0.00     0.170 C 
HETATM   18  N2  UNL     1      33.081  31.763  -1.578  1.00  0.00    -0.247 N 
ATOM     19  H2  UNL     1      32.147  31.521  -1.907  1.00  0.00     0.196 HD
BRANCH  17  20
HETATM   20  O2  UNL     1      33.352  31.824  -3.843  1.00  0.00    -0.344 OA
ATOM     21  H2  UNL     1      32.407  31.874  -3.925  1.00  0.00     0.219 HD
ENDBRANCH  17  20
BRANCH  18  22
HETATM   22  O3  UNL     1      33.171  31.793  -0.255  1.00  0.00    -0.288 OA
ATOM     23  H3  UNL     1      32.697  31.368   0.451  1.00  0.00     0.244 HD
ENDBRANCH  18  22
ENDBRANCH   4  17
TORSDOF 6
ENDMDL
MODEL 2
REMARK VINA RESULT: -7.722312503      0.225      1.109
REMARK  6 active torsions:
REMARK  status: ('A' for Active; 'I' for Inactive)
REMARK       I    between atoms: C1_2  and  N1_3 
REMARK    1  A    between atoms: C1_2  and  O4_18 
REMARK    2  A    between atoms: N1_3  and  C2_5 
REMARK    3  A    between atoms: C5_8  and  C6_9 
REMARK    4  A    between atoms: C6_9  and  O2_10 
REMARK    5  A    between atoms: N2_12  and  O3_14 
REMARK    6  A    between atoms: O4_18  and  C9_19 
ROOT
HETATM    1  C2  UNL     1      37.946  33.350  -2.394  1.00  0.00     0.036 A 
HETATM    2  C3  UNL     1      36.950  34.135  -2.913  1.00  0.00     0.030 A 
HETATM    3  C4  UNL     1      35.630  33.757  -3.005  1.00  0.00     0.018 A 
HETATM    4  C5  UNL     1      35.276  32.485  -2.538  1.00  0.00     0.017 A 
HETATM    5  C7  UNL     1      36.226  31.658  -2.011  1.00  0.00     0.018 A 
HETATM    6  C8  UNL     1      37.543  32.089  -1.942  1.00  0.00     0.030 A 
ENDROOT
BRANCH   1   7
HETATM    7  N1  UNL     1      39.298  33.678  -2.276  1.00  0.00    -0.303 N 
HETATM    8  C1  UNL     1      39.925  34.470  -1.288  1.00  0.00     0.365 C 
HETATM    9  O1  UNL     1      39.366  35.032  -0.321  1.00  0.00    -0.238 OA
ATOM     10  H1  UNL     1      39.912  33.296  -2.995  1.00  0.00     0.171 HD
BRANCH   8  11
HETATM   11  O4  UNL     1      41.306  34.693  -1.328  1.00  0.00    -0.298 OA
BRANCH  11  12
HETATM   12  C9  UNL     1      41.882  35.914  -1.696  1.00  0.00     0.133 C 
HETATM   13  C10 UNL     1      41.702  36.236  -3.159  1.00  0.00     0.032 C 
HETATM   14  C11 UNL     1      43.111  36.468  -3.674  1.00  0.00     0.002 C 
HETATM   15  C12 UNL     1      43.845  36.978  -2.457  1.00  0.00     0.002 C 
HETATM   16  C13 UNL     1      43.341  36.016  -1.383  1.00  0.00     0.032 C 
ENDBRANCH  11  12
ENDBRANCH   8  11
ENDBRANCH   1   7
BRANCH   4  17
HETATM   17  C6  UNL     1      33.897  32.069  -2.625  1.00  0.00     0.170 C 
HETATM   18  N2  UNL     1      33.101  31.843  -1.685  1.00  0.00    -0.247 N 
ATOM     19  H2  UNL     1      32.176  31.560  -2.010  1.00  0.00     0.196 HD
BRANCH  17  20
HETATM   20  O2  UNL     1      33.365  31.891  -3.951  1.00  0.00    -0.344 OA
ATOM     21  H2  UNL     1      32.832  31.118  -4.092  1.00  0.00     0.219 HD
ENDBRANCH  17  20
BRANCH  18  22
HETATM   22  O3  UNL     1      33.192  31.889  -0.363  1.00  0.00    -0.288 OA
ATOM     23  H3  UNL     1      33.877  31.684   0.262  1.00  0.00     0.244 HD
ENDBRANCH  18  22
ENDBRANCH   4  17
TORSDOF 6
ENDMDL
MODEL 3
REMARK VINA RESULT: -7.425060266      0.750      1.247
REMARK  6 active torsions:
REMARK  status: ('A' for Active; 'I' for Inactive)
REMARK       I    between atoms: C1_2  and  N1_3 
REMARK    1  A    between atoms: C1_2  and  O4_18 
REMARK    2  A    between atoms: N1_3  and  C2_5 
REMARK    3  A    between atoms: C5_8  and  C6_9 
REMARK    4  A    between atoms: C6_9  and  O2_10 
REMARK    5  A    between atoms: N2_12  and  O3_14 
REMARK    6  A    between atoms: O4_18  and  C9_19 
ROOT
HETATM    1  C2  UNL     1      37.902  33.343  -2.481  1.00  0.00     0.036 A 
HETATM    2  C3  UNL     1      37.515  32.112  -2.021  1.00  0.00     0.030 A 
HETATM    3  C4  UNL     1      36.220  31.646  -2.038  1.00  0.00     0.018 A 
HETATM    4  C5  UNL     1      35.226  32.484  -2.559  1.00  0.00     0.017 A 
HETATM    5  C7  UNL     1      35.552  33.723  -3.032  1.00  0.00     0.018 A 
HETATM    6  C8  UNL     1      36.874  34.143  -2.992  1.00  0.00     0.030 A 
ENDROOT
BRANCH   1   7
HETATM    7  N1  UNL     1      39.195  33.868  -2.490  1.00  0.00    -0.303 N 
HETATM    8  C1  UNL     1      39.739  34.874  -1.660  1.00  0.00     0.365 C 
HETATM    9  O1  UNL     1      39.143  35.488  -0.748  1.00  0.00    -0.238 OA
ATOM     10  H1  UNL     1      39.829  33.474  -3.184  1.00  0.00     0.171 HD
BRANCH   8  11
HETATM   11  O4  UNL     1      41.070  35.278  -1.813  1.00  0.00    -0.298 OA
BRANCH  11  12
HETATM   12  C9  UNL     1      41.610  35.721  -3.025  1.00  0.00     0.133 C 
HETATM   13  C10 UNL     1      42.948  36.400  -2.863  1.00  0.00     0.032 C 
HETATM   14  C11 UNL     1      42.764  37.763  -3.507  1.00  0.00     0.002 C 
HETATM   15  C12 UNL     1      41.713  37.508  -4.562  1.00  0.00     0.002 C 
HETATM   16  C13 UNL     1      40.717  36.649  -3.785  1.00  0.00     0.032 C 
ENDBRANCH  11  12
ENDBRANCH   8  11
ENDBRANCH   1   7
BRANCH   4  17
HETATM   17  C6  UNL     1      33.863  32.015  -2.586  1.00  0.00     0.170 C 
HETATM   18  N2  UNL     1      33.118  31.758  -1.612  1.00  0.00    -0.247 N 
ATOM     19  H2  UNL     1      32.192  31.439  -1.895  1.00  0.00     0.196 HD
BRANCH  17  20
HETATM   20  O2  UNL     1      33.279  31.816  -3.887  1.00  0.00    -0.344 OA
ATOM     21  H2  UNL     1      32.839  32.564  -4.273  1.00  0.00     0.219 HD
ENDBRANCH  17  20
BRANCH  18  22
HETATM   22  O3  UNL     1      33.266  31.808  -0.295  1.00  0.00    -0.288 OA
ATOM     23  H3  UNL     1      32.760  31.485   0.442  1.00  0.00     0.244 HD
ENDBRANCH  18  22
ENDBRANCH   4  17
TORSDOF 6
ENDMDL
MODEL 4
REMARK VINA RESULT: -7.417432798      4.180      4.951
REMARK  6 active torsions:
REMARK  status: ('A' for Active; 'I' for Inactive)
REMARK       I    between atoms: C1_2  and  N1_3 
REMARK    1  A    between atoms: C1_2  and  O4_18 
REMARK    2  A    between atoms: N1_3  and  C2_5 
REMARK    3  A    between atoms: C5_8  and  C6_9 
REMARK    4  A    between atoms: C6_9  and  O2_10 
REMARK    5  A    between atoms: N2_12  and  O3_14 
REMARK    6  A    between atoms: O4_18  and  C9_19 
ROOT
HETATM    1  C2  UNL     1      35.728  32.267  -3.378  1.00  0.00     0.036 A 
HETATM    2  C3  UNL     1      36.207  31.552  -2.311  1.00  0.00     0.030 A 
HETATM    3  C4  UNL     1      35.426  31.064  -1.289  1.00  0.00     0.018 A 
HETATM    4  C5  UNL     1      34.048  31.313  -1.336  1.00  0.00     0.017 A 
HETATM    5  C7  UNL     1      33.514  32.021  -2.374  1.00  0.00     0.018 A 
HETATM    6  C8  UNL     1      34.347  32.490  -3.380  1.00  0.00     0.030 A 
ENDROOT
BRANCH   1   7
HETATM    7  N1  UNL     1      36.469  32.786  -4.441  1.00  0.00    -0.303 N 
HETATM    8  C1  UNL     1      36.897  34.117  -4.645  1.00  0.00     0.365 C 
HETATM    9  O1  UNL     1      36.682  35.090  -3.890  1.00  0.00    -0.238 OA
ATOM     10  H1  UNL     1      36.736  32.117  -5.163  1.00  0.00     0.171 HD
BRANCH   8  11
HETATM   11  O4  UNL     1      37.639  34.458  -5.781  1.00  0.00    -0.298 OA
BRANCH  11  12
HETATM   12  C9  UNL     1      37.149  35.266  -6.812  1.00  0.00     0.133 C 
HETATM   13  C10 UNL     1      36.644  34.476  -7.995  1.00  0.00     0.032 C 
HETATM   14  C11 UNL     1      37.421  35.025  -9.178  1.00  0.00     0.002 C 
HETATM   15  C12 UNL     1      37.705  36.453  -8.774  1.00  0.00     0.002 C 
HETATM   16  C13 UNL     1      38.137  36.267  -7.321  1.00  0.00     0.032 C 
ENDBRANCH  11  12
ENDBRANCH   8  11
ENDBRANCH   1   7
BRANCH   4  17
HETATM   17  C6  UNL     1      33.212  30.810  -0.273  1.00  0.00     0.170 C 
HETATM   18  N2  UNL     1      32.327  29.927  -0.343  1.00  0.00    -0.247 N 
ATOM     19  H2  UNL     1      31.874  29.749   0.553  1.00  0.00     0.196 HD
BRANCH  17  20
HETATM   20  O2  UNL     1      33.414  31.390   1.029  1.00  0.00    -0.344 OA
ATOM     21  H2  UNL     1      32.744  31.990   1.334  1.00  0.00     0.219 HD
ENDBRANCH  17  20
BRANCH  18  22
HETATM   22  O3  UNL     1      31.848  29.172  -1.322  1.00  0.00    -0.288 OA
ATOM     23  H3  UNL     1      31.903  28.247  -1.534  1.00  0.00     0.244 HD
ENDBRANCH  18  22
ENDBRANCH   4  17
TORSDOF 6
ENDMDL
MODEL 5
REMARK VINA RESULT: -7.399714312      1.081      1.621
REMARK  6 active torsions:
REMARK  status: ('A' for Active; 'I' for Inactive)
REMARK       I    between atoms: C1_2  and  N1_3 
REMARK    1  A    between atoms: C1_2  and  O4_18 
REMARK    2  A    between atoms: N1_3  and  C2_5 
REMARK    3  A    between atoms: C5_8  and  C6_9 
REMARK    4  A    between atoms: C6_9  and  O2_10 
REMARK    5  A    between atoms: N2_12  and  O3_14 
REMARK    6  A    between atoms: O4_18  and  C9_19 
ROOT
HETATM    1  C2  UNL     1      37.649  33.636  -2.735  1.00  0.00     0.036 A 
HETATM    2  C3  UNL     1      37.362  32.426  -2.161  1.00  0.00     0.030 A 
HETATM    3  C4  UNL     1      36.104  31.870  -2.106  1.00  0.00     0.018 A 
HETATM    4  C5  UNL     1      35.042  32.586  -2.672  1.00  0.00     0.017 A 
HETATM    5  C7  UNL     1      35.267  33.798  -3.258  1.00  0.00     0.018 A 
HETATM    6  C8  UNL     1      36.555  34.313  -3.287  1.00  0.00     0.030 A 
ENDROOT
BRANCH   1   7
HETATM    7  N1  UNL     1      38.899  34.250  -2.821  1.00  0.00    -0.303 N 
HETATM    8  C1  UNL     1      39.409  35.316  -2.047  1.00  0.00     0.365 C 
HETATM    9  O1  UNL     1      38.814  35.915  -1.124  1.00  0.00    -0.238 OA
ATOM     10  H1  UNL     1      39.526  33.880  -3.536  1.00  0.00     0.171 HD
BRANCH   8  11
HETATM   11  O4  UNL     1      40.700  35.807  -2.276  1.00  0.00    -0.298 OA
BRANCH  11  12
HETATM   12  C9  UNL     1      41.856  35.209  -1.764  1.00  0.00     0.133 C 
HETATM   13  C10 UNL     1      41.582  34.292  -0.597  1.00  0.00     0.032 C 
HETATM   14  C11 UNL     1      42.470  34.818   0.517  1.00  0.00     0.002 C 
HETATM   15  C12 UNL     1      43.633  35.430  -0.228  1.00  0.00     0.002 C 
HETATM   16  C13 UNL     1      42.907  36.185  -1.339  1.00  0.00     0.032 C 
ENDBRANCH  11  12
ENDBRANCH   8  11
ENDBRANCH   1   7
BRANCH   4  17
HETATM   17  C6  UNL     1      33.716  32.020  -2.624  1.00  0.00     0.170 C 
HETATM   18  N2  UNL     1      33.037  31.736  -1.611  1.00  0.00    -0.247 N 
ATOM     19  H2  UNL     1      32.124  31.345  -1.843  1.00  0.00     0.196 HD
BRANCH  17  20
HETATM   20  O2  UNL     1      33.091  31.745  -3.892  1.00  0.00    -0.344 OA
ATOM     21  H2  UNL     1      32.175  31.983  -3.971  1.00  0.00     0.219 HD
ENDBRANCH  17  20
BRANCH  18  22
HETATM   22  O3  UNL     1      33.240  31.831  -0.304  1.00  0.00    -0.288 OA
ATOM     23  H3  UNL     1      34.014  31.841   0.248  1.00  0.00     0.244 HD
ENDBRANCH  18  22
ENDBRANCH   4  17
TORSDOF 6
ENDMDL
