MODEL 1
REMARK VINA RESULT: -7.289346932      0.000      0.000
REMARK  3 active torsions:
REMARK  status: ('A' for Active; 'I' for Inactive)
REMARK       I    between atoms: C1_4  and  N2_5 
REMARK       I    between atoms: C1_4  and  N4_15 
REMARK    1  A    between atoms: N2_5  and  N3_7 
REMARK    2  A    between atoms: N4_15  and  C8_17 
REMARK    3  A    between atoms: C11_20  and  N5_21 
ROOT
HETATM    1  N1  UNL     1      35.742  34.830  -4.143  1.00  0.00    -0.233 N 
ATOM      2  H11 UNL     1      36.091  35.770  -4.331  1.00  0.00     0.174 HD
ATOM      3  H12 UNL     1      34.743  34.634  -4.073  1.00  0.00     0.174 HD
HETATM    4  C1  UNL     1      36.537  33.813  -3.976  1.00  0.00     0.690 C 
HETATM    5  N2  UNL     1      36.054  32.514  -3.715  1.00  0.00    -0.133 N 
ATOM      6  H2  UNL     1      36.646  31.698  -3.877  1.00  0.00     0.205 HD
HETATM    7  N4  UNL     1      37.929  34.085  -4.073  1.00  0.00    -0.191 N 
ATOM      8  H4  UNL     1      38.414  34.006  -4.966  1.00  0.00     0.184 HD
ENDROOT
BRANCH   5   9
HETATM    9  N3  UNL     1      34.756  32.360  -3.233  1.00  0.00    -0.295 N 
HETATM   10  C2  UNL     1      34.560  31.721  -2.152  1.00  0.00     0.004 C 
HETATM   11  C3  UNL     1      33.210  31.537  -1.613  1.00  0.00     0.054 C 
HETATM   12  C7  UNL     1      35.711  31.146  -1.416  1.00  0.00     0.054 C 
HETATM   13  C4  UNL     1      33.280  30.439  -0.562  1.00  0.00     0.006 C 
HETATM   14  C5  UNL     1      34.177  30.931   0.544  1.00  0.00     0.001 C 
HETATM   15  C6  UNL     1      35.487  31.467   0.059  1.00  0.00     0.006 C 
ATOM     16  H3  UNL     1      33.968  32.758  -3.744  1.00  0.00     0.186 HD
ENDBRANCH   5   9
BRANCH   7  17
HETATM   17  C8  UNL     1      38.630  34.468  -2.902  1.00  0.00     0.049 A 
HETATM   18  C9  UNL     1      39.218  33.486  -2.122  1.00  0.00     0.032 A 
HETATM   19  C10 UNL     1      39.914  33.791  -0.971  1.00  0.00     0.038 A 
HETATM   20  C11 UNL     1      40.031  35.118  -0.579  1.00  0.00     0.103 A 
HETATM   21  C12 UNL     1      39.430  36.094  -1.380  1.00  0.00     0.038 A 
HETATM   22  C13 UNL     1      38.737  35.788  -2.525  1.00  0.00     0.032 A 
BRANCH  20  23
HETATM   23  N5  UNL     1      40.739  35.451   0.595  1.00  0.00    -0.116 N 
HETATM   24  O1  UNL     1      41.939  35.193   0.684  1.00  0.00    -0.532 OA
HETATM   25  O2  UNL     1      40.091  36.056   1.623  1.00  0.00    -0.532 OA
ENDBRANCH  20  23
ENDBRANCH   7  17
TORSDOF 3
ENDMDL
MODEL 2
REMARK VINA RESULT: -7.167998989      2.068      2.685
REMARK  3 active torsions:
REMARK  status: ('A' for Active; 'I' for Inactive)
REMARK       I    between atoms: C1_4  and  N2_5 
REMARK       I    between atoms: C1_4  and  N4_15 
REMARK    1  A    between atoms: N2_5  and  N3_7 
REMARK    2  A    between atoms: N4_15  and  C8_17 
REMARK    3  A    between atoms: C11_20  and  N5_21 
ROOT
HETATM    1  N1  UNL     1      35.220  36.364  -3.607  1.00  0.00    -0.233 N 
ATOM      2  H11 UNL     1      35.522  37.337  -3.551  1.00  0.00     0.174 HD
ATOM      3  H12 UNL     1      34.418  36.021  -3.078  1.00  0.00     0.174 HD
HETATM    4  C1  UNL     1      35.831  35.489  -4.353  1.00  0.00     0.690 C 
HETATM    5  N2  UNL     1      35.413  34.144  -4.431  1.00  0.00    -0.133 N 
ATOM      6  H2  UNL     1      35.699  33.557  -5.215  1.00  0.00     0.205 HD
HETATM    7  N4  UNL     1      36.948  35.966  -5.091  1.00  0.00    -0.191 N 
ATOM      8  H4  UNL     1      36.830  36.328  -6.037  1.00  0.00     0.184 HD
ENDROOT
BRANCH   5   9
HETATM    9  N3  UNL     1      34.605  33.628  -3.420  1.00  0.00    -0.295 N 
HETATM   10  C2  UNL     1      35.029  32.665  -2.708  1.00  0.00     0.004 C 
HETATM   11  C3  UNL     1      34.209  32.094  -1.636  1.00  0.00     0.054 C 
HETATM   12  C7  UNL     1      36.376  32.100  -2.958  1.00  0.00     0.054 C 
HETATM   13  C4  UNL     1      34.821  30.757  -1.250  1.00  0.00     0.006 C 
HETATM   14  C5  UNL     1      36.199  31.033  -0.706  1.00  0.00     0.001 C 
HETATM   15  C6  UNL     1      37.028  31.910  -1.591  1.00  0.00     0.006 C 
ATOM     16  H3  UNL     1      33.678  34.021  -3.253  1.00  0.00     0.186 HD
ENDBRANCH   5   9
BRANCH   7  17
HETATM   17  C8  UNL     1      38.229  35.929  -4.485  1.00  0.00     0.049 A 
HETATM   18  C9  UNL     1      39.182  36.854  -4.879  1.00  0.00     0.032 A 
HETATM   19  C10 UNL     1      40.447  36.872  -4.330  1.00  0.00     0.038 A 
HETATM   20  C11 UNL     1      40.780  35.941  -3.356  1.00  0.00     0.103 A 
HETATM   21  C12 UNL     1      39.802  35.015  -2.973  1.00  0.00     0.038 A 
HETATM   22  C13 UNL     1      38.544  34.998  -3.521  1.00  0.00     0.032 A 
BRANCH  20  23
HETATM   23  N5  UNL     1      42.067  35.942  -2.782  1.00  0.00    -0.116 N 
HETATM   24  O1  UNL     1      43.043  36.267  -3.459  1.00  0.00    -0.532 OA
HETATM   25  O2  UNL     1      42.226  35.586  -1.482  1.00  0.00    -0.532 OA
ENDBRANCH  20  23
ENDBRANCH   7  17
TORSDOF 3
ENDMDL
MODEL 3
REMARK VINA RESULT: -7.155667124      1.468      1.856
REMARK  3 active torsions:
REMARK  status: ('A' for Active; 'I' for Inactive)
REMARK       I    between atoms: C1_4  and  N2_5 
REMARK       I    between atoms: C1_4  and  N4_15 
REMARK    1  A    between atoms: N2_5  and  N3_7 
REMARK    2  A    between atoms: N4_15  and  C8_17 
REMARK    3  A    between atoms: C11_20  and  N5_21 
ROOT
HETATM    1  N1  UNL     1      36.093  36.255  -3.012  1.00  0.00    -0.233 N 
ATOM      2  H11 UNL     1      36.532  37.134  -2.739  1.00  0.00     0.174 HD
ATOM      3  H12 UNL     1      35.123  36.046  -2.775  1.00  0.00     0.174 HD
HETATM    4  C1  UNL     1      36.731  35.335  -3.678  1.00  0.00     0.690 C 
HETATM    5  N2  UNL     1      36.123  34.120  -4.054  1.00  0.00    -0.133 N 
ATOM      6  H2  UNL     1      36.519  33.553  -4.805  1.00  0.00     0.205 HD
HETATM    7  N4  UNL     1      38.082  35.626  -4.007  1.00  0.00    -0.191 N 
ATOM      8  H4  UNL     1      38.316  36.082  -4.889  1.00  0.00     0.184 HD
ENDROOT
BRANCH   5   9
HETATM    9  N3  UNL     1      34.973  33.704  -3.385  1.00  0.00    -0.295 N 
HETATM   10  C2  UNL     1      35.021  32.680  -2.634  1.00  0.00     0.004 C 
HETATM   11  C3  UNL     1      33.834  32.210  -1.915  1.00  0.00     0.054 C 
HETATM   12  C7  UNL     1      36.295  31.939  -2.476  1.00  0.00     0.054 C 
HETATM   13  C4  UNL     1      34.117  30.795  -1.434  1.00  0.00     0.006 C 
HETATM   14  C5  UNL     1      35.267  30.870  -0.465  1.00  0.00     0.001 C 
HETATM   15  C6  UNL     1      36.441  31.639  -0.987  1.00  0.00     0.006 C 
ATOM     16  H3  UNL     1      34.099  34.218  -3.498  1.00  0.00     0.186 HD
ENDBRANCH   5   9
BRANCH   7  17
HETATM   17  C8  UNL     1      39.099  35.270  -3.086  1.00  0.00     0.049 A 
HETATM   18  C9  UNL     1      40.372  35.789  -3.260  1.00  0.00     0.032 A 
HETATM   19  C10 UNL     1      41.405  35.482  -2.401  1.00  0.00     0.038 A 
HETATM   20  C11 UNL     1      41.170  34.630  -1.330  1.00  0.00     0.103 A 
HETATM   21  C12 UNL     1      39.878  34.117  -1.172  1.00  0.00     0.038 A 
HETATM   22  C13 UNL     1      38.850  34.423  -2.029  1.00  0.00     0.032 A 
BRANCH  20  23
HETATM   23  N5  UNL     1      42.213  34.304  -0.439  1.00  0.00    -0.116 N 
HETATM   24  O1  UNL     1      42.367  33.139  -0.072  1.00  0.00    -0.532 OA
HETATM   25  O2  UNL     1      43.046  35.278   0.009  1.00  0.00    -0.532 OA
ENDBRANCH  20  23
ENDBRANCH   7  17
TORSDOF 3
ENDMDL
MODEL 4
REMARK VINA RESULT: -7.127457259      1.648      1.823
REMARK  3 active torsions:
REMARK  status: ('A' for Active; 'I' for Inactive)
REMARK       I    between atoms: C1_4  and  N2_5 
REMARK       I    between atoms: C1_4  and  N4_15 
REMARK    1  A    between atoms: N2_5  and  N3_7 
REMARK    2  A    between atoms: N4_15  and  C8_17 
REMARK    3  A    between atoms: C11_20  and  N5_21 
ROOT
HETATM    1  N1  UNL     1      35.166  35.981  -3.763  1.00  0.00    -0.233 N 
ATOM      2  H11 UNL     1      35.511  36.941  -3.764  1.00  0.00     0.174 HD
ATOM      3  H12 UNL     1      34.283  35.730  -3.319  1.00  0.00     0.174 HD
HETATM    4  C1  UNL     1      35.823  35.006  -4.324  1.00  0.00     0.690 C 
HETATM    5  N2  UNL     1      35.347  33.679  -4.322  1.00  0.00    -0.133 N 
ATOM      6  H2  UNL     1      35.703  32.999  -4.995  1.00  0.00     0.205 HD
HETATM    7  N4  UNL     1      37.054  35.356  -4.942  1.00  0.00    -0.191 N 
ATOM      8  H4  UNL     1      37.085  35.618  -5.927  1.00  0.00     0.184 HD
ENDROOT
BRANCH   5   9
HETATM    9  N3  UNL     1      34.382  33.308  -3.387  1.00  0.00    -0.295 N 
HETATM   10  C2  UNL     1      34.652  32.410  -2.530  1.00  0.00     0.004 C 
HETATM   11  C3  UNL     1      33.665  31.992  -1.531  1.00  0.00     0.054 C 
HETATM   12  C7  UNL     1      35.987  31.766  -2.531  1.00  0.00     0.054 C 
HETATM   13  C4  UNL     1      34.144  30.679  -0.931  1.00  0.00     0.006 C 
HETATM   14  C5  UNL     1      35.449  30.955  -0.231  1.00  0.00     0.001 C 
HETATM   15  C6  UNL     1      36.437  31.696  -1.075  1.00  0.00     0.006 C 
ATOM     16  H3  UNL     1      33.465  33.755  -3.391  1.00  0.00     0.186 HD
ENDBRANCH   5   9
BRANCH   7  17
HETATM   17  C8  UNL     1      38.237  35.333  -4.163  1.00  0.00     0.049 A 
HETATM   18  C9  UNL     1      38.519  34.206  -3.407  1.00  0.00     0.032 A 
HETATM   19  C10 UNL     1      39.652  34.119  -2.626  1.00  0.00     0.038 A 
HETATM   20  C11 UNL     1      40.540  35.187  -2.594  1.00  0.00     0.103 A 
HETATM   21  C12 UNL     1      40.237  36.315  -3.364  1.00  0.00     0.038 A 
HETATM   22  C13 UNL     1      39.107  36.400  -4.140  1.00  0.00     0.032 A 
BRANCH  20  23
HETATM   23  N5  UNL     1      41.705  35.118  -1.803  1.00  0.00    -0.116 N 
HETATM   24  O1  UNL     1      42.585  35.969  -1.928  1.00  0.00    -0.532 OA
HETATM   25  O2  UNL     1      41.850  34.111  -0.904  1.00  0.00    -0.532 OA
ENDBRANCH  20  23
ENDBRANCH   7  17
TORSDOF 3
ENDMDL
MODEL 5
REMARK VINA RESULT: -7.115516151      2.090      2.616
REMARK  3 active torsions:
REMARK  status: ('A' for Active; 'I' for Inactive)
REMARK       I    between atoms: C1_4  and  N2_5 
REMARK       I    between atoms: C1_4  and  N4_15 
REMARK    1  A    between atoms: N2_5  and  N3_7 
REMARK    2  A    between atoms: N4_15  and  C8_17 
REMARK    3  A    between atoms: C11_20  and  N5_21 
ROOT
HETATM    1  N1  UNL     1      35.189  36.369  -3.647  1.00  0.00    -0.233 N 
ATOM      2  H11 UNL     1      35.463  37.351  -3.614  1.00  0.00     0.174 HD
ATOM      3  H12 UNL     1      34.408  36.013  -3.095  1.00  0.00     0.174 HD
HETATM    4  C1  UNL     1      35.809  35.499  -4.390  1.00  0.00     0.690 C 
HETATM    5  N2  UNL     1      35.430  34.141  -4.435  1.00  0.00    -0.133 N 
ATOM      6  H2  UNL     1      35.717  33.549  -5.215  1.00  0.00     0.205 HD
HETATM    7  N4  UNL     1      36.896  35.995  -5.160  1.00  0.00    -0.191 N 
ATOM      8  H4  UNL     1      36.749  36.336  -6.109  1.00  0.00     0.184 HD
ENDROOT
BRANCH   5   9
HETATM    9  N3  UNL     1      34.658  33.620  -3.399  1.00  0.00    -0.295 N 
HETATM   10  C2  UNL     1      35.114  32.664  -2.697  1.00  0.00     0.004 C 
HETATM   11  C3  UNL     1      34.333  32.089  -1.598  1.00  0.00     0.054 C 
HETATM   12  C7  UNL     1      36.459  32.113  -2.985  1.00  0.00     0.054 C 
HETATM   13  C4  UNL     1      34.972  30.759  -1.226  1.00  0.00     0.006 C 
HETATM   14  C5  UNL     1      36.362  31.053  -0.725  1.00  0.00     0.001 C 
HETATM   15  C6  UNL     1      37.154  31.935  -1.639  1.00  0.00     0.006 C 
ATOM     16  H3  UNL     1      33.733  34.004  -3.205  1.00  0.00     0.186 HD
ENDBRANCH   5   9
BRANCH   7  17
HETATM   17  C8  UNL     1      38.190  36.006  -4.581  1.00  0.00     0.049 A 
HETATM   18  C9  UNL     1      38.496  35.067  -3.608  1.00  0.00     0.032 A 
HETATM   19  C10 UNL     1      39.735  35.024  -3.005  1.00  0.00     0.038 A 
HETATM   20  C11 UNL     1      40.707  35.943  -3.379  1.00  0.00     0.103 A 
HETATM   21  C12 UNL     1      40.377  36.882  -4.362  1.00  0.00     0.038 A 
HETATM   22  C13 UNL     1      39.143  36.925  -4.961  1.00  0.00     0.032 A 
BRANCH  20  23
HETATM   23  N5  UNL     1      41.980  35.915  -2.774  1.00  0.00    -0.116 N 
HETATM   24  O1  UNL     1      42.098  35.557  -1.603  1.00  0.00    -0.532 OA
HETATM   25  O2  UNL     1      43.074  36.285  -3.489  1.00  0.00    -0.532 OA
ENDBRANCH  20  23
ENDBRANCH   7  17
TORSDOF 3
ENDMDL
