MODEL 1
REMARK VINA RESULT: -6.655382990      0.000      0.000
REMARK  6 active torsions:
REMARK  status: ('A' for Active; 'I' for Inactive)
REMARK    1  A    between atoms: C5_5  and  N1_6 
REMARK    2  A    between atoms: N1_6  and  C6_8 
REMARK    3  A    between atoms: C7_11  and  N3_12 
REMARK    4  A    between atoms: C9_19  and  N5_20 
REMARK    5  A    between atoms: N5_20  and  N6_22 
REMARK    6  A    between atoms: N6_22  and  N7_23 
ROOT
HETATM    1  C6  UNL     1      40.640  35.367  -2.040  1.00  0.00     0.152 A 
HETATM    2  N2  UNL     1      41.235  35.782  -3.147  1.00  0.00    -0.175 N 
ATOM      3  H2  UNL     1      40.685  35.818  -4.006  1.00  0.00     0.186 HD
HETATM    4  C7  UNL     1      42.524  36.158  -3.202  1.00  0.00     0.680 A 
HETATM    5  N4  UNL     1      43.243  36.110  -2.068  1.00  0.00    -0.154 N 
ATOM      6  H4  UNL     1      44.222  36.392  -2.094  1.00  0.00     0.187 HD
HETATM    7  C8  UNL     1      42.714  35.699  -0.892  1.00  0.00     0.292 A 
HETATM    8  O1  UNL     1      43.430  35.671   0.145  1.00  0.00    -0.265 OA
HETATM    9  C9  UNL     1      41.397  35.322  -0.874  1.00  0.00     0.175 A 
ENDROOT
BRANCH   1  10
HETATM   10  N1  UNL     1      39.286  34.959  -1.955  1.00  0.00    -0.369 N 
ATOM     11  H1  UNL     1      38.653  35.522  -1.387  1.00  0.00     0.161 HD
BRANCH  10  12
HETATM   12  C5  UNL     1      38.747  33.801  -2.617  1.00  0.00     0.083 C 
HETATM   13  C4  UNL     1      38.572  32.705  -1.565  1.00  0.00     0.025 C 
HETATM   14  C3  UNL     1      37.890  31.549  -2.295  1.00  0.00     0.006 C 
HETATM   15  C2  UNL     1      36.443  31.952  -2.455  1.00  0.00    -0.019 C 
HETATM   16  C1  UNL     1      35.707  31.554  -1.168  1.00  0.00     0.010 C 
HETATM   17  C11 UNL     1      36.264  33.428  -2.612  1.00  0.00     0.006 C 
HETATM   18  C10 UNL     1      37.417  34.118  -3.275  1.00  0.00     0.025 C 
ENDBRANCH  10  12
ENDBRANCH   1  10
BRANCH   9  19
HETATM   19  N5  UNL     1      40.803  34.884   0.342  1.00  0.00    -0.207 N 
ATOM     20  H5  UNL     1      40.985  33.953   0.717  1.00  0.00     0.204 HD
BRANCH  19  21
HETATM   21  N6  UNL     1      40.060  35.675   0.921  1.00  0.00    -0.243 NA
BRANCH  21  22
HETATM   22  N7  UNL     1      39.340  36.525   1.444  1.00  0.00    -0.260 N 
ATOM     23  H72 UNL     1      39.100  35.666   1.938  1.00  0.00     0.193 HD
ATOM     24  H71 UNL     1      38.772  37.278   1.833  1.00  0.00     0.193 HD
ENDBRANCH  21  22
ENDBRANCH  19  21
ENDBRANCH   9  19
BRANCH   4  25
HETATM   25  N3  UNL     1      43.045  36.553  -4.312  1.00  0.00    -0.234 N 
ATOM     26  H32 UNL     1      43.060  35.952  -5.136  1.00  0.00     0.174 HD
ATOM     27  H31 UNL     1      43.457  37.482  -4.390  1.00  0.00     0.174 HD
ENDBRANCH   4  25
TORSDOF 6
ENDMDL
MODEL 2
REMARK VINA RESULT: -6.629993502      4.664      6.698
REMARK  6 active torsions:
REMARK  status: ('A' for Active; 'I' for Inactive)
REMARK    1  A    between atoms: C5_5  and  N1_6 
REMARK    2  A    between atoms: N1_6  and  C6_8 
REMARK    3  A    between atoms: C7_11  and  N3_12 
REMARK    4  A    between atoms: C9_19  and  N5_20 
REMARK    5  A    between atoms: N5_20  and  N6_22 
REMARK    6  A    between atoms: N6_22  and  N7_23 
ROOT
HETATM    1  C6  UNL     1      36.711  33.974  -4.946  1.00  0.00     0.152 A 
HETATM    2  N2  UNL     1      36.971  34.740  -5.994  1.00  0.00    -0.175 N 
ATOM      3  H2  UNL     1      37.650  35.493  -5.886  1.00  0.00     0.186 HD
HETATM    4  C7  UNL     1      36.387  34.578  -7.194  1.00  0.00     0.680 A 
HETATM    5  N4  UNL     1      35.494  33.584  -7.331  1.00  0.00    -0.154 N 
ATOM      6  H4  UNL     1      35.043  33.449  -8.236  1.00  0.00     0.187 HD
HETATM    7  C8  UNL     1      35.171  32.754  -6.311  1.00  0.00     0.292 A 
HETATM    8  O1  UNL     1      34.326  31.836  -6.491  1.00  0.00    -0.265 OA
HETATM    9  C9  UNL     1      35.785  32.950  -5.103  1.00  0.00     0.175 A 
ENDROOT
BRANCH   1  10
HETATM   10  N1  UNL     1      37.306  34.126  -3.668  1.00  0.00    -0.369 N 
ATOM     11  H1  UNL     1      36.722  34.473  -2.909  1.00  0.00     0.161 HD
BRANCH  10  12
HETATM   12  C5  UNL     1      38.682  33.820  -3.375  1.00  0.00     0.083 C 
HETATM   13  C4  UNL     1      39.362  35.121  -2.947  1.00  0.00     0.025 C 
HETATM   14  C3  UNL     1      40.779  34.720  -2.535  1.00  0.00     0.006 C 
HETATM   15  C2  UNL     1      40.650  34.066  -1.179  1.00  0.00    -0.019 C 
HETATM   16  C1  UNL     1      40.675  35.179  -0.124  1.00  0.00     0.010 C 
HETATM   17  C11 UNL     1      39.354  33.339  -1.004  1.00  0.00     0.006 C 
HETATM   18  C10 UNL     1      38.788  32.782  -2.275  1.00  0.00     0.025 C 
ENDBRANCH  10  12
ENDBRANCH   1  10
BRANCH   9  19
HETATM   19  N5  UNL     1      35.473  32.100  -4.005  1.00  0.00    -0.207 N 
ATOM     20  H5  UNL     1      36.083  31.326  -3.742  1.00  0.00     0.204 HD
BRANCH  19  21
HETATM   21  N6  UNL     1      34.436  32.337  -3.387  1.00  0.00    -0.243 NA
BRANCH  21  22
HETATM   22  N7  UNL     1      33.357  32.573  -2.844  1.00  0.00    -0.260 N 
ATOM     23  H72 UNL     1      33.101  32.338  -3.803  1.00  0.00     0.193 HD
ATOM     24  H71 UNL     1      32.499  32.782  -2.334  1.00  0.00     0.193 HD
ENDBRANCH  21  22
ENDBRANCH  19  21
ENDBRANCH   9  19
BRANCH   4  25
HETATM   25  N3  UNL     1      36.682  35.357  -8.176  1.00  0.00    -0.234 N 
ATOM     26  H32 UNL     1      35.958  35.831  -8.716  1.00  0.00     0.174 HD
ATOM     27  H31 UNL     1      37.655  35.516  -8.438  1.00  0.00     0.174 HD
ENDBRANCH   4  25
TORSDOF 6
ENDMDL
MODEL 3
REMARK VINA RESULT: -6.567475310      4.252      5.356
REMARK  6 active torsions:
REMARK  status: ('A' for Active; 'I' for Inactive)
REMARK    1  A    between atoms: C5_5  and  N1_6 
REMARK    2  A    between atoms: N1_6  and  C6_8 
REMARK    3  A    between atoms: C7_11  and  N3_12 
REMARK    4  A    between atoms: C9_19  and  N5_20 
REMARK    5  A    between atoms: N5_20  and  N6_22 
REMARK    6  A    between atoms: N6_22  and  N7_23 
ROOT
HETATM    1  C6  UNL     1      37.017  34.130  -4.502  1.00  0.00     0.152 A 
HETATM    2  N2  UNL     1      37.037  33.799  -5.783  1.00  0.00    -0.175 N 
ATOM      3  H2  UNL     1      37.597  32.995  -6.066  1.00  0.00     0.186 HD
HETATM    4  C7  UNL     1      36.360  34.468  -6.734  1.00  0.00     0.680 A 
HETATM    5  N4  UNL     1      35.624  35.526  -6.356  1.00  0.00    -0.154 N 
ATOM      6  H4  UNL     1      35.105  36.042  -7.065  1.00  0.00     0.187 HD
HETATM    7  C8  UNL     1      35.547  35.931  -5.066  1.00  0.00     0.292 A 
HETATM    8  O1  UNL     1      34.841  36.931  -4.763  1.00  0.00    -0.265 OA
HETATM    9  C9  UNL     1      36.250  35.227  -4.126  1.00  0.00     0.175 A 
ENDROOT
BRANCH   1  10
HETATM   10  N1  UNL     1      37.725  33.448  -3.481  1.00  0.00    -0.369 N 
ATOM     11  H1  UNL     1      38.483  33.945  -3.013  1.00  0.00     0.161 HD
BRANCH  10  12
HETATM   12  C5  UNL     1      37.444  32.100  -3.062  1.00  0.00     0.083 C 
HETATM   13  C4  UNL     1      37.919  31.957  -1.616  1.00  0.00     0.025 C 
HETATM   14  C3  UNL     1      37.491  30.554  -1.186  1.00  0.00     0.006 C 
HETATM   15  C2  UNL     1      36.003  30.631  -0.937  1.00  0.00    -0.019 C 
HETATM   16  C1  UNL     1      35.800  31.117   0.504  1.00  0.00     0.010 C 
HETATM   17  C11 UNL     1      35.314  31.618  -1.823  1.00  0.00     0.006 C 
HETATM   18  C10 UNL     1      35.962  31.795  -3.163  1.00  0.00     0.025 C 
ENDBRANCH  10  12
ENDBRANCH   1  10
BRANCH   9  19
HETATM   19  N5  UNL     1      36.196  35.621  -2.760  1.00  0.00    -0.207 N 
ATOM     20  H5  UNL     1      35.384  35.413  -2.179  1.00  0.00     0.204 HD
BRANCH  19  21
HETATM   21  N6  UNL     1      37.170  36.222  -2.309  1.00  0.00    -0.243 NA
BRANCH  21  22
HETATM   22  N7  UNL     1      38.117  36.802  -1.779  1.00  0.00    -0.260 N 
ATOM     23  H72 UNL     1      38.348  36.816  -2.772  1.00  0.00     0.193 HD
ATOM     24  H71 UNL     1      38.871  37.272  -1.277  1.00  0.00     0.193 HD
ENDBRANCH  21  22
ENDBRANCH  19  21
ENDBRANCH   9  19
BRANCH   4  25
HETATM   25  N3  UNL     1      36.421  34.096  -7.965  1.00  0.00    -0.234 N 
ATOM     26  H32 UNL     1      37.064  33.364  -8.269  1.00  0.00     0.174 HD
ATOM     27  H31 UNL     1      35.825  34.531  -8.668  1.00  0.00     0.174 HD
ENDBRANCH   4  25
TORSDOF 6
ENDMDL
MODEL 4
REMARK VINA RESULT: -6.496406737      4.186      5.624
REMARK  6 active torsions:
REMARK  status: ('A' for Active; 'I' for Inactive)
REMARK    1  A    between atoms: C5_5  and  N1_6 
REMARK    2  A    between atoms: N1_6  and  C6_8 
REMARK    3  A    between atoms: C7_11  and  N3_12 
REMARK    4  A    between atoms: C9_19  and  N5_20 
REMARK    5  A    between atoms: N5_20  and  N6_22 
REMARK    6  A    between atoms: N6_22  and  N7_23 
ROOT
HETATM    1  C6  UNL     1      35.792  35.005  -3.647  1.00  0.00     0.152 A 
HETATM    2  N2  UNL     1      35.660  36.002  -2.787  1.00  0.00    -0.175 N 
ATOM      3  H2  UNL     1      34.836  36.015  -2.186  1.00  0.00     0.186 HD
HETATM    4  C7  UNL     1      36.553  36.999  -2.662  1.00  0.00     0.680 A 
HETATM    5  N4  UNL     1      37.637  36.976  -3.456  1.00  0.00    -0.154 N 
ATOM      6  H4  UNL     1      38.323  37.725  -3.372  1.00  0.00     0.187 HD
HETATM    7  C8  UNL     1      37.850  35.993  -4.362  1.00  0.00     0.292 A 
HETATM    8  O1  UNL     1      38.884  36.017  -5.084  1.00  0.00    -0.265 OA
HETATM    9  C9  UNL     1      36.919  34.995  -4.462  1.00  0.00     0.175 A 
ENDROOT
BRANCH   1  10
HETATM   10  N1  UNL     1      34.864  33.945  -3.804  1.00  0.00    -0.369 N 
ATOM     11  H1  UNL     1      33.964  34.160  -4.232  1.00  0.00     0.161 HD
BRANCH  10  12
HETATM   12  C5  UNL     1      35.110  32.587  -3.399  1.00  0.00     0.083 C 
HETATM   13  C4  UNL     1      36.072  32.626  -2.210  1.00  0.00     0.025 C 
HETATM   14  C3  UNL     1      36.203  31.175  -1.748  1.00  0.00     0.006 C 
HETATM   15  C2  UNL     1      34.927  30.856  -1.006  1.00  0.00    -0.019 C 
HETATM   16  C1  UNL     1      35.108  31.319   0.446  1.00  0.00     0.010 C 
HETATM   17  C11 UNL     1      33.741  31.591  -1.545  1.00  0.00     0.006 C 
HETATM   18  C10 UNL     1      33.820  31.890  -3.012  1.00  0.00     0.025 C 
ENDBRANCH  10  12
ENDBRANCH   1  10
BRANCH   9  19
HETATM   19  N5  UNL     1      37.106  33.944  -5.402  1.00  0.00    -0.207 N 
ATOM     20  H5  UNL     1      37.824  33.232  -5.269  1.00  0.00     0.204 HD
BRANCH  19  21
HETATM   21  N6  UNL     1      36.364  33.929  -6.384  1.00  0.00    -0.243 NA
BRANCH  21  22
HETATM   22  N7  UNL     1      35.617  33.828  -7.357  1.00  0.00    -0.260 N 
ATOM     23  H72 UNL     1      35.420  34.761  -6.994  1.00  0.00     0.193 HD
ATOM     24  H71 UNL     1      35.024  33.680  -8.174  1.00  0.00     0.193 HD
ENDBRANCH  21  22
ENDBRANCH  19  21
ENDBRANCH   9  19
BRANCH   4  25
HETATM   25  N3  UNL     1      36.367  37.941  -1.805  1.00  0.00    -0.234 N 
ATOM     26  H32 UNL     1      36.463  37.777  -0.803  1.00  0.00     0.174 HD
ATOM     27  H31 UNL     1      36.116  38.881  -2.113  1.00  0.00     0.174 HD
ENDBRANCH   4  25
TORSDOF 6
ENDMDL
MODEL 5
REMARK VINA RESULT: -6.485802849      4.945      6.909
REMARK  6 active torsions:
REMARK  status: ('A' for Active; 'I' for Inactive)
REMARK    1  A    between atoms: C5_5  and  N1_6 
REMARK    2  A    between atoms: N1_6  and  C6_8 
REMARK    3  A    between atoms: C7_11  and  N3_12 
REMARK    4  A    between atoms: C9_19  and  N5_20 
REMARK    5  A    between atoms: N5_20  and  N6_22 
REMARK    6  A    between atoms: N6_22  and  N7_23 
ROOT
HETATM    1  C6  UNL     1      36.714  33.464  -4.950  1.00  0.00     0.152 A 
HETATM    2  N2  UNL     1      37.024  34.299  -5.930  1.00  0.00    -0.175 N 
ATOM      3  H2  UNL     1      37.815  34.928  -5.796  1.00  0.00     0.186 HD
HETATM    4  C7  UNL     1      36.350  34.363  -7.092  1.00  0.00     0.680 A 
HETATM    5  N4  UNL     1      35.309  33.532  -7.262  1.00  0.00    -0.154 N 
ATOM      6  H4  UNL     1      34.789  33.568  -8.138  1.00  0.00     0.187 HD
HETATM    7  C8  UNL     1      34.925  32.646  -6.312  1.00  0.00     0.292 A 
HETATM    8  O1  UNL     1      33.941  31.887  -6.521  1.00  0.00    -0.265 OA
HETATM    9  C9  UNL     1      35.634  32.610  -5.141  1.00  0.00     0.175 A 
ENDROOT
BRANCH   1  10
HETATM   10  N1  UNL     1      37.402  33.380  -3.714  1.00  0.00    -0.369 N 
ATOM     11  H1  UNL     1      37.970  32.552  -3.540  1.00  0.00     0.161 HD
BRANCH  10  12
HETATM   12  C5  UNL     1      37.350  34.389  -2.689  1.00  0.00     0.083 C 
HETATM   13  C4  UNL     1      38.624  35.228  -2.801  1.00  0.00     0.025 C 
HETATM   14  C3  UNL     1      38.461  36.349  -1.774  1.00  0.00     0.006 C 
HETATM   15  C2  UNL     1      37.482  37.328  -2.378  1.00  0.00    -0.019 C 
HETATM   16  C1  UNL     1      38.278  38.285  -3.274  1.00  0.00     0.010 C 
HETATM   17  C11 UNL     1      36.463  36.669  -3.253  1.00  0.00     0.006 C 
HETATM   18  C10 UNL     1      36.124  35.267  -2.847  1.00  0.00     0.025 C 
ENDBRANCH  10  12
ENDBRANCH   1  10
BRANCH   9  19
HETATM   19  N5  UNL     1      35.263  31.694  -4.117  1.00  0.00    -0.207 N 
ATOM     20  H5  UNL     1      35.710  30.781  -4.034  1.00  0.00     0.204 HD
BRANCH  19  21
HETATM   21  N6  UNL     1      34.381  32.050  -3.337  1.00  0.00    -0.243 NA
BRANCH  21  22
HETATM   22  N7  UNL     1      33.457  32.334  -2.575  1.00  0.00    -0.260 N 
ATOM     23  H72 UNL     1      33.635  31.347  -2.387  1.00  0.00     0.193 HD
ATOM     24  H71 UNL     1      32.694  32.634  -1.969  1.00  0.00     0.193 HD
ENDBRANCH  21  22
ENDBRANCH  19  21
ENDBRANCH   9  19
BRANCH   4  25
HETATM   25  N3  UNL     1      36.701  35.198  -8.007  1.00  0.00    -0.234 N 
ATOM     26  H32 UNL     1      37.304  35.994  -7.799  1.00  0.00     0.174 HD
ATOM     27  H31 UNL     1      36.379  35.080  -8.968  1.00  0.00     0.174 HD
ENDBRANCH   4  25
TORSDOF 6
ENDMDL
