MODEL 1
REMARK VINA RESULT: -7.857604325      0.000      0.000
REMARK  5 active torsions:
REMARK  status: ('A' for Active; 'I' for Inactive)
REMARK    1  A    between atoms: C3_4  and  C4_5 
REMARK    2  A    between atoms: C7_8  and  N2_9 
REMARK    3  A    between atoms: N2_9  and  C8_11 
REMARK    4  A    between atoms: C11_14  and  C12_15 
REMARK    5  A    between atoms: N4_17  and  N5_19 
ROOT
HETATM    1  N1  UNL     1      43.824  38.217  -2.525  1.00  0.00    -0.192 NA
HETATM    2  C1  UNL     1      43.068  37.386  -2.855  1.00  0.00     0.087 C 
HETATM    3  C2  UNL     1      42.144  36.367  -3.235  1.00  0.00     0.094 C 
HETATM    4  C3  UNL     1      40.879  36.495  -2.932  1.00  0.00     0.022 C 
ENDROOT
BRANCH   4   5
HETATM    5  C4  UNL     1      39.831  35.529  -3.260  1.00  0.00    -0.035 A 
HETATM    6  C5  UNL     1      38.723  35.917  -3.983  1.00  0.00     0.013 A 
HETATM    7  C6  UNL     1      37.690  35.059  -4.331  1.00  0.00     0.030 A 
HETATM    8  C7  UNL     1      37.736  33.739  -3.951  1.00  0.00     0.032 A 
HETATM    9  C15 UNL     1      38.866  33.339  -3.213  1.00  0.00     0.030 A 
HETATM   10  C16 UNL     1      39.880  34.208  -2.879  1.00  0.00     0.013 A 
BRANCH   8  11
HETATM   11  N2  UNL     1      36.743  32.784  -4.223  1.00  0.00    -0.356 N 
ATOM     12  H2  UNL     1      36.670  32.426  -5.175  1.00  0.00     0.166 HD
BRANCH  11  13
HETATM   13  C8  UNL     1      35.842  32.290  -3.262  1.00  0.00     0.032 A 
HETATM   14  C9  UNL     1      36.344  31.419  -2.271  1.00  0.00     0.030 A 
HETATM   15  C10 UNL     1      35.525  30.932  -1.290  1.00  0.00     0.017 A 
HETATM   16  C11 UNL     1      34.161  31.266  -1.216  1.00  0.00     0.006 A 
HETATM   17  C13 UNL     1      33.698  32.109  -2.184  1.00  0.00     0.017 A 
HETATM   18  C14 UNL     1      34.510  32.612  -3.182  1.00  0.00     0.030 A 
BRANCH  16  19
HETATM   19  C12 UNL     1      33.357  30.706  -0.142  1.00  0.00     0.140 C 
HETATM   20  N3  UNL     1      33.720  31.096   1.206  1.00  0.00    -0.080 NA
HETATM   21  N4  UNL     1      32.381  29.923  -0.232  1.00  0.00    -0.294 N 
ATOM     22  H4  UNL     1      31.991  29.680   0.678  1.00  0.00     0.187 HD
BRANCH  21  23
HETATM   23  N5  UNL     1      31.722  29.322  -1.258  1.00  0.00    -0.344 N 
ATOM     24  H52 UNL     1      30.908  29.867  -1.541  1.00  0.00     0.176 HD
ATOM     25  H51 UNL     1      31.853  28.467  -1.799  1.00  0.00     0.176 HD
ENDBRANCH  21  23
ENDBRANCH  16  19
ENDBRANCH  11  13
ENDBRANCH   8  11
ENDBRANCH   4   5
TORSDOF 5
ENDMDL
MODEL 2
REMARK VINA RESULT: -7.820697366      0.148      1.036
REMARK  5 active torsions:
REMARK  status: ('A' for Active; 'I' for Inactive)
REMARK    1  A    between atoms: C3_4  and  C4_5 
REMARK    2  A    between atoms: C7_8  and  N2_9 
REMARK    3  A    between atoms: N2_9  and  C8_11 
REMARK    4  A    between atoms: C11_14  and  C12_15 
REMARK    5  A    between atoms: N4_17  and  N5_19 
ROOT
HETATM    1  N1  UNL     1      43.866  38.253  -2.553  1.00  0.00    -0.192 NA
HETATM    2  C1  UNL     1      43.097  37.425  -2.861  1.00  0.00     0.087 C 
HETATM    3  C2  UNL     1      42.156  36.410  -3.213  1.00  0.00     0.094 C 
HETATM    4  C3  UNL     1      40.890  36.576  -2.932  1.00  0.00     0.022 C 
ENDROOT
BRANCH   4   5
HETATM    5  C4  UNL     1      39.827  35.620  -3.235  1.00  0.00    -0.035 A 
HETATM    6  C5  UNL     1      39.960  34.291  -2.892  1.00  0.00     0.013 A 
HETATM    7  C6  UNL     1      38.996  33.327  -3.147  1.00  0.00     0.030 A 
HETATM    8  C7  UNL     1      37.826  33.677  -3.778  1.00  0.00     0.032 A 
HETATM    9  C15 UNL     1      37.686  35.033  -4.130  1.00  0.00     0.030 A 
HETATM   10  C16 UNL     1      38.656  35.973  -3.866  1.00  0.00     0.013 A 
BRANCH   8  11
HETATM   11  N2  UNL     1      36.790  32.790  -4.111  1.00  0.00    -0.356 N 
ATOM     12  H2  UNL     1      36.701  32.502  -5.085  1.00  0.00     0.166 HD
BRANCH  11  13
HETATM   13  C8  UNL     1      35.867  32.273  -3.183  1.00  0.00     0.032 A 
HETATM   14  C9  UNL     1      36.373  31.590  -2.057  1.00  0.00     0.030 A 
HETATM   15  C10 UNL     1      35.526  31.095  -1.103  1.00  0.00     0.017 A 
HETATM   16  C11 UNL     1      34.131  31.236  -1.191  1.00  0.00     0.006 A 
HETATM   17  C13 UNL     1      33.664  31.900  -2.289  1.00  0.00     0.017 A 
HETATM   18  C14 UNL     1      34.502  32.408  -3.262  1.00  0.00     0.030 A 
BRANCH  16  19
HETATM   19  C12 UNL     1      33.299  30.680  -0.136  1.00  0.00     0.140 C 
HETATM   20  N3  UNL     1      33.603  31.107   1.215  1.00  0.00    -0.080 NA
HETATM   21  N4  UNL     1      32.345  29.873  -0.245  1.00  0.00    -0.294 N 
ATOM     22  H4  UNL     1      31.926  29.640   0.655  1.00  0.00     0.187 HD
BRANCH  21  23
HETATM   23  N5  UNL     1      31.739  29.235  -1.282  1.00  0.00    -0.344 N 
ATOM     24  H52 UNL     1      32.423  28.911  -1.965  1.00  0.00     0.176 HD
ATOM     25  H51 UNL     1      30.774  29.011  -1.526  1.00  0.00     0.176 HD
ENDBRANCH  21  23
ENDBRANCH  16  19
ENDBRANCH  11  13
ENDBRANCH   8  11
ENDBRANCH   4   5
TORSDOF 5
ENDMDL
MODEL 3
REMARK VINA RESULT: -7.526558570      0.298      1.482
REMARK  5 active torsions:
REMARK  status: ('A' for Active; 'I' for Inactive)
REMARK    1  A    between atoms: C3_4  and  C4_5 
REMARK    2  A    between atoms: C7_8  and  N2_9 
REMARK    3  A    between atoms: N2_9  and  C8_11 
REMARK    4  A    between atoms: C11_14  and  C12_15 
REMARK    5  A    between atoms: N4_17  and  N5_19 
ROOT
HETATM    1  N1  UNL     1      43.859  38.248  -2.539  1.00  0.00    -0.192 NA
HETATM    2  C1  UNL     1      43.104  37.379  -2.751  1.00  0.00     0.087 C 
HETATM    3  C2  UNL     1      42.175  36.321  -2.987  1.00  0.00     0.094 C 
HETATM    4  C3  UNL     1      40.893  36.577  -3.001  1.00  0.00     0.022 C 
ENDROOT
BRANCH   4   5
HETATM    5  C4  UNL     1      39.839  35.590  -3.230  1.00  0.00    -0.035 A 
HETATM    6  C5  UNL     1      39.970  34.302  -2.756  1.00  0.00     0.013 A 
HETATM    7  C6  UNL     1      39.014  33.313  -2.934  1.00  0.00     0.030 A 
HETATM    8  C7  UNL     1      37.856  33.593  -3.617  1.00  0.00     0.032 A 
HETATM    9  C15 UNL     1      37.718  34.907  -4.103  1.00  0.00     0.030 A 
HETATM   10  C16 UNL     1      38.679  35.873  -3.914  1.00  0.00     0.013 A 
BRANCH   8  11
HETATM   11  N2  UNL     1      36.829  32.671  -3.882  1.00  0.00    -0.356 N 
ATOM     12  H2  UNL     1      36.697  32.365  -4.845  1.00  0.00     0.166 HD
BRANCH  11  13
HETATM   13  C8  UNL     1      35.971  32.145  -2.899  1.00  0.00     0.032 A 
HETATM   14  C9  UNL     1      34.600  32.470  -2.975  1.00  0.00     0.030 A 
HETATM   15  C10 UNL     1      33.711  31.962  -2.067  1.00  0.00     0.017 A 
HETATM   16  C11 UNL     1      34.108  31.103  -1.028  1.00  0.00     0.006 A 
HETATM   17  C13 UNL     1      35.438  30.803  -0.974  1.00  0.00     0.017 A 
HETATM   18  C14 UNL     1      36.351  31.305  -1.881  1.00  0.00     0.030 A 
BRANCH  16  19
HETATM   19  C12 UNL     1      33.102  30.605  -0.103  1.00  0.00     0.140 C 
HETATM   20  N3  UNL     1      33.126  31.162   1.234  1.00  0.00    -0.080 NA
HETATM   21  N4  UNL     1      32.209  29.751  -0.316  1.00  0.00    -0.294 N 
ATOM     22  H4  UNL     1      31.629  29.580   0.505  1.00  0.00     0.187 HD
BRANCH  21  23
HETATM   23  N5  UNL     1      31.833  28.998  -1.385  1.00  0.00    -0.344 N 
ATOM     24  H52 UNL     1      31.591  28.050  -1.099  1.00  0.00     0.176 HD
ATOM     25  H51 UNL     1      31.739  29.164  -2.387  1.00  0.00     0.176 HD
ENDBRANCH  21  23
ENDBRANCH  16  19
ENDBRANCH  11  13
ENDBRANCH   8  11
ENDBRANCH   4   5
TORSDOF 5
ENDMDL
MODEL 4
REMARK VINA RESULT: -7.523395420      3.270      3.920
REMARK  5 active torsions:
REMARK  status: ('A' for Active; 'I' for Inactive)
REMARK    1  A    between atoms: C3_4  and  C4_5 
REMARK    2  A    between atoms: C7_8  and  N2_9 
REMARK    3  A    between atoms: N2_9  and  C8_11 
REMARK    4  A    between atoms: C11_14  and  C12_15 
REMARK    5  A    between atoms: N4_17  and  N5_19 
ROOT
HETATM    1  N1  UNL     1      39.738  38.985  -9.601  1.00  0.00    -0.192 NA
HETATM    2  C1  UNL     1      39.072  38.082  -9.269  1.00  0.00     0.087 C 
HETATM    3  C2  UNL     1      38.279  36.969  -8.856  1.00  0.00     0.094 C 
HETATM    4  C3  UNL     1      38.151  36.703  -7.582  1.00  0.00     0.022 C 
ENDROOT
BRANCH   4   5
HETATM    5  C4  UNL     1      37.372  35.598  -7.026  1.00  0.00    -0.035 A 
HETATM    6  C5  UNL     1      37.400  35.332  -5.673  1.00  0.00     0.013 A 
HETATM    7  C6  UNL     1      36.689  34.303  -5.073  1.00  0.00     0.030 A 
HETATM    8  C7  UNL     1      35.900  33.478  -5.838  1.00  0.00     0.032 A 
HETATM    9  C15 UNL     1      35.867  33.746  -7.220  1.00  0.00     0.030 A 
HETATM   10  C16 UNL     1      36.581  34.774  -7.793  1.00  0.00     0.013 A 
BRANCH   8  11
HETATM   11  N2  UNL     1      35.154  32.392  -5.351  1.00  0.00    -0.356 N 
ATOM     12  H2  UNL     1      34.714  31.770  -6.029  1.00  0.00     0.166 HD
BRANCH  11  13
HETATM   13  C8  UNL     1      34.977  32.108  -3.984  1.00  0.00     0.032 A 
HETATM   14  C9  UNL     1      36.092  31.638  -3.257  1.00  0.00     0.030 A 
HETATM   15  C10 UNL     1      35.991  31.376  -1.918  1.00  0.00     0.017 A 
HETATM   16  C11 UNL     1      34.792  31.558  -1.206  1.00  0.00     0.006 A 
HETATM   17  C13 UNL     1      33.729  32.013  -1.929  1.00  0.00     0.017 A 
HETATM   18  C14 UNL     1      33.811  32.284  -3.281  1.00  0.00     0.030 A 
BRANCH  16  19
HETATM   19  C12 UNL     1      34.767  31.256   0.217  1.00  0.00     0.140 C 
HETATM   20  N3  UNL     1      36.032  31.350   0.918  1.00  0.00    -0.080 NA
HETATM   21  N4  UNL     1      33.783  30.923   0.921  1.00  0.00    -0.294 N 
ATOM     22  H4  UNL     1      34.037  30.767   1.896  1.00  0.00     0.187 HD
BRANCH  21  23
HETATM   23  N5  UNL     1      32.459  30.720   0.689  1.00  0.00    -0.344 N 
ATOM     24  H52 UNL     1      32.260  30.699  -0.312  1.00  0.00     0.176 HD
ATOM     25  H51 UNL     1      31.636  30.586   1.275  1.00  0.00     0.176 HD
ENDBRANCH  21  23
ENDBRANCH  16  19
ENDBRANCH  11  13
ENDBRANCH   8  11
ENDBRANCH   4   5
TORSDOF 5
ENDMDL
MODEL 5
REMARK VINA RESULT: -7.323226646      4.686      9.587
REMARK  5 active torsions:
REMARK  status: ('A' for Active; 'I' for Inactive)
REMARK    1  A    between atoms: C3_4  and  C4_5 
REMARK    2  A    between atoms: C7_8  and  N2_9 
REMARK    3  A    between atoms: N2_9  and  C8_11 
REMARK    4  A    between atoms: C11_14  and  C12_15 
REMARK    5  A    between atoms: N4_17  and  N5_19 
ROOT
HETATM    1  N1  UNL     1      33.642  31.145  -0.202  1.00  0.00    -0.192 NA
HETATM    2  C1  UNL     1      33.746  31.614  -1.269  1.00  0.00     0.087 C 
HETATM    3  C2  UNL     1      33.874  32.208  -2.561  1.00  0.00     0.094 C 
HETATM    4  C3  UNL     1      35.014  32.738  -2.919  1.00  0.00     0.022 C 
ENDROOT
BRANCH   4   5
HETATM    5  C4  UNL     1      35.280  33.376  -4.207  1.00  0.00    -0.035 A 
HETATM    6  C5  UNL     1      35.479  34.739  -4.286  1.00  0.00     0.013 A 
HETATM    7  C6  UNL     1      35.735  35.414  -5.471  1.00  0.00     0.030 A 
HETATM    8  C7  UNL     1      35.802  34.720  -6.655  1.00  0.00     0.032 A 
HETATM    9  C15 UNL     1      35.599  33.329  -6.579  1.00  0.00     0.030 A 
HETATM   10  C16 UNL     1      35.347  32.680  -5.391  1.00  0.00     0.013 A 
BRANCH   8  11
HETATM   11  N2  UNL     1      36.030  35.294  -7.917  1.00  0.00    -0.356 N 
ATOM     12  H2  UNL     1      35.225  35.457  -8.521  1.00  0.00     0.166 HD
BRANCH  11  13
HETATM   13  C8  UNL     1      37.301  35.656  -8.399  1.00  0.00     0.032 A 
HETATM   14  C9  UNL     1      37.632  35.301  -9.724  1.00  0.00     0.030 A 
HETATM   15  C10 UNL     1      38.840  35.655 -10.260  1.00  0.00     0.017 A 
HETATM   16  C11 UNL     1      39.800  36.380  -9.533  1.00  0.00     0.006 A 
HETATM   17  C13 UNL     1      39.459  36.712  -8.255  1.00  0.00     0.017 A 
HETATM   18  C14 UNL     1      38.244  36.365  -7.695  1.00  0.00     0.030 A 
BRANCH  16  19
HETATM   19  C12 UNL     1      41.061  36.717 -10.175  1.00  0.00     0.140 C 
HETATM   20  N3  UNL     1      41.099  37.970 -10.901  1.00  0.00    -0.080 NA
HETATM   21  N4  UNL     1      42.128  36.057 -10.181  1.00  0.00    -0.294 N 
ATOM     22  H4  UNL     1      42.869  36.519 -10.708  1.00  0.00     0.187 HD
BRANCH  21  23
HETATM   23  N5  UNL     1      42.529  34.871  -9.650  1.00  0.00    -0.344 N 
ATOM     24  H52 UNL     1      42.556  34.141 -10.362  1.00  0.00     0.176 HD
ATOM     25  H51 UNL     1      42.803  34.552  -8.721  1.00  0.00     0.176 HD
ENDBRANCH  21  23
ENDBRANCH  16  19
ENDBRANCH  11  13
ENDBRANCH   8  11
ENDBRANCH   4   5
TORSDOF 5
ENDMDL
