MODEL 1
REMARK VINA RESULT: -5.678759737      0.000      0.000
REMARK  3 active torsions:
REMARK  status: ('A' for Active; 'I' for Inactive)
REMARK    1  A    between atoms: O1_2  and  C2_3 
REMARK    2  A    between atoms: C3_4  and  C4_5 
REMARK    3  A    between atoms: C4_5  and  O2_6 
ROOT
HETATM    1  C2  UNL     1      -2.894   4.479  12.385  1.00  0.00     0.168 C 
HETATM    2  C3  UNL     1      -4.271   3.860  12.181  1.00  0.00     0.134 C 
HETATM    3  C5  UNL     1      -4.603   3.556  13.614  1.00  0.00     0.291 C 
HETATM    4  O3  UNL     1      -4.351   2.222  13.938  1.00  0.00    -0.330 OA
HETATM    5  C6  UNL     1      -4.967   2.103  15.203  1.00  0.00     0.200 C 
HETATM    6  C7  UNL     1      -5.917   3.281  15.284  1.00  0.00     0.200 C 
HETATM    7  O4  UNL     1      -5.929   3.690  13.929  1.00  0.00    -0.330 OA
HETATM    8  O5  UNL     1      -3.857   4.383  14.417  1.00  0.00    -0.319 OA
HETATM    9  C8  UNL     1      -3.204   5.302  13.634  1.00  0.00     0.086 C 
HETATM   10  C9  UNL     1      -4.151   6.434  13.325  1.00  0.00     0.048 C 
HETATM   11  C10 UNL     1      -1.920   5.806  14.223  1.00  0.00     0.048 C 
ENDROOT
BRANCH   2  12
HETATM   12  C4  UNL     1      -4.190   2.622  11.322  1.00  0.00     0.179 C 
BRANCH  12  13
HETATM   13  O2  UNL     1      -5.465   2.169  11.068  1.00  0.00    -0.400 OA
ATOM     14  H2  UNL     1      -5.418   1.274  10.754  1.00  0.00     0.209 HD
ENDBRANCH  12  13
ENDBRANCH   2  12
BRANCH   1  15
HETATM   15  O1  UNL     1      -2.053   3.463  12.770  1.00  0.00    -0.387 OA
HETATM   16  C1  UNL     1      -0.859   3.422  12.093  1.00  0.00     0.202 C 
ENDBRANCH   1  15
TORSDOF 3
ENDMDL
MODEL 2
REMARK VINA RESULT: -5.428705131      1.816      3.187
REMARK  3 active torsions:
REMARK  status: ('A' for Active; 'I' for Inactive)
REMARK    1  A    between atoms: O1_2  and  C2_3 
REMARK    2  A    between atoms: C3_4  and  C4_5 
REMARK    3  A    between atoms: C4_5  and  O2_6 
ROOT
HETATM    1  C2  UNL     1      -2.828   5.528  12.071  1.00  0.00     0.168 C 
HETATM    2  C3  UNL     1      -2.266   4.232  11.499  1.00  0.00     0.134 C 
HETATM    3  C5  UNL     1      -3.473   3.357  11.677  1.00  0.00     0.291 C 
HETATM    4  O3  UNL     1      -3.384   2.570  12.827  1.00  0.00    -0.330 OA
HETATM    5  C6  UNL     1      -4.458   1.668  12.653  1.00  0.00     0.200 C 
HETATM    6  C7  UNL     1      -4.790   1.743  11.175  1.00  0.00     0.200 C 
HETATM    7  O4  UNL     1      -3.646   2.421  10.693  1.00  0.00    -0.330 OA
HETATM    8  O5  UNL     1      -4.585   4.160  11.744  1.00  0.00    -0.319 OA
HETATM    9  C8  UNL     1      -4.225   5.453  11.457  1.00  0.00     0.086 C 
HETATM   10  C9  UNL     1      -4.177   5.622   9.960  1.00  0.00     0.048 C 
HETATM   11  C10 UNL     1      -5.100   6.489  12.097  1.00  0.00     0.048 C 
ENDROOT
BRANCH   2  12
HETATM   12  C4  UNL     1      -1.075   3.758  12.294  1.00  0.00     0.179 C 
BRANCH  12  13
HETATM   13  O2  UNL     1      -0.823   2.441  11.980  1.00  0.00    -0.400 OA
ATOM     14  H2  UNL     1       0.116   2.313  11.917  1.00  0.00     0.209 HD
ENDBRANCH  12  13
ENDBRANCH   2  12
BRANCH   1  15
HETATM   15  O1  UNL     1      -2.972   5.337  13.424  1.00  0.00    -0.387 OA
HETATM   16  C1  UNL     1      -2.313   6.257  14.204  1.00  0.00     0.202 C 
ENDBRANCH   1  15
TORSDOF 3
ENDMDL
MODEL 3
REMARK VINA RESULT: -5.289658252      1.866      3.800
REMARK  3 active torsions:
REMARK  status: ('A' for Active; 'I' for Inactive)
REMARK    1  A    between atoms: O1_2  and  C2_3 
REMARK    2  A    between atoms: C3_4  and  C4_5 
REMARK    3  A    between atoms: C4_5  and  O2_6 
ROOT
HETATM    1  C2  UNL     1      -3.641   3.439  13.115  1.00  0.00     0.168 C 
HETATM    2  C3  UNL     1      -3.539   2.779  11.746  1.00  0.00     0.134 C 
HETATM    3  C5  UNL     1      -3.480   4.016  10.896  1.00  0.00     0.291 C 
HETATM    4  O3  UNL     1      -4.724   4.335  10.349  1.00  0.00    -0.330 OA
HETATM    5  C6  UNL     1      -4.387   5.333   9.408  1.00  0.00     0.200 C 
HETATM    6  C7  UNL     1      -2.896   5.170   9.187  1.00  0.00     0.200 C 
HETATM    7  O4  UNL     1      -2.690   3.904   9.784  1.00  0.00    -0.330 OA
HETATM    8  O5  UNL     1      -3.029   5.055  11.673  1.00  0.00    -0.319 OA
HETATM    9  C8  UNL     1      -2.634   4.566  12.893  1.00  0.00     0.086 C 
HETATM   10  C9  UNL     1      -1.229   4.033  12.769  1.00  0.00     0.048 C 
HETATM   11  C10 UNL     1      -2.747   5.555  14.015  1.00  0.00     0.048 C 
ENDROOT
BRANCH   2  12
HETATM   12  C4  UNL     1      -4.751   1.928  11.460  1.00  0.00     0.179 C 
BRANCH  12  13
HETATM   13  O2  UNL     1      -4.639   1.400  10.192  1.00  0.00    -0.400 OA
ATOM     14  H2  UNL     1      -3.808   0.944  10.120  1.00  0.00     0.209 HD
ENDBRANCH  12  13
ENDBRANCH   2  12
BRANCH   1  15
HETATM   15  O1  UNL     1      -4.885   4.018  13.188  1.00  0.00    -0.387 OA
HETATM   16  C1  UNL     1      -5.567   3.762  14.352  1.00  0.00     0.202 C 
ENDBRANCH   1  15
TORSDOF 3
ENDMDL
MODEL 4
REMARK VINA RESULT: -5.224754844      1.194      1.219
REMARK  3 active torsions:
REMARK  status: ('A' for Active; 'I' for Inactive)
REMARK    1  A    between atoms: O1_2  and  C2_3 
REMARK    2  A    between atoms: C3_4  and  C4_5 
REMARK    3  A    between atoms: C4_5  and  O2_6 
ROOT
HETATM    1  C2  UNL     1      -3.546   4.450  12.905  1.00  0.00     0.168 C 
HETATM    2  C3  UNL     1      -4.576   3.331  12.981  1.00  0.00     0.134 C 
HETATM    3  C5  UNL     1      -4.806   3.327  14.465  1.00  0.00     0.291 C 
HETATM    4  O3  UNL     1      -4.072   2.327  15.105  1.00  0.00    -0.330 OA
HETATM    5  C6  UNL     1      -4.630   2.334  16.403  1.00  0.00     0.200 C 
HETATM    6  C7  UNL     1      -5.960   3.046  16.249  1.00  0.00     0.200 C 
HETATM    7  O4  UNL     1      -6.090   3.036  14.840  1.00  0.00    -0.330 OA
HETATM    8  O5  UNL     1      -4.453   4.558  14.962  1.00  0.00    -0.319 OA
HETATM    9  C8  UNL     1      -4.180   5.404  13.917  1.00  0.00     0.086 C 
HETATM   10  C9  UNL     1      -5.478   5.970  13.400  1.00  0.00     0.048 C 
HETATM   11  C10 UNL     1      -3.201   6.491  14.249  1.00  0.00     0.048 C 
ENDROOT
BRANCH   2  12
HETATM   12  C4  UNL     1      -4.006   2.031  12.472  1.00  0.00     0.179 C 
BRANCH  12  13
HETATM   13  O2  UNL     1      -4.821   0.996  12.876  1.00  0.00    -0.400 OA
ATOM     14  H2  UNL     1      -5.031   1.110  13.796  1.00  0.00     0.209 HD
ENDBRANCH  12  13
ENDBRANCH   2  12
BRANCH   1  15
HETATM   15  O1  UNL     1      -2.391   3.969  13.474  1.00  0.00    -0.387 OA
HETATM   16  C1  UNL     1      -1.269   4.107  12.694  1.00  0.00     0.202 C 
ENDBRANCH   1  15
TORSDOF 3
ENDMDL
MODEL 5
REMARK VINA RESULT: -5.161160079      1.665      4.029
REMARK  3 active torsions:
REMARK  status: ('A' for Active; 'I' for Inactive)
REMARK    1  A    between atoms: O1_2  and  C2_3 
REMARK    2  A    between atoms: C3_4  and  C4_5 
REMARK    3  A    between atoms: C4_5  and  O2_6 
ROOT
HETATM    1  C2  UNL     1      -5.536   4.463  15.643  1.00  0.00     0.168 C 
HETATM    2  C3  UNL     1      -4.299   3.579  15.560  1.00  0.00     0.134 C 
HETATM    3  C5  UNL     1      -4.373   3.212  14.105  1.00  0.00     0.291 C 
HETATM    4  O3  UNL     1      -4.951   1.956  13.911  1.00  0.00    -0.330 OA
HETATM    5  C6  UNL     1      -4.679   1.713  12.546  1.00  0.00     0.200 C 
HETATM    6  C7  UNL     1      -3.561   2.675  12.196  1.00  0.00     0.200 C 
HETATM    7  O4  UNL     1      -3.157   3.074  13.492  1.00  0.00    -0.330 OA
HETATM    8  O5  UNL     1      -5.107   4.172  13.453  1.00  0.00    -0.319 OA
HETATM    9  C8  UNL     1      -5.368   5.204  14.318  1.00  0.00     0.086 C 
HETATM   10  C9  UNL     1      -4.172   6.123  14.349  1.00  0.00     0.048 C 
HETATM   11  C10 UNL     1      -6.628   5.957  14.011  1.00  0.00     0.048 C 
ENDROOT
BRANCH   2  12
HETATM   12  C4  UNL     1      -4.421   2.384  16.473  1.00  0.00     0.179 C 
BRANCH  12  13
HETATM   13  O2  UNL     1      -3.230   1.693  16.467  1.00  0.00    -0.400 OA
ATOM     14  H2  UNL     1      -2.988   1.487  17.363  1.00  0.00     0.209 HD
ENDBRANCH  12  13
ENDBRANCH   2  12
BRANCH   1  15
HETATM   15  O1  UNL     1      -6.627   3.638  15.507  1.00  0.00    -0.387 OA
HETATM   16  C1  UNL     1      -7.250   3.316  16.687  1.00  0.00     0.202 C 
ENDBRANCH   1  15
TORSDOF 3
ENDMDL
