MODEL 1
REMARK VINA RESULT: -5.895859400      0.000      0.000
REMARK  5 active torsions:
REMARK  status: ('A' for Active; 'I' for Inactive)
REMARK    1  A    between atoms: O1_2  and  C2_3 
REMARK    2  A    between atoms: C2_3  and  C3_4 
REMARK    3  A    between atoms: C5_6  and  O2_7 
REMARK    4  A    between atoms: C8_14  and  C9_15 
REMARK    5  A    between atoms: C9_15  and  O6_16 
ROOT
HETATM    1  C3  UNL     1      -5.479   4.691  15.309  1.00  0.00     0.027 C 
HETATM    2  C4  UNL     1      -5.999   3.475  14.551  1.00  0.00     0.076 C 
HETATM    3  C5  UNL     1      -4.615   2.914  14.605  1.00  0.00     0.169 C 
HETATM    4  O3  UNL     1      -4.074   2.427  13.459  1.00  0.00    -0.352 OA
HETATM    5  C6  UNL     1      -3.947   3.275  12.404  1.00  0.00     0.209 C 
HETATM    6  C7  UNL     1      -3.433   4.633  12.693  1.00  0.00     0.224 C 
HETATM    7  O4  UNL     1      -4.367   5.681  12.615  1.00  0.00    -0.229 OA
HETATM    8  O5  UNL     1      -3.773   6.186  13.690  1.00  0.00    -0.223 OA
HETATM    9  C8  UNL     1      -3.245   4.965  14.125  1.00  0.00     0.157 C 
HETATM   10  C10 UNL     1      -4.063   4.211  15.089  1.00  0.00     0.097 C 
ENDROOT
BRANCH   1  11
HETATM   11  C2  UNL     1      -5.922   4.740  16.747  1.00  0.00     0.172 C 
BRANCH  11  12
HETATM   12  O1  UNL     1      -6.761   3.701  17.103  1.00  0.00    -0.396 OA
HETATM   13  C1  UNL     1      -6.416   3.084  18.279  1.00  0.00     0.201 C 
ENDBRANCH  11  12
ENDBRANCH   1  11
BRANCH   3  14
HETATM   14  O2  UNL     1      -4.534   1.954  15.618  1.00  0.00    -0.365 OA
ATOM     15  H2  UNL     1      -3.856   2.198  16.238  1.00  0.00     0.213 HD
ENDBRANCH   3  14
BRANCH   9  16
HETATM   16  C9  UNL     1      -1.774   5.021  14.483  1.00  0.00     0.209 C 
BRANCH  16  17
HETATM   17  O6  UNL     1      -1.476   4.031  15.400  1.00  0.00    -0.398 OA
ATOM     18  H6  UNL     1      -0.534   3.959  15.503  1.00  0.00     0.209 HD
ENDBRANCH  16  17
ENDBRANCH   9  16
TORSDOF 5
ENDMDL
MODEL 2
REMARK VINA RESULT: -5.885216435      1.828      3.387
REMARK  5 active torsions:
REMARK  status: ('A' for Active; 'I' for Inactive)
REMARK    1  A    between atoms: O1_2  and  C2_3 
REMARK    2  A    between atoms: C2_3  and  C3_4 
REMARK    3  A    between atoms: C5_6  and  O2_7 
REMARK    4  A    between atoms: C8_14  and  C9_15 
REMARK    5  A    between atoms: C9_15  and  O6_16 
ROOT
HETATM    1  C3  UNL     1      -4.017   2.658  14.748  1.00  0.00     0.027 C 
HETATM    2  C4  UNL     1      -4.021   4.182  14.767  1.00  0.00     0.076 C 
HETATM    3  C5  UNL     1      -5.031   4.141  13.665  1.00  0.00     0.169 C 
HETATM    4  O3  UNL     1      -4.828   4.928  12.578  1.00  0.00    -0.352 OA
HETATM    5  C6  UNL     1      -3.686   4.746  11.863  1.00  0.00     0.209 C 
HETATM    6  C7  UNL     1      -3.288   3.348  11.582  1.00  0.00     0.224 C 
HETATM    7  O4  UNL     1      -2.174   2.865  12.291  1.00  0.00    -0.229 OA
HETATM    8  O5  UNL     1      -2.840   1.720  12.403  1.00  0.00    -0.223 OA
HETATM    9  C8  UNL     1      -4.104   2.296  12.233  1.00  0.00     0.157 C 
HETATM   10  C10 UNL     1      -4.813   2.680  13.464  1.00  0.00     0.097 C 
ENDROOT
BRANCH   1  11
HETATM   11  C2  UNL     1      -4.719   2.038  15.927  1.00  0.00     0.172 C 
BRANCH  11  12
HETATM   12  O1  UNL     1      -6.073   1.846  15.725  1.00  0.00    -0.396 OA
HETATM   13  C1  UNL     1      -6.828   1.967  16.864  1.00  0.00     0.201 C 
ENDBRANCH  11  12
ENDBRANCH   1  11
BRANCH   3  14
HETATM   14  O2  UNL     1      -6.308   4.365  14.187  1.00  0.00    -0.365 OA
ATOM     15  H2  UNL     1      -6.932   4.465  13.478  1.00  0.00     0.213 HD
ENDBRANCH   3  14
BRANCH   9  16
HETATM   16  C9  UNL     1      -4.978   1.581  11.222  1.00  0.00     0.209 C 
BRANCH  16  17
HETATM   17  O6  UNL     1      -4.831   0.215  11.357  1.00  0.00    -0.398 OA
ATOM     18  H6  UNL     1      -4.816  -0.195  10.501  1.00  0.00     0.209 HD
ENDBRANCH  16  17
ENDBRANCH   9  16
TORSDOF 5
ENDMDL
MODEL 3
REMARK VINA RESULT: -5.883870203      1.604      2.832
REMARK  5 active torsions:
REMARK  status: ('A' for Active; 'I' for Inactive)
REMARK    1  A    between atoms: O1_2  and  C2_3 
REMARK    2  A    between atoms: C2_3  and  C3_4 
REMARK    3  A    between atoms: C5_6  and  O2_7 
REMARK    4  A    between atoms: C8_14  and  C9_15 
REMARK    5  A    between atoms: C9_15  and  O6_16 
ROOT
HETATM    1  C3  UNL     1      -4.184   3.685  15.611  1.00  0.00     0.027 C 
HETATM    2  C4  UNL     1      -5.065   4.928  15.647  1.00  0.00     0.076 C 
HETATM    3  C5  UNL     1      -5.456   4.628  14.235  1.00  0.00     0.169 C 
HETATM    4  O3  UNL     1      -5.409   5.635  13.327  1.00  0.00    -0.352 OA
HETATM    5  C6  UNL     1      -4.214   6.250  13.118  1.00  0.00     0.209 C 
HETATM    6  C7  UNL     1      -3.024   5.378  12.999  1.00  0.00     0.224 C 
HETATM    7  O4  UNL     1      -2.130   5.395  14.083  1.00  0.00    -0.229 OA
HETATM    8  O5  UNL     1      -2.013   4.083  13.908  1.00  0.00    -0.223 OA
HETATM    9  C8  UNL     1      -3.246   3.936  13.260  1.00  0.00     0.157 C 
HETATM   10  C10 UNL     1      -4.392   3.591  14.117  1.00  0.00     0.097 C 
ENDROOT
BRANCH   1  11
HETATM   11  C2  UNL     1      -4.733   2.532  16.408  1.00  0.00     0.172 C 
BRANCH  11  12
HETATM   12  O1  UNL     1      -3.892   1.436  16.448  1.00  0.00    -0.396 OA
HETATM   13  C1  UNL     1      -4.432   0.300  15.902  1.00  0.00     0.201 C 
ENDBRANCH  11  12
ENDBRANCH   1  11
BRANCH   3  14
HETATM   14  O2  UNL     1      -6.716   4.022  14.213  1.00  0.00    -0.365 OA
ATOM     15  H2  UNL     1      -6.722   3.316  13.577  1.00  0.00     0.213 HD
ENDBRANCH   3  14
BRANCH   9  16
HETATM   16  C9  UNL     1      -3.178   3.133  11.978  1.00  0.00     0.209 C 
BRANCH  16  17
HETATM   17  O6  UNL     1      -2.927   1.805  12.267  1.00  0.00    -0.398 OA
ATOM     18  H6  UNL     1      -3.354   1.566  13.081  1.00  0.00     0.209 HD
ENDBRANCH  16  17
ENDBRANCH   9  16
TORSDOF 5
ENDMDL
MODEL 4
REMARK VINA RESULT: -5.771331714      1.500      2.950
REMARK  5 active torsions:
REMARK  status: ('A' for Active; 'I' for Inactive)
REMARK    1  A    between atoms: O1_2  and  C2_3 
REMARK    2  A    between atoms: C2_3  and  C3_4 
REMARK    3  A    between atoms: C5_6  and  O2_7 
REMARK    4  A    between atoms: C8_14  and  C9_15 
REMARK    5  A    between atoms: C9_15  and  O6_16 
ROOT
HETATM    1  C3  UNL     1      -5.734   3.922  16.208  1.00  0.00     0.027 C 
HETATM    2  C4  UNL     1      -5.789   5.433  16.013  1.00  0.00     0.076 C 
HETATM    3  C5  UNL     1      -5.926   5.187  14.545  1.00  0.00     0.169 C 
HETATM    4  O3  UNL     1      -5.129   5.886  13.699  1.00  0.00    -0.352 OA
HETATM    5  C6  UNL     1      -3.782   5.757  13.837  1.00  0.00     0.209 C 
HETATM    6  C7  UNL     1      -3.259   4.387  14.043  1.00  0.00     0.224 C 
HETATM    7  O4  UNL     1      -2.788   4.088  15.333  1.00  0.00    -0.229 OA
HETATM    8  O5  UNL     1      -3.355   2.897  15.180  1.00  0.00    -0.223 OA
HETATM    9  C8  UNL     1      -4.275   3.322  14.214  1.00  0.00     0.157 C 
HETATM   10  C10 UNL     1      -5.593   3.744  14.714  1.00  0.00     0.097 C 
ENDROOT
BRANCH   1  11
HETATM   11  C2  UNL     1      -6.990   3.345  16.806  1.00  0.00     0.172 C 
BRANCH  11  12
HETATM   12  O1  UNL     1      -7.217   2.029  16.451  1.00  0.00    -0.396 OA
HETATM   13  C1  UNL     1      -7.084   1.141  17.487  1.00  0.00     0.201 C 
ENDBRANCH  11  12
ENDBRANCH   1  11
BRANCH   3  14
HETATM   14  O2  UNL     1      -7.265   5.326  14.166  1.00  0.00    -0.365 OA
ATOM     15  H2  UNL     1      -7.314   5.656  13.277  1.00  0.00     0.213 HD
ENDBRANCH   3  14
BRANCH   9  16
HETATM   16  C9  UNL     1      -4.342   2.431  12.990  1.00  0.00     0.209 C 
BRANCH  16  17
HETATM   17  O6  UNL     1      -4.482   1.112  13.376  1.00  0.00    -0.398 OA
ATOM     18  H6  UNL     1      -4.783   0.590  12.642  1.00  0.00     0.209 HD
ENDBRANCH  16  17
ENDBRANCH   9  16
TORSDOF 5
ENDMDL
MODEL 5
REMARK VINA RESULT: -5.730819997      1.825      3.511
REMARK  5 active torsions:
REMARK  status: ('A' for Active; 'I' for Inactive)
REMARK    1  A    between atoms: O1_2  and  C2_3 
REMARK    2  A    between atoms: C2_3  and  C3_4 
REMARK    3  A    between atoms: C5_6  and  O2_7 
REMARK    4  A    between atoms: C8_14  and  C9_15 
REMARK    5  A    between atoms: C9_15  and  O6_16 
ROOT
HETATM    1  C3  UNL     1      -4.196   3.296  14.440  1.00  0.00     0.027 C 
HETATM    2  C4  UNL     1      -3.817   4.760  14.627  1.00  0.00     0.076 C 
HETATM    3  C5  UNL     1      -4.453   5.040  13.304  1.00  0.00     0.169 C 
HETATM    4  O3  UNL     1      -3.761   5.780  12.401  1.00  0.00    -0.352 OA
HETATM    5  C6  UNL     1      -2.551   5.316  11.990  1.00  0.00     0.209 C 
HETATM    6  C7  UNL     1      -2.460   3.874  11.668  1.00  0.00     0.224 C 
HETATM    7  O4  UNL     1      -1.751   3.076  12.583  1.00  0.00    -0.229 OA
HETATM    8  O5  UNL     1      -2.690   2.157  12.390  1.00  0.00    -0.223 OA
HETATM    9  C8  UNL     1      -3.666   3.065  11.964  1.00  0.00     0.157 C 
HETATM   10  C10 UNL     1      -4.568   3.584  13.004  1.00  0.00     0.097 C 
ENDROOT
BRANCH   1  11
HETATM   11  C2  UNL     1      -5.334   2.851  15.320  1.00  0.00     0.172 C 
BRANCH  11  12
HETATM   12  O1  UNL     1      -5.474   1.477  15.390  1.00  0.00    -0.396 OA
HETATM   13  C1  UNL     1      -4.730   0.891  16.381  1.00  0.00     0.201 C 
ENDBRANCH  11  12
ENDBRANCH   1  11
BRANCH   3  14
HETATM   14  O2  UNL     1      -5.725   5.588  13.498  1.00  0.00    -0.365 OA
ATOM     15  H2  UNL     1      -6.312   5.287  12.815  1.00  0.00     0.213 HD
ENDBRANCH   3  14
BRANCH   9  16
HETATM   16  C9  UNL     1      -4.375   2.657  10.688  1.00  0.00     0.209 C 
BRANCH  16  17
HETATM   17  O6  UNL     1      -5.495   1.909  10.992  1.00  0.00    -0.398 OA
ATOM     18  H6  UNL     1      -6.265   2.465  10.995  1.00  0.00     0.209 HD
ENDBRANCH  16  17
ENDBRANCH   9  16
TORSDOF 5
ENDMDL
