MODEL 1
REMARK VINA RESULT: -6.554313888      0.000      0.000
REMARK  3 active torsions:
REMARK  status: ('A' for Active; 'I' for Inactive)
REMARK    1  A    between atoms: C7_9  and  O3_10 
REMARK    2  A    between atoms: C8_12  and  C9_13 
REMARK    3  A    between atoms: C9_13  and  O4_14 
ROOT
HETATM    1  C1  UNL     1      -2.419   4.116  10.982  1.00  0.00     0.059 C 
HETATM    2  C2  UNL     1      -3.622   3.357  11.492  1.00  0.00     0.220 C 
HETATM    3  O1  UNL     1      -4.236   2.627  10.488  1.00  0.00    -0.365 OA
HETATM    4  C3  UNL     1      -4.491   1.366  10.953  1.00  0.00     0.220 C 
HETATM    5  C4  UNL     1      -4.447   1.531  12.457  1.00  0.00     0.251 C 
HETATM    6  O2  UNL     1      -5.464   2.336  12.935  1.00  0.00    -0.329 OA
HETATM    7  C5  UNL     1      -4.844   2.991  13.994  1.00  0.00     0.196 C 
HETATM    8  C6  UNL     1      -5.329   4.366  14.301  1.00  0.00     0.103 C 
HETATM    9  C7  UNL     1      -6.250   3.764  15.352  1.00  0.00     0.134 C 
HETATM   10  C8  UNL     1      -5.356   2.525  15.314  1.00  0.00     0.102 C 
HETATM   11  O5  UNL     1      -3.492   2.957  13.783  1.00  0.00    -0.258 OA
HETATM   12  N1  UNL     1      -3.298   2.448  12.562  1.00  0.00    -0.133 NA
ENDROOT
BRANCH  10  13
HETATM   13  C9  UNL     1      -4.405   2.537  16.463  1.00  0.00     0.176 C 
BRANCH  13  14
HETATM   14  O4  UNL     1      -3.748   1.311  16.500  1.00  0.00    -0.400 OA
ATOM     15  H4  UNL     1      -2.863   1.456  16.812  1.00  0.00     0.209 HD
ENDBRANCH  13  14
ENDBRANCH  10  13
BRANCH   9  16
HETATM   16  O3  UNL     1      -6.184   4.491  16.517  1.00  0.00    -0.395 OA
ATOM     17  H3  UNL     1      -6.862   4.209  17.121  1.00  0.00     0.210 HD
ENDBRANCH   9  16
TORSDOF 3
ENDMDL
MODEL 2
REMARK VINA RESULT: -6.440894139      1.028      1.048
REMARK  3 active torsions:
REMARK  status: ('A' for Active; 'I' for Inactive)
REMARK    1  A    between atoms: C7_9  and  O3_10 
REMARK    2  A    between atoms: C8_12  and  C9_13 
REMARK    3  A    between atoms: C9_13  and  O4_14 
ROOT
HETATM    1  C1  UNL     1      -2.679   5.305  12.217  1.00  0.00     0.059 C 
HETATM    2  C2  UNL     1      -3.808   4.318  12.396  1.00  0.00     0.220 C 
HETATM    3  O1  UNL     1      -4.353   3.930  11.183  1.00  0.00    -0.365 OA
HETATM    4  C3  UNL     1      -4.492   2.570  11.176  1.00  0.00     0.220 C 
HETATM    5  C4  UNL     1      -4.462   2.206  12.645  1.00  0.00     0.251 C 
HETATM    6  O2  UNL     1      -5.548   2.705  13.340  1.00  0.00    -0.329 OA
HETATM    7  C5  UNL     1      -4.990   3.003  14.578  1.00  0.00     0.196 C 
HETATM    8  C6  UNL     1      -5.598   4.140  15.326  1.00  0.00     0.103 C 
HETATM    9  C7  UNL     1      -6.460   3.134  16.076  1.00  0.00     0.134 C 
HETATM   10  C8  UNL     1      -5.456   2.067  15.640  1.00  0.00     0.102 C 
HETATM   11  O5  UNL     1      -3.641   3.160  14.410  1.00  0.00    -0.258 OA
HETATM   12  N1  UNL     1      -3.402   3.125  13.096  1.00  0.00    -0.133 NA
ENDROOT
BRANCH  10  13
HETATM   13  C9  UNL     1      -4.510   1.761  16.751  1.00  0.00     0.176 C 
BRANCH  13  14
HETATM   14  O4  UNL     1      -3.730   0.673  16.375  1.00  0.00    -0.400 OA
ATOM     15  H4  UNL     1      -4.246  -0.117  16.484  1.00  0.00     0.209 HD
ENDBRANCH  13  14
ENDBRANCH  10  13
BRANCH   9  16
HETATM   16  O3  UNL     1      -6.460   3.415  17.421  1.00  0.00    -0.395 OA
ATOM     17  H3  UNL     1      -5.595   3.274  17.788  1.00  0.00     0.210 HD
ENDBRANCH   9  16
TORSDOF 3
ENDMDL
MODEL 3
REMARK VINA RESULT: -6.360192333      1.770      2.085
REMARK  3 active torsions:
REMARK  status: ('A' for Active; 'I' for Inactive)
REMARK    1  A    between atoms: C7_9  and  O3_10 
REMARK    2  A    between atoms: C8_12  and  C9_13 
REMARK    3  A    between atoms: C9_13  and  O4_14 
ROOT
HETATM    1  C1  UNL     1      -2.163   6.204  13.959  1.00  0.00     0.059 C 
HETATM    2  C2  UNL     1      -3.311   5.272  13.651  1.00  0.00     0.220 C 
HETATM    3  O1  UNL     1      -3.658   5.304  12.311  1.00  0.00    -0.365 OA
HETATM    4  C3  UNL     1      -3.800   4.020  11.862  1.00  0.00     0.220 C 
HETATM    5  C4  UNL     1      -4.008   3.223  13.133  1.00  0.00     0.251 C 
HETATM    6  O2  UNL     1      -5.188   3.545  13.776  1.00  0.00    -0.329 OA
HETATM    7  C5  UNL     1      -4.834   3.420  15.115  1.00  0.00     0.196 C 
HETATM    8  C6  UNL     1      -5.547   4.306  16.078  1.00  0.00     0.103 C 
HETATM    9  C7  UNL     1      -6.523   3.168  16.341  1.00  0.00     0.134 C 
HETATM   10  C8  UNL     1      -5.468   2.231  15.752  1.00  0.00     0.102 C 
HETATM   11  O5  UNL     1      -3.474   3.548  15.209  1.00  0.00    -0.258 OA
HETATM   12  N1  UNL     1      -3.029   3.902  14.000  1.00  0.00    -0.133 NA
ENDROOT
BRANCH  10  13
HETATM   13  C9  UNL     1      -4.713   1.550  16.842  1.00  0.00     0.176 C 
BRANCH  13  14
HETATM   14  O4  UNL     1      -3.862   0.613  16.266  1.00  0.00    -0.400 OA
ATOM     15  H4  UNL     1      -3.219   1.076  15.741  1.00  0.00     0.209 HD
ENDBRANCH  13  14
ENDBRANCH  10  13
BRANCH   9  16
HETATM   16  O3  UNL     1      -6.737   3.024  17.691  1.00  0.00    -0.395 OA
ATOM     17  H3  UNL     1      -6.997   2.132  17.891  1.00  0.00     0.210 HD
ENDBRANCH   9  16
TORSDOF 3
ENDMDL
MODEL 4
REMARK VINA RESULT: -6.170200513      1.666      4.650
REMARK  3 active torsions:
REMARK  status: ('A' for Active; 'I' for Inactive)
REMARK    1  A    between atoms: C7_9  and  O3_10 
REMARK    2  A    between atoms: C8_12  and  C9_13 
REMARK    3  A    between atoms: C9_13  and  O4_14 
ROOT
HETATM    1  C1  UNL     1      -6.178   5.651  15.897  1.00  0.00     0.059 C 
HETATM    2  C2  UNL     1      -5.327   4.431  15.631  1.00  0.00     0.220 C 
HETATM    3  O1  UNL     1      -5.152   3.665  16.772  1.00  0.00    -0.365 OA
HETATM    4  C3  UNL     1      -5.370   2.352  16.459  1.00  0.00     0.220 C 
HETATM    5  C4  UNL     1      -5.199   2.315  14.956  1.00  0.00     0.251 C 
HETATM    6  O2  UNL     1      -3.906   2.601  14.559  1.00  0.00    -0.329 OA
HETATM    7  C5  UNL     1      -4.112   3.292  13.370  1.00  0.00     0.196 C 
HETATM    8  C6  UNL     1      -3.097   4.325  13.017  1.00  0.00     0.103 C 
HETATM    9  C7  UNL     1      -2.390   3.282  12.164  1.00  0.00     0.134 C 
HETATM   10  C8  UNL     1      -3.699   2.493  12.181  1.00  0.00     0.102 C 
HETATM   11  O5  UNL     1      -5.381   3.803  13.389  1.00  0.00    -0.258 OA
HETATM   12  N1  UNL     1      -5.877   3.576  14.609  1.00  0.00    -0.133 NA
ENDROOT
BRANCH  10  13
HETATM   13  C9  UNL     1      -4.452   2.708  10.913  1.00  0.00     0.176 C 
BRANCH  13  14
HETATM   14  O4  UNL     1      -5.535   1.837  10.893  1.00  0.00    -0.400 OA
ATOM     15  H4  UNL     1      -6.259   2.248  11.350  1.00  0.00     0.209 HD
ENDBRANCH  13  14
ENDBRANCH  10  13
BRANCH   9  16
HETATM   16  O3  UNL     1      -2.051   3.813  10.942  1.00  0.00    -0.395 OA
ATOM     17  H3  UNL     1      -1.106   3.858  10.853  1.00  0.00     0.210 HD
ENDBRANCH   9  16
TORSDOF 3
ENDMDL
MODEL 5
REMARK VINA RESULT: -6.134221256      1.438      2.800
REMARK  3 active torsions:
REMARK  status: ('A' for Active; 'I' for Inactive)
REMARK    1  A    between atoms: C7_9  and  O3_10 
REMARK    2  A    between atoms: C8_12  and  C9_13 
REMARK    3  A    between atoms: C9_13  and  O4_14 
ROOT
HETATM    1  C1  UNL     1      -4.729   0.913  11.320  1.00  0.00     0.059 C 
HETATM    2  C2  UNL     1      -4.019   1.840  12.279  1.00  0.00     0.220 C 
HETATM    3  O1  UNL     1      -2.658   1.897  12.030  1.00  0.00    -0.365 OA
HETATM    4  C3  UNL     1      -2.263   3.206  12.035  1.00  0.00     0.220 C 
HETATM    5  C4  UNL     1      -3.371   3.905  12.794  1.00  0.00     0.251 C 
HETATM    6  O2  UNL     1      -3.439   3.513  14.118  1.00  0.00    -0.329 OA
HETATM    7  C5  UNL     1      -4.807   3.550  14.363  1.00  0.00     0.196 C 
HETATM    8  C6  UNL     1      -5.329   2.582  15.369  1.00  0.00     0.103 C 
HETATM    9  C7  UNL     1      -5.220   3.678  16.420  1.00  0.00     0.134 C 
HETATM   10  C8  UNL     1      -5.183   4.676  15.264  1.00  0.00     0.102 C 
HETATM   11  O5  UNL     1      -5.457   3.445  13.163  1.00  0.00    -0.258 OA
HETATM   12  N1  UNL     1      -4.530   3.187  12.236  1.00  0.00    -0.133 NA
ENDROOT
BRANCH  10  13
HETATM   13  C9  UNL     1      -6.526   5.294  15.069  1.00  0.00     0.176 C 
BRANCH  13  14
HETATM   14  O4  UNL     1      -6.500   6.034  13.892  1.00  0.00    -0.400 OA
ATOM     15  H4  UNL     1      -6.049   5.525  13.228  1.00  0.00     0.209 HD
ENDBRANCH  13  14
ENDBRANCH  10  13
BRANCH   9  16
HETATM   16  O3  UNL     1      -6.361   3.721  17.186  1.00  0.00    -0.395 OA
ATOM     17  H3  UNL     1      -6.210   3.304  18.027  1.00  0.00     0.210 HD
ENDBRANCH   9  16
TORSDOF 3
ENDMDL
