MODEL 1
REMARK VINA RESULT: -5.970425169      0.000      0.000
REMARK  4 active torsions:
REMARK  status: ('A' for Active; 'I' for Inactive)
REMARK    1  A    between atoms: C4_6  and  C5_7 
REMARK    2  A    between atoms: C5_7  and  S1_8 
REMARK    3  A    between atoms: S1_8  and  C6_9 
REMARK    4  A    between atoms: C8_15  and  O4_16 
ROOT
HETATM    1  C1  UNL     1      -6.240   0.949  17.928  1.00  0.00     0.042 C 
HETATM    2  C2  UNL     1      -6.179   1.288  16.471  1.00  0.00     0.152 C 
HETATM    3  O1  UNL     1      -6.612   2.596  16.267  1.00  0.00    -0.351 OA
HETATM    4  C3  UNL     1      -5.576   3.394  16.756  1.00  0.00     0.295 C 
HETATM    5  O2  UNL     1      -5.448   4.594  16.077  1.00  0.00    -0.328 OA
HETATM    6  C4  UNL     1      -4.482   4.430  15.108  1.00  0.00     0.273 C 
HETATM    7  O3  UNL     1      -3.650   3.411  15.466  1.00  0.00    -0.348 OA
HETATM    8  C7  UNL     1      -4.296   2.678  16.455  1.00  0.00     0.211 C 
HETATM    9  C8  UNL     1      -4.764   1.341  15.963  1.00  0.00     0.180 C 
ENDROOT
BRANCH   6  10
HETATM   10  C5  UNL     1      -5.188   4.073  13.823  1.00  0.00     0.140 C 
BRANCH  10  11
HETATM   11  S1  UNL     1      -3.942   3.513  12.615  1.00  0.00    -0.120 SA
BRANCH  11  12
HETATM   12  C6  UNL     1      -4.460   1.882  12.074  1.00  0.00     0.126 C 
HETATM   13  N1  UNL     1      -3.845   0.884  12.556  1.00  0.00    -0.403 N 
ATOM     14  H12 UNL     1      -3.087   1.019  13.226  1.00  0.00     0.155 HD
ATOM     15  H11 UNL     1      -4.139  -0.043  12.249  1.00  0.00     0.155 HD
ENDBRANCH  11  12
ENDBRANCH  10  11
ENDBRANCH   6  10
BRANCH   9  16
HETATM   16  O4  UNL     1      -3.987   0.297  16.464  1.00  0.00    -0.390 OA
ATOM     17  H4  UNL     1      -3.058   0.495  16.433  1.00  0.00     0.210 HD
ENDBRANCH   9  16
TORSDOF 4
ENDMDL
MODEL 2
REMARK VINA RESULT: -5.778724371      1.381      1.428
REMARK  4 active torsions:
REMARK  status: ('A' for Active; 'I' for Inactive)
REMARK    1  A    between atoms: C4_6  and  C5_7 
REMARK    2  A    between atoms: C5_7  and  S1_8 
REMARK    3  A    between atoms: S1_8  and  C6_9 
REMARK    4  A    between atoms: C8_15  and  O4_16 
ROOT
HETATM    1  C1  UNL     1      -6.301   0.978  17.827  1.00  0.00     0.042 C 
HETATM    2  C2  UNL     1      -6.162   1.320  16.375  1.00  0.00     0.152 C 
HETATM    3  O1  UNL     1      -6.559   2.637  16.156  1.00  0.00    -0.351 OA
HETATM    4  C3  UNL     1      -5.532   3.413  16.699  1.00  0.00     0.295 C 
HETATM    5  O2  UNL     1      -5.348   4.612  16.031  1.00  0.00    -0.328 OA
HETATM    6  C4  UNL     1      -4.339   4.432  15.110  1.00  0.00     0.273 C 
HETATM    7  O3  UNL     1      -3.546   3.396  15.504  1.00  0.00    -0.348 OA
HETATM    8  C7  UNL     1      -4.253   2.673  16.457  1.00  0.00     0.211 C 
HETATM    9  C8  UNL     1      -4.723   1.346  15.937  1.00  0.00     0.180 C 
ENDROOT
BRANCH   6  10
HETATM   10  C5  UNL     1      -4.988   4.093  13.790  1.00  0.00     0.140 C 
BRANCH  10  11
HETATM   11  S1  UNL     1      -3.737   3.320  12.713  1.00  0.00    -0.120 SA
BRANCH  11  12
HETATM   12  C6  UNL     1      -2.305   4.401  12.743  1.00  0.00     0.126 C 
HETATM   13  N1  UNL     1      -1.272   3.986  13.349  1.00  0.00    -0.403 N 
ATOM     14  H12 UNL     1      -1.271   3.069  13.797  1.00  0.00     0.155 HD
ATOM     15  H11 UNL     1      -0.458   4.600  13.366  1.00  0.00     0.155 HD
ENDBRANCH  11  12
ENDBRANCH  10  11
ENDBRANCH   6  10
BRANCH   9  16
HETATM   16  O4  UNL     1      -3.991   0.285  16.472  1.00  0.00    -0.390 OA
ATOM     17  H4  UNL     1      -3.635  -0.280  15.797  1.00  0.00     0.210 HD
ENDBRANCH   9  16
TORSDOF 4
ENDMDL
MODEL 3
REMARK VINA RESULT: -5.692974095      2.076      2.742
REMARK  4 active torsions:
REMARK  status: ('A' for Active; 'I' for Inactive)
REMARK    1  A    between atoms: C4_6  and  C5_7 
REMARK    2  A    between atoms: C5_7  and  S1_8 
REMARK    3  A    between atoms: S1_8  and  C6_9 
REMARK    4  A    between atoms: C8_15  and  O4_16 
ROOT
HETATM    1  C1  UNL     1      -6.265   1.954  18.953  1.00  0.00     0.042 C 
HETATM    2  C2  UNL     1      -6.629   2.488  17.602  1.00  0.00     0.152 C 
HETATM    3  O1  UNL     1      -5.587   3.263  17.099  1.00  0.00    -0.351 OA
HETATM    4  C3  UNL     1      -4.596   2.342  16.749  1.00  0.00     0.295 C 
HETATM    5  O2  UNL     1      -3.837   2.750  15.665  1.00  0.00    -0.328 OA
HETATM    6  C4  UNL     1      -4.372   2.174  14.534  1.00  0.00     0.273 C 
HETATM    7  O3  UNL     1      -5.065   1.053  14.881  1.00  0.00    -0.348 OA
HETATM    8  C7  UNL     1      -5.298   1.118  16.250  1.00  0.00     0.211 C 
HETATM    9  C8  UNL     1      -6.736   1.396  16.573  1.00  0.00     0.180 C 
ENDROOT
BRANCH   6  10
HETATM   10  C5  UNL     1      -5.318   3.178  13.920  1.00  0.00     0.140 C 
BRANCH  10  11
HETATM   11  S1  UNL     1      -4.334   4.540  13.213  1.00  0.00    -0.120 SA
BRANCH  11  12
HETATM   12  C6  UNL     1      -4.465   5.911  14.363  1.00  0.00     0.126 C 
HETATM   13  N1  UNL     1      -5.010   5.682  15.485  1.00  0.00    -0.403 N 
ATOM     14  H12 UNL     1      -5.356   4.749  15.709  1.00  0.00     0.155 HD
ATOM     15  H11 UNL     1      -5.085   6.461  16.139  1.00  0.00     0.155 HD
ENDBRANCH  11  12
ENDBRANCH  10  11
ENDBRANCH   6  10
BRANCH   9  16
HETATM   16  O4  UNL     1      -7.389   0.268  17.070  1.00  0.00    -0.390 OA
ATOM     17  H4  UNL     1      -7.699   0.395  17.959  1.00  0.00     0.210 HD
ENDBRANCH   9  16
TORSDOF 4
ENDMDL
MODEL 4
REMARK VINA RESULT: -5.618965958      1.176      1.180
REMARK  4 active torsions:
REMARK  status: ('A' for Active; 'I' for Inactive)
REMARK    1  A    between atoms: C4_6  and  C5_7 
REMARK    2  A    between atoms: C5_7  and  S1_8 
REMARK    3  A    between atoms: S1_8  and  C6_9 
REMARK    4  A    between atoms: C8_15  and  O4_16 
ROOT
HETATM    1  C1  UNL     1      -6.888   1.696  18.339  1.00  0.00     0.042 C 
HETATM    2  C2  UNL     1      -6.790   1.688  16.844  1.00  0.00     0.152 C 
HETATM    3  O1  UNL     1      -6.802   2.994  16.359  1.00  0.00    -0.351 OA
HETATM    4  C3  UNL     1      -5.548   3.509  16.693  1.00  0.00     0.295 C 
HETATM    5  O2  UNL     1      -5.083   4.439  15.778  1.00  0.00    -0.328 OA
HETATM    6  C4  UNL     1      -4.260   3.782  14.889  1.00  0.00     0.273 C 
HETATM    7  O3  UNL     1      -3.773   2.652  15.473  1.00  0.00    -0.348 OA
HETATM    8  C7  UNL     1      -4.570   2.381  16.579  1.00  0.00     0.211 C 
HETATM    9  C8  UNL     1      -5.454   1.186  16.369  1.00  0.00     0.180 C 
ENDROOT
BRANCH   6  10
HETATM   10  C5  UNL     1      -5.100   3.407  13.691  1.00  0.00     0.140 C 
BRANCH  10  11
HETATM   11  S1  UNL     1      -4.315   1.988  12.858  1.00  0.00    -0.120 SA
BRANCH  11  12
HETATM   12  C6  UNL     1      -4.768   2.106  11.125  1.00  0.00     0.126 C 
HETATM   13  N1  UNL     1      -4.419   3.152  10.500  1.00  0.00    -0.403 N 
ATOM     14  H12 UNL     1      -3.902   3.890  10.978  1.00  0.00     0.155 HD
ATOM     15  H11 UNL     1      -4.676   3.219   9.515  1.00  0.00     0.155 HD
ENDBRANCH  11  12
ENDBRANCH  10  11
ENDBRANCH   6  10
BRANCH   9  16
HETATM   16  O4  UNL     1      -5.019   0.079  17.097  1.00  0.00    -0.390 OA
ATOM     17  H4  UNL     1      -4.103   0.148  17.342  1.00  0.00     0.210 HD
ENDBRANCH   9  16
TORSDOF 4
ENDMDL
MODEL 5
REMARK VINA RESULT: -5.603277638      2.030      2.876
REMARK  4 active torsions:
REMARK  status: ('A' for Active; 'I' for Inactive)
REMARK    1  A    between atoms: C4_6  and  C5_7 
REMARK    2  A    between atoms: C5_7  and  S1_8 
REMARK    3  A    between atoms: S1_8  and  C6_9 
REMARK    4  A    between atoms: C8_15  and  O4_16 
ROOT
HETATM    1  C1  UNL     1      -5.125   0.845  16.427  1.00  0.00     0.042 C 
HETATM    2  C2  UNL     1      -4.494   2.203  16.468  1.00  0.00     0.152 C 
HETATM    3  O1  UNL     1      -4.065   2.567  15.194  1.00  0.00    -0.351 OA
HETATM    4  C3  UNL     1      -5.238   2.853  14.491  1.00  0.00     0.295 C 
HETATM    5  O2  UNL     1      -5.069   3.838  13.533  1.00  0.00    -0.328 OA
HETATM    6  C4  UNL     1      -5.448   5.040  14.091  1.00  0.00     0.273 C 
HETATM    7  O3  UNL     1      -6.311   4.809  15.119  1.00  0.00    -0.348 OA
HETATM    8  C7  UNL     1      -6.190   3.469  15.468  1.00  0.00     0.211 C 
HETATM    9  C8  UNL     1      -5.495   3.280  16.784  1.00  0.00     0.180 C 
ENDROOT
BRANCH   6  10
HETATM   10  C5  UNL     1      -4.200   5.704  14.622  1.00  0.00     0.140 C 
BRANCH  10  11
HETATM   11  S1  UNL     1      -2.937   5.695  13.307  1.00  0.00    -0.120 SA
BRANCH  11  12
HETATM   12  C6  UNL     1      -1.603   4.647  13.893  1.00  0.00     0.126 C 
HETATM   13  N1  UNL     1      -1.651   4.261  15.100  1.00  0.00    -0.403 N 
ATOM     14  H12 UNL     1      -2.424   4.545  15.702  1.00  0.00     0.155 HD
ATOM     15  H11 UNL     1      -0.893   3.666  15.433  1.00  0.00     0.155 HD
ENDBRANCH  11  12
ENDBRANCH  10  11
ENDBRANCH   6  10
BRANCH   9  16
HETATM   16  O4  UNL     1      -6.378   2.897  17.793  1.00  0.00    -0.390 OA
ATOM     17  H4  UNL     1      -7.286   3.013  17.538  1.00  0.00     0.210 HD
ENDBRANCH   9  16
TORSDOF 4
ENDMDL
