MODEL 1
REMARK VINA RESULT: -6.193829135      0.000      0.000
REMARK  3 active torsions:
REMARK  status: ('A' for Active; 'I' for Inactive)
REMARK    1  A    between atoms: C5_6  and  C6_7 
REMARK    2  A    between atoms: N1_8  and  O2_10 
REMARK    3  A    between atoms: C7_12  and  O3_13 
ROOT
HETATM    1  C1  UNL     1      -1.741   4.645  14.981  1.00  0.00     0.051 C 
HETATM    2  C2  UNL     1      -2.835   4.543  13.905  1.00  0.00     0.114 C 
HETATM    3  C3  UNL     1      -3.596   5.874  14.011  1.00  0.00     0.051 C 
HETATM    4  O1  UNL     1      -3.669   3.536  14.319  1.00  0.00    -0.375 OA
HETATM    5  C4  UNL     1      -4.574   3.206  13.317  1.00  0.00     0.181 C 
HETATM    6  C5  UNL     1      -3.801   2.397  12.296  1.00  0.00     0.083 C 
HETATM    7  C7  UNL     1      -2.551   3.076  11.875  1.00  0.00     0.195 C 
HETATM    8  C8  UNL     1      -2.249   4.363  12.550  1.00  0.00     0.283 C 
HETATM    9  N2  UNL     1      -0.807   4.494  12.663  1.00  0.00    -0.035 N 
ATOM     10  H21 UNL     1      -0.341   3.596  12.796  1.00  0.00     0.281 HD
ATOM     11  H22 UNL     1      -0.520   4.930  13.539  1.00  0.00     0.281 HD
HETATM   12  C9  UNL     1      -0.333   5.191  11.523  1.00  0.00     0.262 C 
HETATM   13  C10 UNL     1      -1.594   5.649  10.839  1.00  0.00     0.199 C 
HETATM   14  O4  UNL     1      -2.646   5.403  11.680  1.00  0.00    -0.348 OA
ENDROOT
BRANCH   7  15
HETATM   15  O3  UNL     1      -1.475   2.173  12.037  1.00  0.00    -0.390 OA
ATOM     16  H3  UNL     1      -1.606   1.441  11.446  1.00  0.00     0.210 HD
ENDBRANCH   7  15
BRANCH   6  17
HETATM   17  C6  UNL     1      -4.723   2.110  11.169  1.00  0.00     0.096 C 
HETATM   18  N1  UNL     1      -4.980   0.926  10.738  1.00  0.00    -0.284 N 
ATOM     19  H1  UNL     1      -5.623   0.791   9.958  1.00  0.00     0.192 HD
BRANCH  18  20
HETATM   20  O2  UNL     1      -4.380  -0.160  11.341  1.00  0.00    -0.291 OA
ATOM     21  H2  UNL     1      -4.122  -0.105  12.254  1.00  0.00     0.244 HD
ENDBRANCH  18  20
ENDBRANCH   6  17
TORSDOF 3
ENDMDL
MODEL 2
REMARK VINA RESULT: -6.149989047      2.371      2.892
REMARK  3 active torsions:
REMARK  status: ('A' for Active; 'I' for Inactive)
REMARK    1  A    between atoms: C5_6  and  C6_7 
REMARK    2  A    between atoms: N1_8  and  O2_10 
REMARK    3  A    between atoms: C7_12  and  O3_13 
ROOT
HETATM    1  C1  UNL     1      -3.386   7.372  13.599  1.00  0.00     0.051 C 
HETATM    2  C2  UNL     1      -4.070   6.021  13.333  1.00  0.00     0.114 C 
HETATM    3  C3  UNL     1      -4.920   6.267  12.077  1.00  0.00     0.051 C 
HETATM    4  O1  UNL     1      -4.917   5.819  14.393  1.00  0.00    -0.375 OA
HETATM    5  C4  UNL     1      -5.429   4.527  14.372  1.00  0.00     0.181 C 
HETATM    6  C5  UNL     1      -4.314   3.620  14.851  1.00  0.00     0.083 C 
HETATM    7  C7  UNL     1      -3.048   3.852  14.113  1.00  0.00     0.195 C 
HETATM    8  C8  UNL     1      -3.071   4.942  13.105  1.00  0.00     0.283 C 
HETATM    9  N2  UNL     1      -1.754   5.551  13.059  1.00  0.00    -0.035 N 
ATOM     10  H21 UNL     1      -1.290   5.554  13.968  1.00  0.00     0.281 HD
ATOM     11  H22 UNL     1      -1.793   6.561  12.921  1.00  0.00     0.281 HD
HETATM   12  C9  UNL     1      -0.994   4.892  12.060  1.00  0.00     0.262 C 
HETATM   13  C10 UNL     1      -2.001   4.007  11.377  1.00  0.00     0.199 C 
HETATM   14  O4  UNL     1      -3.246   4.345  11.837  1.00  0.00    -0.348 OA
ENDROOT
BRANCH   7  15
HETATM   15  O3  UNL     1      -2.017   4.076  15.054  1.00  0.00    -0.390 OA
ATOM     16  H3  UNL     1      -1.403   4.700  14.684  1.00  0.00     0.210 HD
ENDBRANCH   7  15
BRANCH   6  17
HETATM   17  C6  UNL     1      -4.806   2.223  14.749  1.00  0.00     0.096 C 
HETATM   18  N1  UNL     1      -4.380   1.260  15.488  1.00  0.00    -0.284 N 
ATOM     19  H1  UNL     1      -4.756   0.318  15.372  1.00  0.00     0.192 HD
BRANCH  18  20
HETATM   20  O2  UNL     1      -3.412   1.510  16.438  1.00  0.00    -0.291 OA
ATOM     21  H2  UNL     1      -3.636   2.014  17.212  1.00  0.00     0.244 HD
ENDBRANCH  18  20
ENDBRANCH   6  17
TORSDOF 3
ENDMDL
MODEL 3
REMARK VINA RESULT: -5.950611610      1.489      1.617
REMARK  3 active torsions:
REMARK  status: ('A' for Active; 'I' for Inactive)
REMARK    1  A    between atoms: C5_6  and  C6_7 
REMARK    2  A    between atoms: N1_8  and  O2_10 
REMARK    3  A    between atoms: C7_12  and  O3_13 
ROOT
HETATM    1  C1  UNL     1      -2.752   4.762  14.668  1.00  0.00     0.051 C 
HETATM    2  C2  UNL     1      -3.891   4.171  13.822  1.00  0.00     0.114 C 
HETATM    3  C3  UNL     1      -5.166   4.786  14.419  1.00  0.00     0.051 C 
HETATM    4  O1  UNL     1      -3.895   2.826  14.094  1.00  0.00    -0.375 OA
HETATM    5  C4  UNL     1      -4.741   2.152  13.223  1.00  0.00     0.181 C 
HETATM    6  C5  UNL     1      -4.009   2.070  11.898  1.00  0.00     0.083 C 
HETATM    7  C7  UNL     1      -3.505   3.393  11.455  1.00  0.00     0.195 C 
HETATM    8  C8  UNL     1      -3.741   4.526  12.385  1.00  0.00     0.283 C 
HETATM    9  N2  UNL     1      -2.633   5.456  12.266  1.00  0.00    -0.035 N 
ATOM     10  H21 UNL     1      -1.748   4.989  12.066  1.00  0.00     0.281 HD
ATOM     11  H22 UNL     1      -2.371   5.872  13.159  1.00  0.00     0.281 HD
HETATM   12  C9  UNL     1      -2.971   6.427  11.290  1.00  0.00     0.262 C 
HETATM   13  C10 UNL     1      -4.420   6.143  10.995  1.00  0.00     0.199 C 
HETATM   14  O4  UNL     1      -4.870   5.234  11.916  1.00  0.00    -0.348 OA
ENDROOT
BRANCH   7  15
HETATM   15  O3  UNL     1      -2.125   3.273  11.169  1.00  0.00    -0.390 OA
ATOM     16  H3  UNL     1      -1.971   2.418  10.786  1.00  0.00     0.210 HD
ENDBRANCH   7  15
BRANCH   6  17
HETATM   17  C6  UNL     1      -4.931   1.436  10.922  1.00  0.00     0.096 C 
HETATM   18  N1  UNL     1      -5.003   0.167  10.727  1.00  0.00    -0.284 N 
ATOM     19  H1  UNL     1      -5.657  -0.212  10.041  1.00  0.00     0.192 HD
BRANCH  18  20
HETATM   20  O2  UNL     1      -4.190  -0.678  11.453  1.00  0.00    -0.291 OA
ATOM     21  H2  UNL     1      -3.499  -1.157  11.010  1.00  0.00     0.244 HD
ENDBRANCH  18  20
ENDBRANCH   6  17
TORSDOF 3
ENDMDL
MODEL 4
REMARK VINA RESULT: -5.920588766      1.537      1.654
REMARK  3 active torsions:
REMARK  status: ('A' for Active; 'I' for Inactive)
REMARK    1  A    between atoms: C5_6  and  C6_7 
REMARK    2  A    between atoms: N1_8  and  O2_10 
REMARK    3  A    between atoms: C7_12  and  O3_13 
ROOT
HETATM    1  C1  UNL     1      -2.834   4.940  14.658  1.00  0.00     0.051 C 
HETATM    2  C2  UNL     1      -3.890   4.086  13.937  1.00  0.00     0.114 C 
HETATM    3  C3  UNL     1      -5.217   4.808  14.215  1.00  0.00     0.051 C 
HETATM    4  O1  UNL     1      -3.907   2.883  14.597  1.00  0.00    -0.375 OA
HETATM    5  C4  UNL     1      -4.668   1.953  13.900  1.00  0.00     0.181 C 
HETATM    6  C5  UNL     1      -3.821   1.506  12.726  1.00  0.00     0.083 C 
HETATM    7  C7  UNL     1      -3.290   2.653  11.950  1.00  0.00     0.195 C 
HETATM    8  C8  UNL     1      -3.616   4.003  12.477  1.00  0.00     0.283 C 
HETATM    9  N2  UNL     1      -2.509   4.892  12.176  1.00  0.00    -0.035 N 
ATOM     10  H21 UNL     1      -1.606   4.417  12.198  1.00  0.00     0.281 HD
ATOM     11  H22 UNL     1      -2.330   5.563  12.923  1.00  0.00     0.281 HD
HETATM   12  C9  UNL     1      -2.767   5.517  10.929  1.00  0.00     0.262 C 
HETATM   13  C10 UNL     1      -4.181   5.110  10.616  1.00  0.00     0.199 C 
HETATM   14  O4  UNL     1      -4.704   4.501  11.726  1.00  0.00    -0.348 OA
ENDROOT
BRANCH   7  15
HETATM   15  O3  UNL     1      -1.889   2.500  11.828  1.00  0.00    -0.390 OA
ATOM     16  H3  UNL     1      -1.501   3.362  11.732  1.00  0.00     0.210 HD
ENDBRANCH   7  15
BRANCH   6  17
HETATM   17  C6  UNL     1      -4.648   0.579  11.912  1.00  0.00     0.096 C 
HETATM   18  N1  UNL     1      -4.955   0.789  10.680  1.00  0.00    -0.284 N 
ATOM     19  H1  UNL     1      -5.527   0.115  10.171  1.00  0.00     0.192 HD
BRANCH  18  20
HETATM   20  O2  UNL     1      -4.503   1.932  10.054  1.00  0.00    -0.291 OA
ATOM     21  H2  UNL     1      -4.891   2.196   9.228  1.00  0.00     0.244 HD
ENDBRANCH  18  20
ENDBRANCH   6  17
TORSDOF 3
ENDMDL
MODEL 5
REMARK VINA RESULT: -5.919624624      2.782      4.203
REMARK  3 active torsions:
REMARK  status: ('A' for Active; 'I' for Inactive)
REMARK    1  A    between atoms: C5_6  and  C6_7 
REMARK    2  A    between atoms: N1_8  and  O2_10 
REMARK    3  A    between atoms: C7_12  and  O3_13 
ROOT
HETATM    1  C1  UNL     1      -4.623   2.940  11.192  1.00  0.00     0.051 C 
HETATM    2  C2  UNL     1      -4.009   2.500  12.531  1.00  0.00     0.114 C 
HETATM    3  C3  UNL     1      -2.554   2.148  12.184  1.00  0.00     0.051 C 
HETATM    4  O1  UNL     1      -4.661   1.343  12.875  1.00  0.00    -0.375 OA
HETATM    5  C4  UNL     1      -4.343   0.969  14.175  1.00  0.00     0.181 C 
HETATM    6  C5  UNL     1      -5.120   1.897  15.086  1.00  0.00     0.083 C 
HETATM    7  C7  UNL     1      -4.922   3.324  14.731  1.00  0.00     0.195 C 
HETATM    8  C8  UNL     1      -4.074   3.589  13.542  1.00  0.00     0.283 C 
HETATM    9  N2  UNL     1      -4.568   4.785  12.884  1.00  0.00    -0.035 N 
ATOM     10  H21 UNL     1      -5.581   4.886  12.960  1.00  0.00     0.281 HD
ATOM     11  H22 UNL     1      -4.512   4.725  11.867  1.00  0.00     0.281 HD
HETATM   12  C9  UNL     1      -3.867   5.902  13.404  1.00  0.00     0.262 C 
HETATM   13  C10 UNL     1      -2.788   5.278  14.249  1.00  0.00     0.199 C 
HETATM   14  O4  UNL     1      -2.784   3.930  14.007  1.00  0.00    -0.348 OA
ENDROOT
BRANCH   7  15
HETATM   15  O3  UNL     1      -6.193   3.925  14.570  1.00  0.00    -0.390 OA
ATOM     16  H3  UNL     1      -6.820   3.247  14.348  1.00  0.00     0.210 HD
ENDBRANCH   7  15
BRANCH   6  17
HETATM   17  C6  UNL     1      -4.725   1.580  16.482  1.00  0.00     0.096 C 
HETATM   18  N1  UNL     1      -5.400   0.807  17.258  1.00  0.00    -0.284 N 
ATOM     19  H1  UNL     1      -5.079   0.626  18.209  1.00  0.00     0.192 HD
BRANCH  18  20
HETATM   20  O2  UNL     1      -6.562   0.226  16.793  1.00  0.00    -0.291 OA
ATOM     21  H2  UNL     1      -6.794  -0.649  17.080  1.00  0.00     0.244 HD
ENDBRANCH  18  20
ENDBRANCH   6  17
TORSDOF 3
ENDMDL
