MODEL 1
REMARK VINA RESULT: -5.806072144      0.000      0.000
REMARK  4 active torsions:
REMARK  status: ('A' for Active; 'I' for Inactive)
REMARK    1  A    between atoms: O1_2  and  C2_3 
REMARK    2  A    between atoms: C4_5  and  O2_6 
REMARK    3  A    between atoms: C6_9  and  C8_11 
REMARK    4  A    between atoms: C8_11  and  O3_12 
ROOT
HETATM    1  C2  UNL     1      -2.504   4.324  10.686  1.00  0.00     0.127 C 
HETATM    2  C3  UNL     1      -2.780   4.650   9.204  1.00  0.00     0.053 C 
HETATM    3  C4  UNL     1      -3.830   3.911  11.290  1.00  0.00     0.159 C 
HETATM    4  C5  UNL     1      -4.163   2.459  11.012  1.00  0.00     0.077 C 
HETATM    5  C6  UNL     1      -3.329   1.529  11.876  1.00  0.00     0.105 C 
HETATM    6  C7  UNL     1      -2.646   0.547  10.951  1.00  0.00     0.050 C 
HETATM    7  O4  UNL     1      -2.417   2.356  12.542  1.00  0.00    -0.263 OA
HETATM    8  N1  UNL     1      -1.326   2.435  11.794  1.00  0.00    -0.031 NA
HETATM    9  O5  UNL     1      -0.519   3.486  11.779  1.00  0.00    -0.248 OA
HETATM   10  C9  UNL     1      -1.442   3.291  10.732  1.00  0.00     0.314 A 
ENDROOT
BRANCH   5  11
HETATM   11  C8  UNL     1      -4.179   0.752  12.846  1.00  0.00     0.203 C 
BRANCH  11  12
HETATM   12  O3  UNL     1      -4.091   1.343  14.117  1.00  0.00    -0.398 OA
ATOM     13  H3  UNL     1      -4.616   0.844  14.732  1.00  0.00     0.209 HD
ENDBRANCH  11  12
ENDBRANCH   5  11
BRANCH   3  14
HETATM   14  O2  UNL     1      -4.884   4.667  10.781  1.00  0.00    -0.392 OA
ATOM     15  H2  UNL     1      -4.862   4.704   9.832  1.00  0.00     0.210 HD
ENDBRANCH   3  14
BRANCH   1  16
HETATM   16  O1  UNL     1      -2.171   5.545  11.263  1.00  0.00    -0.379 OA
HETATM   17  C1  UNL     1      -1.770   6.509  10.373  1.00  0.00     0.202 C 
ENDBRANCH   1  16
TORSDOF 4
ENDMDL
MODEL 2
REMARK VINA RESULT: -5.600698177      2.855      4.771
REMARK  4 active torsions:
REMARK  status: ('A' for Active; 'I' for Inactive)
REMARK    1  A    between atoms: O1_2  and  C2_3 
REMARK    2  A    between atoms: C4_5  and  O2_6 
REMARK    3  A    between atoms: C6_9  and  C8_11 
REMARK    4  A    between atoms: C8_11  and  O3_12 
ROOT
HETATM    1  C2  UNL     1      -5.382   3.255  14.888  1.00  0.00     0.127 C 
HETATM    2  C3  UNL     1      -6.560   2.486  15.521  1.00  0.00     0.053 C 
HETATM    3  C4  UNL     1      -4.241   2.267  14.761  1.00  0.00     0.159 C 
HETATM    4  C5  UNL     1      -4.365   1.399  13.525  1.00  0.00     0.077 C 
HETATM    5  C6  UNL     1      -4.006   2.177  12.271  1.00  0.00     0.105 C 
HETATM    6  C7  UNL     1      -5.164   2.036  11.307  1.00  0.00     0.050 C 
HETATM    7  O4  UNL     1      -3.821   3.499  12.690  1.00  0.00    -0.263 OA
HETATM    8  N1  UNL     1      -4.988   4.120  12.590  1.00  0.00    -0.031 NA
HETATM    9  O5  UNL     1      -5.353   5.130  13.365  1.00  0.00    -0.248 OA
HETATM   10  C9  UNL     1      -5.856   3.838  13.610  1.00  0.00     0.314 A 
ENDROOT
BRANCH   5  11
HETATM   11  C8  UNL     1      -2.770   1.631  11.606  1.00  0.00     0.203 C 
BRANCH  11  12
HETATM   12  O3  UNL     1      -1.652   2.369  12.030  1.00  0.00    -0.398 OA
ATOM     13  H3  UNL     1      -1.336   2.014  12.853  1.00  0.00     0.209 HD
ENDBRANCH  11  12
ENDBRANCH   5  11
BRANCH   3  14
HETATM   14  O2  UNL     1      -4.187   1.402  15.852  1.00  0.00    -0.392 OA
ATOM     15  H2  UNL     1      -4.542   0.547  15.639  1.00  0.00     0.210 HD
ENDBRANCH   3  14
BRANCH   1  16
HETATM   16  O1  UNL     1      -4.999   4.178  15.855  1.00  0.00    -0.379 OA
HETATM   17  C1  UNL     1      -5.955   4.445  16.803  1.00  0.00     0.202 C 
ENDBRANCH   1  16
TORSDOF 4
ENDMDL
MODEL 3
REMARK VINA RESULT: -5.542090183      1.313      1.484
REMARK  4 active torsions:
REMARK  status: ('A' for Active; 'I' for Inactive)
REMARK    1  A    between atoms: O1_2  and  C2_3 
REMARK    2  A    between atoms: C4_5  and  O2_6 
REMARK    3  A    between atoms: C6_9  and  C8_11 
REMARK    4  A    between atoms: C8_11  and  O3_12 
ROOT
HETATM    1  C2  UNL     1      -3.588   4.362  11.331  1.00  0.00     0.127 C 
HETATM    2  C3  UNL     1      -4.434   4.641  10.072  1.00  0.00     0.053 C 
HETATM    3  C4  UNL     1      -4.559   4.267  12.490  1.00  0.00     0.159 C 
HETATM    4  C5  UNL     1      -5.200   2.897  12.593  1.00  0.00     0.077 C 
HETATM    5  C6  UNL     1      -4.225   1.877  13.154  1.00  0.00     0.105 C 
HETATM    6  C7  UNL     1      -4.179   0.718  12.182  1.00  0.00     0.050 C 
HETATM    7  O4  UNL     1      -2.997   2.543  13.246  1.00  0.00    -0.263 OA
HETATM    8  N1  UNL     1      -2.349   2.350  12.106  1.00  0.00    -0.031 NA
HETATM    9  O5  UNL     1      -1.481   3.212  11.599  1.00  0.00    -0.248 OA
HETATM   10  C9  UNL     1      -2.787   3.141  11.078  1.00  0.00     0.314 A 
ENDROOT
BRANCH   5  11
HETATM   11  C8  UNL     1      -4.670   1.352  14.493  1.00  0.00     0.203 C 
BRANCH  11  12
HETATM   12  O3  UNL     1      -4.746  -0.050  14.440  1.00  0.00    -0.398 OA
ATOM     13  H3  UNL     1      -5.617  -0.327  14.698  1.00  0.00     0.209 HD
ENDBRANCH  11  12
ENDBRANCH   5  11
BRANCH   3  14
HETATM   14  O2  UNL     1      -5.599   5.186  12.365  1.00  0.00    -0.392 OA
ATOM     15  H2  UNL     1      -5.949   5.436  13.213  1.00  0.00     0.210 HD
ENDBRANCH   3  14
BRANCH   1  16
HETATM   16  O1  UNL     1      -2.851   5.525  11.529  1.00  0.00    -0.379 OA
HETATM   17  C1  UNL     1      -2.765   6.342  10.430  1.00  0.00     0.202 C 
ENDBRANCH   1  16
TORSDOF 4
ENDMDL
MODEL 4
REMARK VINA RESULT: -5.530242128      1.291      1.377
REMARK  4 active torsions:
REMARK  status: ('A' for Active; 'I' for Inactive)
REMARK    1  A    between atoms: O1_2  and  C2_3 
REMARK    2  A    between atoms: C4_5  and  O2_6 
REMARK    3  A    between atoms: C6_9  and  C8_11 
REMARK    4  A    between atoms: C8_11  and  O3_12 
ROOT
HETATM    1  C2  UNL     1      -1.448   4.245  10.532  1.00  0.00     0.127 C 
HETATM    2  C3  UNL     1      -1.120   4.404   9.034  1.00  0.00     0.053 C 
HETATM    3  C4  UNL     1      -2.958   4.283  10.649  1.00  0.00     0.159 C 
HETATM    4  C5  UNL     1      -3.592   2.940  10.347  1.00  0.00     0.077 C 
HETATM    5  C6  UNL     1      -3.395   1.969  11.499  1.00  0.00     0.105 C 
HETATM    6  C7  UNL     1      -2.768   0.716  10.927  1.00  0.00     0.050 C 
HETATM    7  O4  UNL     1      -2.548   2.624  12.400  1.00  0.00    -0.263 OA
HETATM    8  N1  UNL     1      -1.301   2.307  12.083  1.00  0.00    -0.031 NA
HETATM    9  O5  UNL     1      -0.263   3.100  12.299  1.00  0.00    -0.248 OA
HETATM   10  C9  UNL     1      -0.810   2.994  11.006  1.00  0.00     0.314 A 
ENDROOT
BRANCH   5  11
HETATM   11  C8  UNL     1      -4.702   1.591  12.144  1.00  0.00     0.203 C 
BRANCH  11  12
HETATM   12  O3  UNL     1      -5.748   1.805  11.232  1.00  0.00    -0.398 OA
ATOM     13  H3  UNL     1      -6.103   0.967  10.958  1.00  0.00     0.209 HD
ENDBRANCH  11  12
ENDBRANCH   5  11
BRANCH   3  14
HETATM   14  O2  UNL     1      -3.519   5.198   9.761  1.00  0.00    -0.392 OA
ATOM     15  H2  UNL     1      -2.948   5.944   9.619  1.00  0.00     0.210 HD
ENDBRANCH   3  14
BRANCH   1  16
HETATM   16  O1  UNL     1      -0.978   5.412  11.125  1.00  0.00    -0.379 OA
HETATM   17  C1  UNL     1      -0.059   6.105  10.376  1.00  0.00     0.202 C 
ENDBRANCH   1  16
TORSDOF 4
ENDMDL
MODEL 5
REMARK VINA RESULT: -5.383634766      1.995      2.390
REMARK  4 active torsions:
REMARK  status: ('A' for Active; 'I' for Inactive)
REMARK    1  A    between atoms: O1_2  and  C2_3 
REMARK    2  A    between atoms: C4_5  and  O2_6 
REMARK    3  A    between atoms: C6_9  and  C8_11 
REMARK    4  A    between atoms: C8_11  and  O3_12 
ROOT
HETATM    1  C2  UNL     1      -3.781   2.877  11.376  1.00  0.00     0.127 C 
HETATM    2  C3  UNL     1      -4.243   3.582  10.084  1.00  0.00     0.053 C 
HETATM    3  C4  UNL     1      -4.823   1.824  11.688  1.00  0.00     0.159 C 
HETATM    4  C5  UNL     1      -4.610   0.550  10.894  1.00  0.00     0.077 C 
HETATM    5  C6  UNL     1      -3.443  -0.251  11.445  1.00  0.00     0.105 C 
HETATM    6  C7  UNL     1      -2.499  -0.520  10.293  1.00  0.00     0.050 C 
HETATM    7  O4  UNL     1      -2.865   0.558  12.429  1.00  0.00    -0.263 OA
HETATM    8  N1  UNL     1      -1.925   1.291  11.847  1.00  0.00    -0.031 NA
HETATM    9  O5  UNL     1      -1.567   2.495  12.265  1.00  0.00    -0.248 OA
HETATM   10  C9  UNL     1      -2.411   2.361  11.145  1.00  0.00     0.314 A 
ENDROOT
BRANCH   5  11
HETATM   11  C8  UNL     1      -3.887  -1.574  12.009  1.00  0.00     0.203 C 
BRANCH  11  12
HETATM   12  O3  UNL     1      -2.860  -2.518  11.841  1.00  0.00    -0.398 OA
ATOM     13  H3  UNL     1      -3.162  -3.367  12.143  1.00  0.00     0.209 HD
ENDBRANCH  11  12
ENDBRANCH   5  11
BRANCH   3  14
HETATM   14  O2  UNL     1      -6.109   2.269  11.391  1.00  0.00    -0.392 OA
ATOM     15  H2  UNL     1      -6.150   2.674  10.532  1.00  0.00     0.210 HD
ENDBRANCH   3  14
BRANCH   1  16
HETATM   16  O1  UNL     1      -3.890   3.846  12.368  1.00  0.00    -0.379 OA
HETATM   17  C1  UNL     1      -4.361   5.060  11.934  1.00  0.00     0.202 C 
ENDBRANCH   1  16
TORSDOF 4
ENDMDL
