MODEL 1
REMARK VINA RESULT: -6.790244817      0.000      0.000
REMARK  3 active torsions:
REMARK  status: ('A' for Active; 'I' for Inactive)
REMARK    1  A    between atoms: N4_13  and  C9_14 
REMARK    2  A    between atoms: C9_14  and  C10_15 
REMARK    3  A    between atoms: C10_15  and  O2_16 
ROOT
HETATM    1  N1  UNL     1      -4.342   0.457  14.199  1.00  0.00    -0.171 NA
HETATM    2  C1  UNL     1      -4.208   0.340  13.048  1.00  0.00     0.197 C 
HETATM    3  N2  UNL     1      -4.026   0.192  11.667  1.00  0.00    -0.230 N 
HETATM    4  C2  UNL     1      -5.027   0.776  10.810  1.00  0.00     0.297 C 
HETATM    5  N3  UNL     1      -5.424   2.122  11.205  1.00  0.00    -0.079 NA
HETATM    6  O1  UNL     1      -5.040   3.076  10.364  1.00  0.00    -0.285 OA
HETATM    7  C3  UNL     1      -4.115   3.995  10.883  1.00  0.00     0.196 C 
HETATM    8  C4  UNL     1      -2.844   4.081  10.081  1.00  0.00     0.028 C 
HETATM    9  C5  UNL     1      -1.574   3.980  10.857  1.00  0.00     0.002 C 
HETATM   10  C6  UNL     1      -0.903   2.593  10.741  1.00  0.00     0.001 C 
HETATM   11  C7  UNL     1      -2.021   1.633  11.028  1.00  0.00     0.016 C 
HETATM   12  C8  UNL     1      -1.658   0.232  11.379  1.00  0.00     0.114 C 
HETATM   13  N4  UNL     1      -2.898  -0.517  11.253  1.00  0.00    -0.217 NA
ENDROOT
BRANCH  13  14
HETATM   14  C9  UNL     1      -2.735  -1.752  11.998  1.00  0.00     0.140 C 
BRANCH  14  15
HETATM   15  C10 UNL     1      -3.423  -2.854  11.256  1.00  0.00     0.180 C 
BRANCH  15  16
HETATM   16  O2  UNL     1      -2.872  -4.096  11.640  1.00  0.00    -0.400 OA
ATOM     17  H2  UNL     1      -2.007  -3.959  12.008  1.00  0.00     0.209 HD
ENDBRANCH  15  16
ENDBRANCH  14  15
ENDBRANCH  13  14
TORSDOF 3
ENDMDL
MODEL 2
REMARK VINA RESULT: -6.432568300      2.758      5.632
REMARK  3 active torsions:
REMARK  status: ('A' for Active; 'I' for Inactive)
REMARK    1  A    between atoms: N4_13  and  C9_14 
REMARK    2  A    between atoms: C9_14  and  C10_15 
REMARK    3  A    between atoms: C10_15  and  O2_16 
ROOT
HETATM    1  N1  UNL     1      -1.471   2.623  11.981  1.00  0.00    -0.171 NA
HETATM    2  C1  UNL     1      -2.615   2.433  11.874  1.00  0.00     0.197 C 
HETATM    3  N2  UNL     1      -3.994   2.226  11.742  1.00  0.00    -0.230 N 
HETATM    4  C2  UNL     1      -4.484   0.897  12.009  1.00  0.00     0.297 C 
HETATM    5  N3  UNL     1      -3.914   0.291  13.207  1.00  0.00    -0.079 NA
HETATM    6  O1  UNL     1      -4.776   0.137  14.206  1.00  0.00    -0.285 OA
HETATM    7  C3  UNL     1      -4.501   0.893  15.356  1.00  0.00     0.196 C 
HETATM    8  C4  UNL     1      -5.637   1.795  15.762  1.00  0.00     0.028 C 
HETATM    9  C5  UNL     1      -5.277   3.217  16.030  1.00  0.00     0.002 C 
HETATM   10  C6  UNL     1      -5.663   4.168  14.876  1.00  0.00     0.001 C 
HETATM   11  C7  UNL     1      -5.114   3.486  13.656  1.00  0.00     0.016 C 
HETATM   12  C8  UNL     1      -4.966   4.298  12.417  1.00  0.00     0.114 C 
HETATM   13  N4  UNL     1      -4.762   3.324  11.356  1.00  0.00    -0.217 NA
ENDROOT
BRANCH  13  14
HETATM   14  C9  UNL     1      -4.169   4.026  10.232  1.00  0.00     0.140 C 
BRANCH  14  15
HETATM   15  C10 UNL     1      -4.643   5.444  10.249  1.00  0.00     0.180 C 
BRANCH  15  16
HETATM   16  O2  UNL     1      -5.688   5.603   9.312  1.00  0.00    -0.400 OA
ATOM     17  H2  UNL     1      -6.300   6.257   9.628  1.00  0.00     0.209 HD
ENDBRANCH  15  16
ENDBRANCH  14  15
ENDBRANCH  13  14
TORSDOF 3
ENDMDL
MODEL 3
REMARK VINA RESULT: -6.388954456      3.065      4.554
REMARK  3 active torsions:
REMARK  status: ('A' for Active; 'I' for Inactive)
REMARK    1  A    between atoms: N4_13  and  C9_14 
REMARK    2  A    between atoms: C9_14  and  C10_15 
REMARK    3  A    between atoms: C10_15  and  O2_16 
ROOT
HETATM    1  N1  UNL     1      -5.568   1.411  10.891  1.00  0.00    -0.171 NA
HETATM    2  C1  UNL     1      -4.859   2.043  11.565  1.00  0.00     0.197 C 
HETATM    3  N2  UNL     1      -4.017   2.796  12.393  1.00  0.00    -0.230 N 
HETATM    4  C2  UNL     1      -3.105   3.705  11.745  1.00  0.00     0.297 C 
HETATM    5  N3  UNL     1      -3.714   4.481  10.671  1.00  0.00    -0.079 NA
HETATM    6  O1  UNL     1      -3.839   5.777  10.934  1.00  0.00    -0.285 OA
HETATM    7  C3  UNL     1      -5.158   6.246  11.021  1.00  0.00     0.196 C 
HETATM    8  C4  UNL     1      -5.470   6.910  12.336  1.00  0.00     0.028 C 
HETATM    9  C5  UNL     1      -6.714   6.450  13.020  1.00  0.00     0.002 C 
HETATM   10  C6  UNL     1      -6.436   5.491  14.200  1.00  0.00     0.001 C 
HETATM   11  C7  UNL     1      -5.496   4.476  13.616  1.00  0.00     0.016 C 
HETATM   12  C8  UNL     1      -5.321   3.193  14.352  1.00  0.00     0.114 C 
HETATM   13  N4  UNL     1      -4.134   2.588  13.767  1.00  0.00    -0.217 NA
ENDROOT
BRANCH  13  14
HETATM   14  C9  UNL     1      -4.162   1.174  14.096  1.00  0.00     0.140 C 
BRANCH  14  15
HETATM   15  C10 UNL     1      -4.679   1.016  15.491  1.00  0.00     0.180 C 
BRANCH  15  16
HETATM   16  O2  UNL     1      -5.042  -0.330  15.710  1.00  0.00    -0.400 OA
ATOM     17  H2  UNL     1      -4.286  -0.889  15.574  1.00  0.00     0.209 HD
ENDBRANCH  15  16
ENDBRANCH  14  15
ENDBRANCH  13  14
TORSDOF 3
ENDMDL
MODEL 4
REMARK VINA RESULT: -6.162584321      2.504      3.761
REMARK  3 active torsions:
REMARK  status: ('A' for Active; 'I' for Inactive)
REMARK    1  A    between atoms: N4_13  and  C9_14 
REMARK    2  A    between atoms: C9_14  and  C10_15 
REMARK    3  A    between atoms: C10_15  and  O2_16 
ROOT
HETATM    1  N1  UNL     1      -4.622   0.364  10.214  1.00  0.00    -0.171 NA
HETATM    2  C1  UNL     1      -3.966   0.948  10.978  1.00  0.00     0.197 C 
HETATM    3  N2  UNL     1      -3.194   1.650  11.912  1.00  0.00    -0.230 N 
HETATM    4  C2  UNL     1      -1.892   2.094  11.481  1.00  0.00     0.297 C 
HETATM    5  N3  UNL     1      -1.887   2.692  10.150  1.00  0.00    -0.079 NA
HETATM    6  O1  UNL     1      -1.650   3.999  10.137  1.00  0.00    -0.285 OA
HETATM    7  C3  UNL     1      -2.712   4.795   9.683  1.00  0.00     0.196 C 
HETATM    8  C4  UNL     1      -3.147   5.836  10.679  1.00  0.00     0.028 C 
HETATM    9  C5  UNL     1      -4.612   5.904  10.955  1.00  0.00     0.002 C 
HETATM   10  C6  UNL     1      -5.006   5.248  12.298  1.00  0.00     0.001 C 
HETATM   11  C7  UNL     1      -4.325   3.911  12.252  1.00  0.00     0.016 C 
HETATM   12  C8  UNL     1      -4.792   2.864  13.202  1.00  0.00     0.114 C 
HETATM   13  N4  UNL     1      -3.754   1.845  13.174  1.00  0.00    -0.217 NA
ENDROOT
BRANCH  13  14
HETATM   14  C9  UNL     1      -4.333   0.622  13.700  1.00  0.00     0.140 C 
BRANCH  14  15
HETATM   15  C10 UNL     1      -4.569   0.795  15.166  1.00  0.00     0.180 C 
BRANCH  15  16
HETATM   16  O2  UNL     1      -4.968  -0.437  15.728  1.00  0.00    -0.400 OA
ATOM     17  H2  UNL     1      -5.674  -0.807  15.212  1.00  0.00     0.209 HD
ENDBRANCH  15  16
ENDBRANCH  14  15
ENDBRANCH  13  14
TORSDOF 3
ENDMDL
MODEL 5
REMARK VINA RESULT: -6.118280650      2.877      5.314
REMARK  3 active torsions:
REMARK  status: ('A' for Active; 'I' for Inactive)
REMARK    1  A    between atoms: N4_13  and  C9_14 
REMARK    2  A    between atoms: C9_14  and  C10_15 
REMARK    3  A    between atoms: C10_15  and  O2_16 
ROOT
HETATM    1  N1  UNL     1      -2.816   4.687   8.248  1.00  0.00    -0.171 NA
HETATM    2  C1  UNL     1      -2.704   4.557   9.399  1.00  0.00     0.197 C 
HETATM    3  N2  UNL     1      -2.549   4.394  10.782  1.00  0.00    -0.230 N 
HETATM    4  C2  UNL     1      -3.738   4.502  11.590  1.00  0.00     0.297 C 
HETATM    5  N3  UNL     1      -4.885   3.787  11.043  1.00  0.00    -0.079 NA
HETATM    6  O1  UNL     1      -5.255   2.723  11.747  1.00  0.00    -0.285 OA
HETATM    7  C3  UNL     1      -5.112   1.491  11.090  1.00  0.00     0.196 C 
HETATM    8  C4  UNL     1      -4.243   0.514  11.836  1.00  0.00     0.028 C 
HETATM    9  C5  UNL     1      -3.165  -0.141  11.041  1.00  0.00     0.002 C 
HETATM   10  C6  UNL     1      -1.766   0.458  11.307  1.00  0.00     0.001 C 
HETATM   11  C7  UNL     1      -1.985   1.938  11.176  1.00  0.00     0.016 C 
HETATM   12  C8  UNL     1      -0.785   2.801  10.991  1.00  0.00     0.114 C 
HETATM   13  N4  UNL     1      -1.256   4.153  11.247  1.00  0.00    -0.217 NA
ENDROOT
BRANCH  13  14
HETATM   14  C9  UNL     1      -0.294   5.066  10.656  1.00  0.00     0.140 C 
BRANCH  14  15
HETATM   15  C10 UNL     1       1.041   4.827  11.285  1.00  0.00     0.180 C 
BRANCH  15  16
HETATM   16  O2  UNL     1       1.043   5.347  12.598  1.00  0.00    -0.400 OA
ATOM     17  H2  UNL     1       1.593   4.806  13.152  1.00  0.00     0.209 HD
ENDBRANCH  15  16
ENDBRANCH  14  15
ENDBRANCH  13  14
TORSDOF 3
ENDMDL
