MODEL 1
REMARK VINA RESULT: -6.342644180      0.000      0.000
REMARK  4 active torsions:
REMARK  status: ('A' for Active; 'I' for Inactive)
REMARK    1  A    between atoms: O1_1  and  C1_3 
REMARK    2  A    between atoms: C1_3  and  C2_4 
REMARK    3  A    between atoms: C3_6  and  N1_7 
REMARK    4  A    between atoms: C10_17  and  O4_18 
ROOT
HETATM    1  C2  UNL     1      -3.318   0.345  12.365  1.00  0.00     0.179 C 
HETATM    2  O2  UNL     1      -3.639   1.442  13.107  1.00  0.00    -0.355 OA
HETATM    3  C3  UNL     1      -4.486   2.352  12.554  1.00  0.00     0.246 C 
HETATM    4  C7  UNL     1      -3.877   3.311  11.591  1.00  0.00     0.090 C 
HETATM    5  C8  UNL     1      -2.450   3.060  11.259  1.00  0.00     0.158 A 
HETATM    6  O3  UNL     1      -1.616   2.331  12.062  1.00  0.00    -0.372 OA
HETATM    7  C9  UNL     1      -2.080   1.755  10.777  1.00  0.00     0.182 A 
HETATM    8  C10 UNL     1      -3.068   0.650  10.896  1.00  0.00     0.180 C 
ENDROOT
BRANCH   3   9
HETATM    9  N1  UNL     1      -5.058   3.141  13.649  1.00  0.00    -0.274 N 
HETATM   10  C4  UNL     1      -5.048   2.835  14.962  1.00  0.00     0.114 A 
HETATM   11  C5  UNL     1      -5.687   3.822  15.691  1.00  0.00     0.037 A 
HETATM   12  C6  UNL     1      -6.087   4.749  14.751  1.00  0.00     0.108 A 
HETATM   13  N2  UNL     1      -5.691   4.297  13.561  1.00  0.00    -0.308 N 
ATOM     14  H2  UNL     1      -5.857   4.789  12.682  1.00  0.00     0.186 HD
ENDBRANCH   3   9
BRANCH   1  15
HETATM   15  C1  UNL     1      -4.244  -0.830  12.542  1.00  0.00     0.198 C 
BRANCH  15  16
HETATM   16  O1  UNL     1      -3.950  -1.911  11.753  1.00  0.00    -0.398 OA
ATOM     17  H1  UNL     1      -4.536  -2.034  11.016  1.00  0.00     0.209 HD
ENDBRANCH  15  16
ENDBRANCH   1  15
BRANCH   8  18
HETATM   18  O4  UNL     1      -4.222   0.818  10.173  1.00  0.00    -0.390 OA
ATOM     19  H4  UNL     1      -4.207   0.375   9.333  1.00  0.00     0.210 HD
ENDBRANCH   8  18
TORSDOF 4
ENDMDL
MODEL 2
REMARK VINA RESULT: -6.236643660      1.278      2.800
REMARK  4 active torsions:
REMARK  status: ('A' for Active; 'I' for Inactive)
REMARK    1  A    between atoms: O1_1  and  C1_3 
REMARK    2  A    between atoms: C1_3  and  C2_4 
REMARK    3  A    between atoms: C3_6  and  N1_7 
REMARK    4  A    between atoms: C10_17  and  O4_18 
ROOT
HETATM    1  C2  UNL     1      -2.511   2.150  10.789  1.00  0.00     0.179 C 
HETATM    2  O2  UNL     1      -3.560   2.505  11.584  1.00  0.00    -0.355 OA
HETATM    3  C3  UNL     1      -3.688   1.871  12.781  1.00  0.00     0.246 C 
HETATM    4  C7  UNL     1      -4.309   0.518  12.742  1.00  0.00     0.090 C 
HETATM    5  C8  UNL     1      -4.584  -0.016  11.382  1.00  0.00     0.158 A 
HETATM    6  O3  UNL     1      -4.702   0.782  10.278  1.00  0.00    -0.372 OA
HETATM    7  C9  UNL     1      -3.500  -0.072  10.436  1.00  0.00     0.182 A 
HETATM    8  C10 UNL     1      -2.243   0.654  10.758  1.00  0.00     0.180 C 
ENDROOT
BRANCH   3   9
HETATM    9  N1  UNL     1      -4.531   2.711  13.635  1.00  0.00    -0.274 N 
HETATM   10  C4  UNL     1      -4.823   2.513  14.936  1.00  0.00     0.114 A 
HETATM   11  C5  UNL     1      -5.653   3.518  15.402  1.00  0.00     0.037 A 
HETATM   12  C6  UNL     1      -5.852   4.342  14.313  1.00  0.00     0.108 A 
HETATM   13  N2  UNL     1      -5.167   3.819  13.295  1.00  0.00    -0.308 N 
ATOM     14  H2  UNL     1      -5.138   4.227  12.361  1.00  0.00     0.186 HD
ENDBRANCH   3   9
BRANCH   1  15
HETATM   15  C1  UNL     1      -1.249   2.940  11.021  1.00  0.00     0.198 C 
BRANCH  15  16
HETATM   16  O1  UNL     1      -0.654   2.719  12.235  1.00  0.00    -0.398 OA
ATOM     17  H1  UNL     1      -0.570   3.492  12.781  1.00  0.00     0.209 HD
ENDBRANCH  15  16
ENDBRANCH   1  15
BRANCH   8  18
HETATM   18  O4  UNL     1      -1.574   0.200  11.868  1.00  0.00    -0.390 OA
ATOM     19  H4  UNL     1      -2.152  -0.036  12.585  1.00  0.00     0.210 HD
ENDBRANCH   8  18
TORSDOF 4
ENDMDL
MODEL 3
REMARK VINA RESULT: -6.165380613      1.869      3.606
REMARK  4 active torsions:
REMARK  status: ('A' for Active; 'I' for Inactive)
REMARK    1  A    between atoms: O1_1  and  C1_3 
REMARK    2  A    between atoms: C1_3  and  C2_4 
REMARK    3  A    between atoms: C3_6  and  N1_7 
REMARK    4  A    between atoms: C10_17  and  O4_18 
ROOT
HETATM    1  C2  UNL     1      -4.673   3.996  11.744  1.00  0.00     0.179 C 
HETATM    2  O2  UNL     1      -5.297   3.436  12.820  1.00  0.00    -0.355 OA
HETATM    3  C3  UNL     1      -4.528   2.748  13.707  1.00  0.00     0.246 C 
HETATM    4  C7  UNL     1      -4.171   1.355  13.320  1.00  0.00     0.090 C 
HETATM    5  C8  UNL     1      -4.590   0.947  11.953  1.00  0.00     0.158 A 
HETATM    6  O3  UNL     1      -5.589   1.575  11.262  1.00  0.00    -0.372 OA
HETATM    7  C9  UNL     1      -4.180   1.764  10.840  1.00  0.00     0.182 A 
HETATM    8  C10 UNL     1      -3.608   3.107  11.122  1.00  0.00     0.180 C 
ENDROOT
BRANCH   3   9
HETATM    9  N1  UNL     1      -5.275   2.672  14.966  1.00  0.00    -0.274 N 
HETATM   10  C4  UNL     1      -6.014   3.646  15.532  1.00  0.00     0.114 A 
HETATM   11  C5  UNL     1      -6.568   3.202  16.720  1.00  0.00     0.037 A 
HETATM   12  C6  UNL     1      -6.126   1.901  16.848  1.00  0.00     0.108 A 
HETATM   13  N2  UNL     1      -5.365   1.639  15.785  1.00  0.00    -0.308 N 
ATOM     14  H2  UNL     1      -4.905   0.742  15.622  1.00  0.00     0.186 HD
ENDBRANCH   3   9
BRANCH   1  15
HETATM   15  C1  UNL     1      -4.171   5.399  11.965  1.00  0.00     0.198 C 
BRANCH  15  16
HETATM   16  O1  UNL     1      -2.999   5.693  11.321  1.00  0.00    -0.398 OA
ATOM     17  H1  UNL     1      -2.961   6.566  10.949  1.00  0.00     0.209 HD
ENDBRANCH  15  16
ENDBRANCH   1  15
BRANCH   8  18
HETATM   18  O4  UNL     1      -2.427   3.104  11.822  1.00  0.00    -0.390 OA
ATOM     19  H4  UNL     1      -1.659   3.139  11.264  1.00  0.00     0.210 HD
ENDBRANCH   8  18
TORSDOF 4
ENDMDL
MODEL 4
REMARK VINA RESULT: -6.143557996      1.616      2.078
REMARK  4 active torsions:
REMARK  status: ('A' for Active; 'I' for Inactive)
REMARK    1  A    between atoms: O1_1  and  C1_3 
REMARK    2  A    between atoms: C1_3  and  C2_4 
REMARK    3  A    between atoms: C3_6  and  N1_7 
REMARK    4  A    between atoms: C10_17  and  O4_18 
ROOT
HETATM    1  C2  UNL     1      -3.848   1.845  12.587  1.00  0.00     0.179 C 
HETATM    2  O2  UNL     1      -4.111   2.791  13.533  1.00  0.00    -0.355 OA
HETATM    3  C3  UNL     1      -5.340   3.375  13.517  1.00  0.00     0.246 C 
HETATM    4  C7  UNL     1      -5.532   4.466  12.521  1.00  0.00     0.090 C 
HETATM    5  C8  UNL     1      -4.396   4.681  11.586  1.00  0.00     0.158 A 
HETATM    6  O3  UNL     1      -3.121   4.268  11.856  1.00  0.00    -0.372 OA
HETATM    7  C9  UNL     1      -3.915   3.557  10.825  1.00  0.00     0.182 A 
HETATM    8  C10 UNL     1      -4.377   2.196  11.206  1.00  0.00     0.180 C 
ENDROOT
BRANCH   3   9
HETATM    9  N1  UNL     1      -5.568   3.952  14.844  1.00  0.00    -0.274 N 
HETATM   10  C4  UNL     1      -5.943   5.216  15.126  1.00  0.00     0.114 A 
HETATM   11  C5  UNL     1      -6.057   5.390  16.494  1.00  0.00     0.037 A 
HETATM   12  C6  UNL     1      -5.731   4.162  17.033  1.00  0.00     0.108 A 
HETATM   13  N2  UNL     1      -5.450   3.349  16.014  1.00  0.00    -0.308 N 
ATOM     14  H2  UNL     1      -5.175   2.373  16.125  1.00  0.00     0.186 HD
ENDBRANCH   3   9
BRANCH   1  15
HETATM   15  C1  UNL     1      -4.210   0.437  12.984  1.00  0.00     0.198 C 
BRANCH  15  16
HETATM   16  O1  UNL     1      -4.279  -0.448  11.942  1.00  0.00    -0.398 OA
ATOM     17  H1  UNL     1      -4.772  -1.239  12.127  1.00  0.00     0.209 HD
ENDBRANCH  15  16
ENDBRANCH   1  15
BRANCH   8  18
HETATM   18  O4  UNL     1      -5.725   1.976  11.069  1.00  0.00    -0.390 OA
ATOM     19  H4  UNL     1      -6.143   2.575  10.461  1.00  0.00     0.210 HD
ENDBRANCH   8  18
TORSDOF 4
ENDMDL
MODEL 5
REMARK VINA RESULT: -6.115970100      1.678      2.044
REMARK  4 active torsions:
REMARK  status: ('A' for Active; 'I' for Inactive)
REMARK    1  A    between atoms: O1_1  and  C1_3 
REMARK    2  A    between atoms: C1_3  and  C2_4 
REMARK    3  A    between atoms: C3_6  and  N1_7 
REMARK    4  A    between atoms: C10_17  and  O4_18 
ROOT
HETATM    1  C2  UNL     1      -3.834   1.826  12.549  1.00  0.00     0.179 C 
HETATM    2  O2  UNL     1      -4.128   2.606  13.628  1.00  0.00    -0.355 OA
HETATM    3  C3  UNL     1      -5.394   3.094  13.727  1.00  0.00     0.246 C 
HETATM    4  C7  UNL     1      -5.698   4.297  12.903  1.00  0.00     0.090 C 
HETATM    5  C8  UNL     1      -4.615   4.725  11.979  1.00  0.00     0.158 A 
HETATM    6  O3  UNL     1      -3.304   4.374  12.153  1.00  0.00    -0.372 OA
HETATM    7  C9  UNL     1      -4.085   3.759  11.053  1.00  0.00     0.182 A 
HETATM    8  C10 UNL     1      -4.436   2.327  11.247  1.00  0.00     0.180 C 
ENDROOT
BRANCH   3   9
HETATM    9  N1  UNL     1      -5.613   3.461  15.128  1.00  0.00    -0.274 N 
HETATM   10  C4  UNL     1      -5.786   2.622  16.170  1.00  0.00     0.114 A 
HETATM   11  C5  UNL     1      -5.967   3.338  17.340  1.00  0.00     0.037 A 
HETATM   12  C6  UNL     1      -5.896   4.662  16.956  1.00  0.00     0.108 A 
HETATM   13  N2  UNL     1      -5.686   4.677  15.639  1.00  0.00    -0.308 N 
ATOM     14  H2  UNL     1      -5.592   5.531  15.089  1.00  0.00     0.186 HD
ENDBRANCH   3   9
BRANCH   1  15
HETATM   15  C1  UNL     1      -4.082   0.353  12.750  1.00  0.00     0.198 C 
BRANCH  15  16
HETATM   16  O1  UNL     1      -4.249  -0.359  11.592  1.00  0.00    -0.398 OA
ATOM     17  H1  UNL     1      -4.943  -1.007  11.623  1.00  0.00     0.209 HD
ENDBRANCH  15  16
ENDBRANCH   1  15
BRANCH   8  18
HETATM   18  O4  UNL     1      -5.770   2.030  11.116  1.00  0.00    -0.390 OA
ATOM     19  H4  UNL     1      -6.012   1.204  11.518  1.00  0.00     0.210 HD
ENDBRANCH   8  18
TORSDOF 4
ENDMDL
