MODEL 1
REMARK VINA RESULT: -6.130503017      0.000      0.000
REMARK  3 active torsions:
REMARK  status: ('A' for Active; 'I' for Inactive)
REMARK    1  A    between atoms: C5_10  and  C6_11 
REMARK    2  A    between atoms: C9_16  and  C10_17 
REMARK    3  A    between atoms: C10_17  and  O2_18 
ROOT
HETATM    1  N1  UNL     1      -3.838   0.505  16.184  1.00  0.00    -0.195 NA
HETATM    2  C1  UNL     1      -4.506   1.104  15.453  1.00  0.00     0.085 C 
HETATM    3  C2  UNL     1      -5.370   1.854  14.503  1.00  0.00     0.197 C 
HETATM    4  N2  UNL     1      -6.356   2.523  15.327  1.00  0.00    -0.369 N 
ATOM      5  H2  UNL     1      -7.210   2.047  15.620  1.00  0.00     0.161 HD
HETATM    6  C3  UNL     1      -6.094   3.863  15.715  1.00  0.00     0.172 C 
HETATM    7  N3  UNL     1      -5.553   4.638  14.838  1.00  0.00    -0.386 N 
ATOM      8  H3  UNL     1      -5.341   5.611  15.062  1.00  0.00     0.160 HD
HETATM    9  C4  UNL     1      -5.253   4.101  13.537  1.00  0.00     0.130 C 
HETATM   10  C5  UNL     1      -4.559   2.762  13.664  1.00  0.00     0.067 C 
ENDROOT
BRANCH  10  11
HETATM   11  C6  UNL     1      -4.136   2.221  12.338  1.00  0.00     0.106 C 
HETATM   12  C7  UNL     1      -2.681   2.221  12.181  1.00  0.00     0.074 C 
HETATM   13  N4  UNL     1      -1.529   2.233  12.051  1.00  0.00    -0.196 NA
HETATM   14  C8  UNL     1      -4.821   2.753  11.126  1.00  0.00     0.196 C 
HETATM   15  O1  UNL     1      -5.638   1.625  11.041  1.00  0.00    -0.380 OA
HETATM   16  C9  UNL     1      -4.739   0.957  11.870  1.00  0.00     0.170 C 
BRANCH  16  17
HETATM   17  C10 UNL     1      -3.818   0.099  10.989  1.00  0.00     0.197 C 
BRANCH  17  18
HETATM   18  O2  UNL     1      -3.941  -1.208  11.469  1.00  0.00    -0.398 OA
ATOM     19  H2  UNL     1      -4.613  -1.618  10.938  1.00  0.00     0.209 HD
ENDBRANCH  17  18
ENDBRANCH  16  17
ENDBRANCH  10  11
TORSDOF 3
ENDMDL
MODEL 2
REMARK VINA RESULT: -5.645636973      1.196      2.415
REMARK  3 active torsions:
REMARK  status: ('A' for Active; 'I' for Inactive)
REMARK    1  A    between atoms: C5_10  and  C6_11 
REMARK    2  A    between atoms: C9_16  and  C10_17 
REMARK    3  A    between atoms: C10_17  and  O2_18 
ROOT
HETATM    1  N1  UNL     1      -6.788   4.524  13.489  1.00  0.00    -0.195 NA
HETATM    2  C1  UNL     1      -5.907   3.848  13.814  1.00  0.00     0.085 C 
HETATM    3  C2  UNL     1      -4.759   2.992  14.218  1.00  0.00     0.197 C 
HETATM    4  N2  UNL     1      -4.740   3.037  15.667  1.00  0.00    -0.369 N 
ATOM      5  H2  UNL     1      -4.265   3.790  16.165  1.00  0.00     0.161 HD
HETATM    6  C3  UNL     1      -5.405   1.998  16.369  1.00  0.00     0.172 C 
HETATM    7  N3  UNL     1      -5.302   0.803  15.895  1.00  0.00    -0.386 N 
ATOM      8  H3  UNL     1      -5.760   0.018  16.358  1.00  0.00     0.160 HD
HETATM    9  C4  UNL     1      -4.529   0.602  14.698  1.00  0.00     0.130 C 
HETATM   10  C5  UNL     1      -4.895   1.634  13.652  1.00  0.00     0.067 C 
ENDROOT
BRANCH  10  11
HETATM   11  C6  UNL     1      -4.190   1.394  12.357  1.00  0.00     0.106 C 
HETATM   12  C7  UNL     1      -2.878   2.039  12.315  1.00  0.00     0.074 C 
HETATM   13  N4  UNL     1      -1.844   2.561  12.277  1.00  0.00    -0.196 NA
HETATM   14  C8  UNL     1      -4.958   1.625  11.101  1.00  0.00     0.196 C 
HETATM   15  O1  UNL     1      -5.187   0.258  10.939  1.00  0.00    -0.380 OA
HETATM   16  C9  UNL     1      -4.142   0.016  11.828  1.00  0.00     0.170 C 
BRANCH  16  17
HETATM   17  C10 UNL     1      -2.881  -0.310  11.013  1.00  0.00     0.197 C 
BRANCH  17  18
HETATM   18  O2  UNL     1      -2.781  -1.705  11.007  1.00  0.00    -0.398 OA
ATOM     19  H2  UNL     1      -3.069  -1.982  10.145  1.00  0.00     0.209 HD
ENDBRANCH  17  18
ENDBRANCH  16  17
ENDBRANCH  10  11
TORSDOF 3
ENDMDL
MODEL 3
REMARK VINA RESULT: -5.637108534      1.712      2.500
REMARK  3 active torsions:
REMARK  status: ('A' for Active; 'I' for Inactive)
REMARK    1  A    between atoms: C5_10  and  C6_11 
REMARK    2  A    between atoms: C9_16  and  C10_17 
REMARK    3  A    between atoms: C10_17  and  O2_18 
ROOT
HETATM    1  N1  UNL     1      -5.317   3.842  16.471  1.00  0.00    -0.195 NA
HETATM    2  C1  UNL     1      -5.587   3.844  15.346  1.00  0.00     0.085 C 
HETATM    3  C2  UNL     1      -5.941   3.824  13.902  1.00  0.00     0.197 C 
HETATM    4  N2  UNL     1      -6.827   4.956  13.709  1.00  0.00    -0.369 N 
ATOM      5  H2  UNL     1      -7.828   4.878  13.886  1.00  0.00     0.161 HD
HETATM    6  C3  UNL     1      -6.252   6.176  13.267  1.00  0.00     0.172 C 
HETATM    7  N3  UNL     1      -5.316   6.104  12.383  1.00  0.00    -0.386 N 
ATOM      8  H3  UNL     1      -4.867   6.949  12.029  1.00  0.00     0.160 HD
HETATM    9  C4  UNL     1      -4.920   4.805  11.904  1.00  0.00     0.130 C 
HETATM   10  C5  UNL     1      -4.724   3.852  13.064  1.00  0.00     0.067 C 
ENDROOT
BRANCH  10  11
HETATM   11  C6  UNL     1      -4.209   2.524  12.617  1.00  0.00     0.106 C 
HETATM   12  C7  UNL     1      -4.339   1.503  13.657  1.00  0.00     0.074 C 
HETATM   13  N4  UNL     1      -4.430   0.697  14.485  1.00  0.00    -0.196 NA
HETATM   14  C8  UNL     1      -2.867   2.486  11.972  1.00  0.00     0.196 C 
HETATM   15  O1  UNL     1      -3.432   2.411  10.699  1.00  0.00    -0.380 OA
HETATM   16  C9  UNL     1      -4.628   2.016  11.294  1.00  0.00     0.170 C 
BRANCH  16  17
HETATM   17  C10 UNL     1      -4.731   0.486  11.201  1.00  0.00     0.197 C 
BRANCH  17  18
HETATM   18  O2  UNL     1      -4.681   0.183   9.837  1.00  0.00    -0.398 OA
ATOM     19  H2  UNL     1      -5.507  -0.240   9.635  1.00  0.00     0.209 HD
ENDBRANCH  17  18
ENDBRANCH  16  17
ENDBRANCH  10  11
TORSDOF 3
ENDMDL
MODEL 4
REMARK VINA RESULT: -5.611288735      2.780      4.610
REMARK  3 active torsions:
REMARK  status: ('A' for Active; 'I' for Inactive)
REMARK    1  A    between atoms: C5_10  and  C6_11 
REMARK    2  A    between atoms: C9_16  and  C10_17 
REMARK    3  A    between atoms: C10_17  and  O2_18 
ROOT
HETATM    1  N1  UNL     1      -5.469   1.984  11.308  1.00  0.00    -0.195 NA
HETATM    2  C1  UNL     1      -5.210   2.826  12.059  1.00  0.00     0.085 C 
HETATM    3  C2  UNL     1      -4.859   3.895  13.031  1.00  0.00     0.197 C 
HETATM    4  N2  UNL     1      -4.680   5.093  12.235  1.00  0.00    -0.369 N 
ATOM      5  H2  UNL     1      -3.787   5.301  11.789  1.00  0.00     0.161 HD
HETATM    6  C3  UNL     1      -5.791   5.966  12.097  1.00  0.00     0.172 C 
HETATM    7  N3  UNL     1      -6.532   6.151  13.136  1.00  0.00    -0.386 N 
ATOM      8  H3  UNL     1      -7.344   6.768  13.095  1.00  0.00     0.160 HD
HETATM    9  C4  UNL     1      -6.189   5.468  14.356  1.00  0.00     0.130 C 
HETATM   10  C5  UNL     1      -5.895   4.009  14.080  1.00  0.00     0.067 C 
ENDROOT
BRANCH  10  11
HETATM   11  C6  UNL     1      -5.639   3.242  15.335  1.00  0.00     0.106 C 
HETATM   12  C7  UNL     1      -5.583   4.110  16.511  1.00  0.00     0.074 C 
HETATM   13  N4  UNL     1      -5.527   4.799  17.442  1.00  0.00    -0.196 NA
HETATM   14  C8  UNL     1      -4.521   2.256  15.325  1.00  0.00     0.196 C 
HETATM   15  O1  UNL     1      -5.405   1.190  15.154  1.00  0.00    -0.380 OA
HETATM   16  C9  UNL     1      -6.434   2.023  15.589  1.00  0.00     0.170 C 
BRANCH  16  17
HETATM   17  C10 UNL     1      -6.696   1.730  17.074  1.00  0.00     0.197 C 
BRANCH  17  18
HETATM   18  O2  UNL     1      -7.086   0.389  17.135  1.00  0.00    -0.398 OA
ATOM     19  H2  UNL     1      -6.311  -0.096  17.393  1.00  0.00     0.209 HD
ENDBRANCH  17  18
ENDBRANCH  16  17
ENDBRANCH  10  11
TORSDOF 3
ENDMDL
MODEL 5
REMARK VINA RESULT: -5.587927219      1.947      3.345
REMARK  3 active torsions:
REMARK  status: ('A' for Active; 'I' for Inactive)
REMARK    1  A    between atoms: C5_10  and  C6_11 
REMARK    2  A    between atoms: C9_16  and  C10_17 
REMARK    3  A    between atoms: C10_17  and  O2_18 
ROOT
HETATM    1  N1  UNL     1      -6.824   5.508  13.466  1.00  0.00    -0.195 NA
HETATM    2  C1  UNL     1      -6.245   4.913  14.273  1.00  0.00     0.085 C 
HETATM    3  C2  UNL     1      -5.481   4.154  15.298  1.00  0.00     0.197 C 
HETATM    4  N2  UNL     1      -5.848   4.751  16.568  1.00  0.00    -0.369 N 
ATOM      5  H2  UNL     1      -5.366   5.578  16.921  1.00  0.00     0.161 HD
HETATM    6  C3  UNL     1      -6.900   4.144  17.303  1.00  0.00     0.172 C 
HETATM    7  N3  UNL     1      -6.951   2.856  17.311  1.00  0.00    -0.386 N 
ATOM      8  H3  UNL     1      -7.686   2.366  17.823  1.00  0.00     0.160 HD
HETATM    9  C4  UNL     1      -5.948   2.123  16.584  1.00  0.00     0.130 C 
HETATM   10  C5  UNL     1      -5.767   2.707  15.199  1.00  0.00     0.067 C 
ENDROOT
BRANCH  10  11
HETATM   11  C6  UNL     1      -4.811   1.909  14.375  1.00  0.00     0.106 C 
HETATM   12  C7  UNL     1      -4.683   0.534  14.856  1.00  0.00     0.074 C 
HETATM   13  N4  UNL     1      -4.571  -0.553  15.244  1.00  0.00    -0.196 NA
HETATM   14  C8  UNL     1      -3.482   2.515  14.079  1.00  0.00     0.196 C 
HETATM   15  O1  UNL     1      -3.887   2.883  12.796  1.00  0.00    -0.380 OA
HETATM   16  C9  UNL     1      -4.932   1.968  12.904  1.00  0.00     0.170 C 
BRANCH  16  17
HETATM   17  C10 UNL     1      -4.520   0.678  12.178  1.00  0.00     0.197 C 
BRANCH  17  18
HETATM   18  O2  UNL     1      -5.023   0.795  10.878  1.00  0.00    -0.398 OA
ATOM     19  H2  UNL     1      -4.277   0.684  10.301  1.00  0.00     0.209 HD
ENDBRANCH  17  18
ENDBRANCH  16  17
ENDBRANCH  10  11
TORSDOF 3
ENDMDL
