MODEL 1
REMARK VINA RESULT: -6.138857270      0.000      0.000
REMARK  15 active torsions:
REMARK  status: ('A' for Active; 'I' for Inactive)
REMARK    1  A    between atoms: N1_2  and  C2_5 
REMARK    2  A    between atoms: C2_5  and  C3_6 
REMARK    3  A    between atoms: C3_6  and  C4_7 
REMARK    4  A    between atoms: C4_7  and  C5_8 
REMARK    5  A    between atoms: C5_8  and  C6_9 
REMARK    6  A    between atoms: N2_10  and  C7_12 
REMARK    7  A    between atoms: C7_12  and  C8_13 
REMARK    8  A    between atoms: C7_12  and  C17_30 
REMARK    9  A    between atoms: C8_13  and  N3_14 
REMARK   10  A    between atoms: N3_14  and  C9_15 
REMARK   11  A    between atoms: N3_14  and  C11_21 
REMARK   12  A    between atoms: C9_15  and  C10_16 
REMARK   13  A    between atoms: C10_16  and  N4_17 
REMARK   14  A    between atoms: C11_21  and  C12_22 
REMARK   15  A    between atoms: C15_27  and  O1_28 
ROOT
HETATM    1  C7  UNL     1      26.945  23.708  16.183  1.00  0.00     0.049 C 
ENDROOT
BRANCH   1   2
HETATM    2  N2  UNL     1      26.697  25.029  15.815  1.00  0.00    -0.371 N 
HETATM    3  C6  UNL     1      27.014  25.770  14.726  1.00  0.00     0.061 C 
ATOM      4  H2  UNL     1      26.164  25.548  16.513  1.00  0.00     0.164 HD
BRANCH   3   5
HETATM    5  C5  UNL     1      28.439  26.183  14.441  1.00  0.00     0.044 C 
BRANCH   5   6
HETATM    6  C4  UNL     1      28.508  27.048  13.177  1.00  0.00     0.007 C 
BRANCH   6   7
HETATM    7  C3  UNL     1      28.058  26.281  11.981  1.00  0.00     0.028 C 
BRANCH   7   8
HETATM    8  C2  UNL     1      27.324  27.155  10.981  1.00  0.00     0.231 C 
BRANCH   8   9
HETATM    9  N1  UNL     1      26.117  27.641  11.667  1.00  0.00    -0.079 N 
HETATM   10  C1  UNL     1      25.563  28.711  10.856  1.00  0.00     0.266 C 
ATOM     11  H12 UNL     1      26.291  27.920  12.632  1.00  0.00     0.276 HD
ATOM     12  H11 UNL     1      25.444  26.900  11.864  1.00  0.00     0.276 HD
ENDBRANCH   8   9
ENDBRANCH   7   8
ENDBRANCH   6   7
ENDBRANCH   5   6
ENDBRANCH   3   5
ENDBRANCH   1   2
BRANCH   1  13
HETATM   13  C8  UNL     1      27.314  22.728  15.137  1.00  0.00     0.330 C 
BRANCH  13  14
HETATM   14  N3  UNL     1      26.277  22.267  14.245  1.00  0.00     0.101 N 
BRANCH  14  15
HETATM   15  C9  UNL     1      26.266  22.927  12.973  1.00  0.00     0.300 C 
BRANCH  15  16
HETATM   16  C10 UNL     1      26.877  22.040  11.880  1.00  0.00     0.259 C 
BRANCH  16  17
HETATM   17  N4  UNL     1      28.171  22.665  11.572  1.00  0.00    -0.078 N 
ATOM     18  H43 UNL     1      28.523  22.453  10.639  1.00  0.00     0.274 HD
ATOM     19  H42 UNL     1      28.124  23.677  11.449  1.00  0.00     0.274 HD
ATOM     20  H41 UNL     1      28.789  22.367  12.327  1.00  0.00     0.274 HD
ENDBRANCH  16  17
ENDBRANCH  15  16
ENDBRANCH  14  15
BRANCH  14  21
HETATM   21  C11 UNL     1      26.318  20.829  14.129  1.00  0.00     0.332 C 
BRANCH  21  22
HETATM   22  C12 UNL     1      25.348  20.061  14.913  1.00  0.00     0.071 A 
HETATM   23  N5  UNL     1      24.420  20.474  15.770  1.00  0.00    -0.365 N 
HETATM   24  C13 UNL     1      23.794  19.410  16.297  1.00  0.00     0.091 A 
ATOM     25  H5  UNL     1      24.216  21.449  15.993  1.00  0.00     0.165 HD
HETATM   26  C14 UNL     1      24.336  18.270  15.762  1.00  0.00     0.055 A 
HETATM   27  C15 UNL     1      25.307  18.679  14.897  1.00  0.00     0.093 A 
BRANCH  27  28
HETATM   28  O1  UNL     1      26.127  17.832  14.121  1.00  0.00    -0.354 OA
HETATM   29  C16 UNL     1      27.285  17.292  14.722  1.00  0.00     0.210 C 
ENDBRANCH  27  28
ENDBRANCH  21  22
ENDBRANCH  14  21
ENDBRANCH  13  14
ENDBRANCH   1  13
BRANCH   1  30
HETATM   30  C17 UNL     1      26.272  23.262  17.411  1.00  0.00     0.004 A 
HETATM   31  C18 UNL     1      26.494  22.037  18.024  1.00  0.00     0.020 A 
HETATM   32  C19 UNL     1      25.805  21.652  19.156  1.00  0.00     0.075 A 
HETATM   33  C20 UNL     1      24.852  22.472  19.736  1.00  0.00     0.245 A 
HETATM   34  O2  UNL     1      24.216  22.129  20.770  1.00  0.00    -0.268 OA
HETATM   35  N6  UNL     1      24.638  23.650  19.146  1.00  0.00    -0.333 N 
HETATM   36  C21 UNL     1      25.295  24.043  18.050  1.00  0.00     0.104 A 
ATOM     37  H6  UNL     1      23.942  24.278  19.549  1.00  0.00     0.168 HD
ENDBRANCH   1  30
TORSDOF 15
ENDMDL
MODEL 2
REMARK VINA RESULT: -6.050562054      3.278      6.585
REMARK  15 active torsions:
REMARK  status: ('A' for Active; 'I' for Inactive)
REMARK    1  A    between atoms: N1_2  and  C2_5 
REMARK    2  A    between atoms: C2_5  and  C3_6 
REMARK    3  A    between atoms: C3_6  and  C4_7 
REMARK    4  A    between atoms: C4_7  and  C5_8 
REMARK    5  A    between atoms: C5_8  and  C6_9 
REMARK    6  A    between atoms: N2_10  and  C7_12 
REMARK    7  A    between atoms: C7_12  and  C8_13 
REMARK    8  A    between atoms: C7_12  and  C17_30 
REMARK    9  A    between atoms: C8_13  and  N3_14 
REMARK   10  A    between atoms: N3_14  and  C9_15 
REMARK   11  A    between atoms: N3_14  and  C11_21 
REMARK   12  A    between atoms: C9_15  and  C10_16 
REMARK   13  A    between atoms: C10_16  and  N4_17 
REMARK   14  A    between atoms: C11_21  and  C12_22 
REMARK   15  A    between atoms: C15_27  and  O1_28 
ROOT
HETATM    1  C7  UNL     1      27.210  22.055  14.489  1.00  0.00     0.049 C 
ENDROOT
BRANCH   1   2
HETATM    2  N2  UNL     1      26.852  20.788  14.031  1.00  0.00    -0.371 N 
HETATM    3  C6  UNL     1      27.560  19.685  13.689  1.00  0.00     0.061 C 
ATOM      4  H2  UNL     1      25.845  20.667  13.930  1.00  0.00     0.164 HD
BRANCH   3   5
HETATM    5  C5  UNL     1      28.425  19.654  12.451  1.00  0.00     0.044 C 
BRANCH   5   6
HETATM    6  C4  UNL     1      28.877  18.221  12.143  1.00  0.00     0.007 C 
BRANCH   6   7
HETATM    7  C3  UNL     1      29.214  18.068  10.700  1.00  0.00     0.028 C 
BRANCH   7   8
HETATM    8  C2  UNL     1      30.693  18.270  10.431  1.00  0.00     0.231 C 
BRANCH   8   9
HETATM    9  N1  UNL     1      31.407  17.548  11.495  1.00  0.00    -0.079 N 
HETATM   10  C1  UNL     1      32.796  17.972  11.445  1.00  0.00     0.266 C 
ATOM     11  H12 UNL     1      31.296  16.536  11.435  1.00  0.00     0.276 HD
ATOM     12  H11 UNL     1      30.985  17.673  12.415  1.00  0.00     0.276 HD
ENDBRANCH   8   9
ENDBRANCH   7   8
ENDBRANCH   6   7
ENDBRANCH   5   6
ENDBRANCH   3   5
ENDBRANCH   1   2
BRANCH   1  13
HETATM   13  C8  UNL     1      26.934  22.412  15.899  1.00  0.00     0.330 C 
BRANCH  13  14
HETATM   14  N3  UNL     1      27.019  21.367  16.891  1.00  0.00     0.101 N 
BRANCH  14  15
HETATM   15  C9  UNL     1      28.138  21.494  17.777  1.00  0.00     0.300 C 
BRANCH  15  16
HETATM   16  C10 UNL     1      28.042  20.499  18.941  1.00  0.00     0.259 C 
BRANCH  16  17
HETATM   17  N4  UNL     1      28.643  19.261  18.425  1.00  0.00    -0.078 N 
ATOM     18  H43 UNL     1      28.051  18.438  18.528  1.00  0.00     0.274 HD
ATOM     19  H42 UNL     1      28.712  19.227  17.408  1.00  0.00     0.274 HD
ATOM     20  H41 UNL     1      29.541  19.189  18.905  1.00  0.00     0.274 HD
ENDBRANCH  16  17
ENDBRANCH  15  16
ENDBRANCH  14  15
BRANCH  14  21
HETATM   21  C11 UNL     1      25.763  21.238  17.592  1.00  0.00     0.332 C 
BRANCH  21  22
HETATM   22  C12 UNL     1      24.724  20.417  16.967  1.00  0.00     0.071 A 
HETATM   23  N5  UNL     1      23.510  20.750  16.540  1.00  0.00    -0.365 N 
HETATM   24  C13 UNL     1      22.881  19.655  16.084  1.00  0.00     0.091 A 
ATOM     25  H5  UNL     1      23.117  21.692  16.557  1.00  0.00     0.165 HD
HETATM   26  C14 UNL     1      23.717  18.578  16.220  1.00  0.00     0.055 A 
HETATM   27  C15 UNL     1      24.868  19.056  16.772  1.00  0.00     0.093 A 
BRANCH  27  28
HETATM   28  O1  UNL     1      26.009  18.287  17.089  1.00  0.00    -0.354 OA
HETATM   29  C16 UNL     1      26.323  17.188  16.260  1.00  0.00     0.210 C 
ENDBRANCH  27  28
ENDBRANCH  21  22
ENDBRANCH  14  21
ENDBRANCH  13  14
ENDBRANCH   1  13
BRANCH   1  30
HETATM   30  C17 UNL     1      27.273  23.101  13.458  1.00  0.00     0.004 A 
HETATM   31  C18 UNL     1      27.631  24.419  13.703  1.00  0.00     0.020 A 
HETATM   32  C19 UNL     1      27.636  25.371  12.704  1.00  0.00     0.075 A 
HETATM   33  C20 UNL     1      27.281  25.056  11.404  1.00  0.00     0.245 A 
HETATM   34  O2  UNL     1      27.282  25.918  10.483  1.00  0.00    -0.268 OA
HETATM   35  N6  UNL     1      26.937  23.788  11.169  1.00  0.00    -0.333 N 
HETATM   36  C21 UNL     1      26.926  22.850  12.121  1.00  0.00     0.104 A 
ATOM     37  H6  UNL     1      26.670  23.522  10.220  1.00  0.00     0.168 HD
ENDBRANCH   1  30
TORSDOF 15
ENDMDL
MODEL 3
REMARK VINA RESULT: -5.932212788      4.672      8.030
REMARK  15 active torsions:
REMARK  status: ('A' for Active; 'I' for Inactive)
REMARK    1  A    between atoms: N1_2  and  C2_5 
REMARK    2  A    between atoms: C2_5  and  C3_6 
REMARK    3  A    between atoms: C3_6  and  C4_7 
REMARK    4  A    between atoms: C4_7  and  C5_8 
REMARK    5  A    between atoms: C5_8  and  C6_9 
REMARK    6  A    between atoms: N2_10  and  C7_12 
REMARK    7  A    between atoms: C7_12  and  C8_13 
REMARK    8  A    between atoms: C7_12  and  C17_30 
REMARK    9  A    between atoms: C8_13  and  N3_14 
REMARK   10  A    between atoms: N3_14  and  C9_15 
REMARK   11  A    between atoms: N3_14  and  C11_21 
REMARK   12  A    between atoms: C9_15  and  C10_16 
REMARK   13  A    between atoms: C10_16  and  N4_17 
REMARK   14  A    between atoms: C11_21  and  C12_22 
REMARK   15  A    between atoms: C15_27  and  O1_28 
ROOT
HETATM    1  C7  UNL     1      27.829  20.739  12.208  1.00  0.00     0.049 C 
ENDROOT
BRANCH   1   2
HETATM    2  N2  UNL     1      28.135  19.950  13.315  1.00  0.00    -0.371 N 
HETATM    3  C6  UNL     1      27.497  18.930  13.939  1.00  0.00     0.061 C 
ATOM      4  H2  UNL     1      29.027  20.191  13.747  1.00  0.00     0.164 HD
BRANCH   3   5
HETATM    5  C5  UNL     1      26.224  19.156  14.720  1.00  0.00     0.044 C 
BRANCH   5   6
HETATM    6  C4  UNL     1      26.422  18.786  16.195  1.00  0.00     0.007 C 
BRANCH   6   7
HETATM    7  C3  UNL     1      25.111  18.589  16.875  1.00  0.00     0.028 C 
BRANCH   7   8
HETATM    8  C2  UNL     1      24.104  17.883  15.988  1.00  0.00     0.231 C 
BRANCH   8   9
HETATM    9  N1  UNL     1      22.787  18.440  16.337  1.00  0.00    -0.079 N 
HETATM   10  C1  UNL     1      22.852  19.874  16.109  1.00  0.00     0.266 C 
ATOM     11  H12 UNL     1      22.490  18.200  17.282  1.00  0.00     0.276 HD
ATOM     12  H11 UNL     1      22.019  17.991  15.838  1.00  0.00     0.276 HD
ENDBRANCH   8   9
ENDBRANCH   7   8
ENDBRANCH   6   7
ENDBRANCH   5   6
ENDBRANCH   3   5
ENDBRANCH   1   2
BRANCH   1  13
HETATM   13  C8  UNL     1      28.379  20.364  10.885  1.00  0.00     0.330 C 
BRANCH  13  14
HETATM   14  N3  UNL     1      29.468  19.417  10.849  1.00  0.00     0.101 N 
BRANCH  14  15
HETATM   15  C9  UNL     1      29.142  18.178  10.206  1.00  0.00     0.300 C 
BRANCH  15  16
HETATM   16  C10 UNL     1      29.247  18.298   8.680  1.00  0.00     0.259 C 
BRANCH  16  17
HETATM   17  N4  UNL     1      27.976  17.763   8.175  1.00  0.00    -0.078 N 
ATOM     18  H43 UNL     1      28.081  17.081   7.424  1.00  0.00     0.274 HD
ATOM     19  H42 UNL     1      27.498  17.142   8.828  1.00  0.00     0.274 HD
ATOM     20  H41 UNL     1      27.433  18.587   7.913  1.00  0.00     0.274 HD
ENDBRANCH  16  17
ENDBRANCH  15  16
ENDBRANCH  14  15
BRANCH  14  21
HETATM   21  C11 UNL     1      30.653  20.035  10.303  1.00  0.00     0.332 C 
BRANCH  21  22
HETATM   22  C12 UNL     1      31.938  19.388  10.576  1.00  0.00     0.071 A 
HETATM   23  N5  UNL     1      32.329  18.666  11.621  1.00  0.00    -0.365 N 
HETATM   24  C13 UNL     1      33.616  18.318  11.466  1.00  0.00     0.091 A 
ATOM     25  H5  UNL     1      31.742  18.415  12.416  1.00  0.00     0.165 HD
HETATM   26  C14 UNL     1      34.073  18.833  10.281  1.00  0.00     0.055 A 
HETATM   27  C15 UNL     1      33.022  19.502   9.726  1.00  0.00     0.093 A 
BRANCH  27  28
HETATM   28  O1  UNL     1      33.045  20.191   8.494  1.00  0.00    -0.354 OA
HETATM   29  C16 UNL     1      34.301  20.526   7.941  1.00  0.00     0.210 C 
ENDBRANCH  27  28
ENDBRANCH  21  22
ENDBRANCH  14  21
ENDBRANCH  13  14
ENDBRANCH   1  13
BRANCH   1  30
HETATM   30  C17 UNL     1      27.509  22.143  12.506  1.00  0.00     0.004 A 
HETATM   31  C18 UNL     1      27.498  22.688  13.782  1.00  0.00     0.020 A 
HETATM   32  C19 UNL     1      27.152  24.004  14.009  1.00  0.00     0.075 A 
HETATM   33  C20 UNL     1      26.796  24.848  12.971  1.00  0.00     0.245 A 
HETATM   34  O2  UNL     1      26.478  26.052  13.168  1.00  0.00    -0.268 OA
HETATM   35  N6  UNL     1      26.807  24.323  11.743  1.00  0.00    -0.333 N 
HETATM   36  C21 UNL     1      27.140  23.051  11.501  1.00  0.00     0.104 A 
ATOM     37  H6  UNL     1      26.551  24.919  10.956  1.00  0.00     0.168 HD
ENDBRANCH   1  30
TORSDOF 15
ENDMDL
MODEL 4
REMARK VINA RESULT: -5.918431858      2.659      6.055
REMARK  15 active torsions:
REMARK  status: ('A' for Active; 'I' for Inactive)
REMARK    1  A    between atoms: N1_2  and  C2_5 
REMARK    2  A    between atoms: C2_5  and  C3_6 
REMARK    3  A    between atoms: C3_6  and  C4_7 
REMARK    4  A    between atoms: C4_7  and  C5_8 
REMARK    5  A    between atoms: C5_8  and  C6_9 
REMARK    6  A    between atoms: N2_10  and  C7_12 
REMARK    7  A    between atoms: C7_12  and  C8_13 
REMARK    8  A    between atoms: C7_12  and  C17_30 
REMARK    9  A    between atoms: C8_13  and  N3_14 
REMARK   10  A    between atoms: N3_14  and  C9_15 
REMARK   11  A    between atoms: N3_14  and  C11_21 
REMARK   12  A    between atoms: C9_15  and  C10_16 
REMARK   13  A    between atoms: C10_16  and  N4_17 
REMARK   14  A    between atoms: C11_21  and  C12_22 
REMARK   15  A    between atoms: C15_27  and  O1_28 
ROOT
HETATM    1  C7  UNL     1      27.273  24.077  13.642  1.00  0.00     0.049 C 
ENDROOT
BRANCH   1   2
HETATM    2  N2  UNL     1      27.846  24.414  14.867  1.00  0.00    -0.371 N 
HETATM    3  C6  UNL     1      27.994  23.756  16.041  1.00  0.00     0.061 C 
ATOM      4  H2  UNL     1      28.236  25.357  14.882  1.00  0.00     0.164 HD
BRANCH   3   5
HETATM    5  C5  UNL     1      26.809  23.443  16.925  1.00  0.00     0.044 C 
BRANCH   5   6
HETATM    6  C4  UNL     1      26.213  24.731  17.505  1.00  0.00     0.007 C 
BRANCH   6   7
HETATM    7  C3  UNL     1      25.083  24.427  18.427  1.00  0.00     0.028 C 
BRANCH   7   8
HETATM    8  C2  UNL     1      24.692  22.961  18.393  1.00  0.00     0.231 C 
BRANCH   8   9
HETATM    9  N1  UNL     1      24.267  22.617  19.758  1.00  0.00    -0.079 N 
HETATM   10  C1  UNL     1      25.357  21.880  20.375  1.00  0.00     0.266 C 
ATOM     11  H12 UNL     1      23.380  22.115  19.786  1.00  0.00     0.276 HD
ATOM     12  H11 UNL     1      23.975  23.429  20.303  1.00  0.00     0.276 HD
ENDBRANCH   8   9
ENDBRANCH   7   8
ENDBRANCH   6   7
ENDBRANCH   5   6
ENDBRANCH   3   5
ENDBRANCH   1   2
BRANCH   1  13
HETATM   13  C8  UNL     1      27.345  22.673  13.178  1.00  0.00     0.330 C 
BRANCH  13  14
HETATM   14  N3  UNL     1      26.222  21.810  13.455  1.00  0.00     0.101 N 
BRANCH  14  15
HETATM   15  C9  UNL     1      25.243  21.773  12.409  1.00  0.00     0.300 C 
BRANCH  15  16
HETATM   16  C10 UNL     1      25.883  22.028  11.037  1.00  0.00     0.259 C 
BRANCH  16  17
HETATM   17  N4  UNL     1      24.752  22.082  10.102  1.00  0.00    -0.078 N 
ATOM     18  H43 UNL     1      23.876  21.733  10.489  1.00  0.00     0.274 HD
ATOM     19  H42 UNL     1      24.421  23.027   9.905  1.00  0.00     0.274 HD
ATOM     20  H41 UNL     1      25.073  21.575   9.277  1.00  0.00     0.274 HD
ENDBRANCH  16  17
ENDBRANCH  15  16
ENDBRANCH  14  15
BRANCH  14  21
HETATM   21  C11 UNL     1      26.682  20.496  13.838  1.00  0.00     0.332 C 
BRANCH  21  22
HETATM   22  C12 UNL     1      26.587  20.134  15.254  1.00  0.00     0.071 A 
HETATM   23  N5  UNL     1      27.542  19.995  16.167  1.00  0.00    -0.365 N 
HETATM   24  C13 UNL     1      26.995  19.597  17.327  1.00  0.00     0.091 A 
ATOM     25  H5  UNL     1      28.536  20.163  16.012  1.00  0.00     0.165 HD
HETATM   26  C14 UNL     1      25.641  19.475  17.157  1.00  0.00     0.055 A 
HETATM   27  C15 UNL     1      25.388  19.811  15.860  1.00  0.00     0.093 A 
BRANCH  27  28
HETATM   28  O1  UNL     1      24.116  19.825  15.247  1.00  0.00    -0.354 OA
HETATM   29  C16 UNL     1      22.975  19.856  16.080  1.00  0.00     0.210 C 
ENDBRANCH  27  28
ENDBRANCH  21  22
ENDBRANCH  14  21
ENDBRANCH  13  14
ENDBRANCH   1  13
BRANCH   1  30
HETATM   30  C17 UNL     1      27.179  25.175  12.669  1.00  0.00     0.004 A 
HETATM   31  C18 UNL     1      27.763  25.157  11.411  1.00  0.00     0.020 A 
HETATM   32  C19 UNL     1      27.676  26.232  10.551  1.00  0.00     0.075 A 
HETATM   33  C20 UNL     1      27.001  27.387  10.904  1.00  0.00     0.245 A 
HETATM   34  O2  UNL     1      26.916  28.376  10.125  1.00  0.00    -0.268 OA
HETATM   35  N6  UNL     1      26.438  27.405  12.115  1.00  0.00    -0.333 N 
HETATM   36  C21 UNL     1      26.510  26.374  12.963  1.00  0.00     0.104 A 
ATOM     37  H6  UNL     1      25.932  28.242  12.405  1.00  0.00     0.168 HD
ENDBRANCH   1  30
TORSDOF 15
ENDMDL
MODEL 5
REMARK VINA RESULT: -5.849745316      3.458      6.909
REMARK  15 active torsions:
REMARK  status: ('A' for Active; 'I' for Inactive)
REMARK    1  A    between atoms: N1_2  and  C2_5 
REMARK    2  A    between atoms: C2_5  and  C3_6 
REMARK    3  A    between atoms: C3_6  and  C4_7 
REMARK    4  A    between atoms: C4_7  and  C5_8 
REMARK    5  A    between atoms: C5_8  and  C6_9 
REMARK    6  A    between atoms: N2_10  and  C7_12 
REMARK    7  A    between atoms: C7_12  and  C8_13 
REMARK    8  A    between atoms: C7_12  and  C17_30 
REMARK    9  A    between atoms: C8_13  and  N3_14 
REMARK   10  A    between atoms: N3_14  and  C9_15 
REMARK   11  A    between atoms: N3_14  and  C11_21 
REMARK   12  A    between atoms: C9_15  and  C10_16 
REMARK   13  A    between atoms: C10_16  and  N4_17 
REMARK   14  A    between atoms: C11_21  and  C12_22 
REMARK   15  A    between atoms: C15_27  and  O1_28 
ROOT
HETATM    1  C7  UNL     1      27.417  21.756  12.031  1.00  0.00     0.049 C 
ENDROOT
BRANCH   1   2
HETATM    2  N2  UNL     1      28.672  21.364  11.570  1.00  0.00    -0.371 N 
HETATM    3  C6  UNL     1      29.088  20.481  10.630  1.00  0.00     0.061 C 
ATOM      4  H2  UNL     1      29.440  21.844  12.040  1.00  0.00     0.164 HD
BRANCH   3   5
HETATM    5  C5  UNL     1      28.931  18.991  10.824  1.00  0.00     0.044 C 
BRANCH   5   6
HETATM    6  C4  UNL     1      28.932  18.268   9.472  1.00  0.00     0.007 C 
BRANCH   6   7
HETATM    7  C3  UNL     1      30.297  17.780   9.130  1.00  0.00     0.028 C 
BRANCH   7   8
HETATM    8  C2  UNL     1      30.883  18.505   7.932  1.00  0.00     0.231 C 
BRANCH   8   9
HETATM    9  N1  UNL     1      32.289  18.781   8.267  1.00  0.00    -0.079 N 
HETATM   10  C1  UNL     1      32.346  20.130   8.803  1.00  0.00     0.266 C 
ATOM     11  H12 UNL     1      32.922  18.638   7.481  1.00  0.00     0.276 HD
ATOM     12  H11 UNL     1      32.695  18.085   8.892  1.00  0.00     0.276 HD
ENDBRANCH   8   9
ENDBRANCH   7   8
ENDBRANCH   6   7
ENDBRANCH   5   6
ENDBRANCH   3   5
ENDBRANCH   1   2
BRANCH   1  13
HETATM   13  C8  UNL     1      26.899  23.091  11.656  1.00  0.00     0.330 C 
BRANCH  13  14
HETATM   14  N3  UNL     1      27.560  24.252  12.204  1.00  0.00     0.101 N 
BRANCH  14  15
HETATM   15  C9  UNL     1      27.789  25.297  11.251  1.00  0.00     0.300 C 
BRANCH  15  16
HETATM   16  C10 UNL     1      26.791  26.449  11.438  1.00  0.00     0.259 C 
BRANCH  16  17
HETATM   17  N4  UNL     1      27.625  27.655  11.523  1.00  0.00    -0.078 N 
ATOM     18  H43 UNL     1      28.497  27.522  12.035  1.00  0.00     0.274 HD
ATOM     19  H42 UNL     1      28.053  27.927  10.637  1.00  0.00     0.274 HD
ATOM     20  H41 UNL     1      27.013  28.366  11.923  1.00  0.00     0.274 HD
ENDBRANCH  16  17
ENDBRANCH  15  16
ENDBRANCH  14  15
BRANCH  14  21
HETATM   21  C11 UNL     1      26.868  24.712  13.385  1.00  0.00     0.332 C 
BRANCH  21  22
HETATM   22  C12 UNL     1      27.601  24.679  14.652  1.00  0.00     0.071 A 
HETATM   23  N5  UNL     1      27.673  23.725  15.575  1.00  0.00    -0.365 N 
HETATM   24  C13 UNL     1      28.422  24.155  16.603  1.00  0.00     0.091 A 
ATOM     25  H5  UNL     1      27.227  22.810  15.512  1.00  0.00     0.165 HD
HETATM   26  C14 UNL     1      28.849  25.429  16.335  1.00  0.00     0.055 A 
HETATM   27  C15 UNL     1      28.334  25.755  15.115  1.00  0.00     0.093 A 
BRANCH  27  28
HETATM   28  O1  UNL     1      28.522  26.984  14.445  1.00  0.00    -0.354 OA
HETATM   29  C16 UNL     1      29.802  27.579  14.490  1.00  0.00     0.210 C 
ENDBRANCH  27  28
ENDBRANCH  21  22
ENDBRANCH  14  21
ENDBRANCH  13  14
ENDBRANCH   1  13
BRANCH   1  30
HETATM   30  C17 UNL     1      26.978  21.115  13.279  1.00  0.00     0.004 A 
HETATM   31  C18 UNL     1      27.780  20.296  14.061  1.00  0.00     0.020 A 
HETATM   32  C19 UNL     1      27.304  19.688  15.205  1.00  0.00     0.075 A 
HETATM   33  C20 UNL     1      25.999  19.866  15.629  1.00  0.00     0.245 A 
HETATM   34  O2  UNL     1      25.555  19.314  16.673  1.00  0.00    -0.268 OA
HETATM   35  N6  UNL     1      25.228  20.654  14.877  1.00  0.00    -0.333 N 
HETATM   36  C21 UNL     1      25.668  21.253  13.766  1.00  0.00     0.104 A 
ATOM     37  H6  UNL     1      24.260  20.807  15.163  1.00  0.00     0.168 HD
ENDBRANCH   1  30
TORSDOF 15
ENDMDL
