MODEL 1
REMARK VINA RESULT: -6.794626434      0.000      0.000
REMARK  17 active torsions:
REMARK  status: ('A' for Active; 'I' for Inactive)
REMARK    1  A    between atoms: N2_3  and  C2_4 
REMARK    2  A    between atoms: C2_4  and  C3_5 
REMARK    3  A    between atoms: C2_4  and  N5_17 
REMARK    4  A    between atoms: C3_5  and  N3_6 
REMARK    5  A    between atoms: N3_6  and  C4_8 
REMARK    6  A    between atoms: C4_8  and  C5_9 
REMARK    7  A    between atoms: C5_9  and  N4_10 
REMARK       I    between atoms: N4_10  and  C6_12 
REMARK    8  A    between atoms: C6_12  and  C7_14 
REMARK    9  A    between atoms: N5_17  and  C10_19 
REMARK   10  A    between atoms: C10_19  and  C11_20 
REMARK   11  A    between atoms: C11_20  and  N6_21 
REMARK   12  A    between atoms: N6_21  and  C12_24 
REMARK   13  A    between atoms: C12_24  and  C13_25 
REMARK   14  A    between atoms: C13_25  and  C14_26 
REMARK   15  A    between atoms: C14_26  and  N7_27 
REMARK   16  A    between atoms: N7_27  and  C15_30 
REMARK   17  A    between atoms: C15_30  and  C16_31 
ROOT
HETATM    1  N1  UNL     1      27.644  20.976  15.594  1.00  0.00    -0.156 NA
HETATM    2  C1  UNL     1      27.647  21.215  14.453  1.00  0.00     0.270 C 
HETATM    3  N2  UNL     1      27.650  21.516  13.230  1.00  0.00    -0.315 NA
ENDROOT
BRANCH   3   4
HETATM    4  C2  UNL     1      27.659  21.792  12.068  1.00  0.00     0.182 C 
BRANCH   4   5
HETATM    5  C3  UNL     1      26.683  22.911  11.606  1.00  0.00     0.207 C 
BRANCH   5   6
HETATM    6  N3  UNL     1      27.040  24.128  12.190  1.00  0.00    -0.412 N 
ATOM      7  H3  UNL     1      26.819  24.308  13.170  1.00  0.00     0.153 HD
BRANCH   6   8
HETATM    8  C4  UNL     1      27.714  25.122  11.418  1.00  0.00     0.134 C 
BRANCH   8   9
HETATM    9  C5  UNL     1      27.013  26.441  11.925  1.00  0.00     0.141 C 
BRANCH   9  10
HETATM   10  N4  UNL     1      28.068  27.320  12.397  1.00  0.00    -0.359 N 
HETATM   11  C6  UNL     1      28.482  27.212  13.733  1.00  0.00     0.221 C 
HETATM   12  O1  UNL     1      27.949  26.383  14.493  1.00  0.00    -0.273 OA
ATOM     13  H4  UNL     1      28.498  28.001  11.772  1.00  0.00     0.162 HD
BRANCH  11  14
HETATM   14  C7  UNL     1      29.590  28.074  14.281  1.00  0.00     0.078 A 
HETATM   15  C8  UNL     1      30.790  27.153  14.601  1.00  0.00     0.015 A 
HETATM   16  C9  UNL     1      30.068  27.953  15.656  1.00  0.00     0.015 A 
ENDBRANCH  11  14
ENDBRANCH   9  10
ENDBRANCH   8   9
ENDBRANCH   6   8
ENDBRANCH   5   6
ENDBRANCH   4   5
BRANCH   4  17
HETATM   17  N5  UNL     1      28.422  21.208  11.038  1.00  0.00    -0.365 N 
ATOM     18  H5  UNL     1      28.590  21.729  10.177  1.00  0.00     0.161 HD
BRANCH  17  19
HETATM   19  C10 UNL     1      28.974  19.865  11.189  1.00  0.00     0.149 C 
BRANCH  19  20
HETATM   20  C11 UNL     1      30.221  19.789  10.300  1.00  0.00     0.251 C 
BRANCH  20  21
HETATM   21  N6  UNL     1      30.955  18.577  10.512  1.00  0.00    -0.074 N 
ATOM     22  H62 UNL     1      31.745  18.694  11.147  1.00  0.00     0.277 HD
ATOM     23  H61 UNL     1      30.443  17.891  11.065  1.00  0.00     0.277 HD
BRANCH  21  24
HETATM   24  C12 UNL     1      31.343  18.082   9.205  1.00  0.00     0.234 C 
BRANCH  24  25
HETATM   25  C13 UNL     1      32.787  17.682   9.119  1.00  0.00     0.055 C 
BRANCH  25  26
HETATM   26  C14 UNL     1      33.426  17.581  10.502  1.00  0.00     0.234 C 
BRANCH  26  27
HETATM   27  N7  UNL     1      34.876  17.339  10.318  1.00  0.00    -0.071 N 
ATOM     28  H72 UNL     1      35.313  16.979  11.167  1.00  0.00     0.277 HD
ATOM     29  H71 UNL     1      35.055  16.541   9.707  1.00  0.00     0.277 HD
BRANCH  27  30
HETATM   30  C15 UNL     1      35.521  18.528   9.848  1.00  0.00     0.270 C 
BRANCH  30  31
HETATM   31  C16 UNL     1      36.947  18.528  10.250  1.00  0.00    -0.033 A 
HETATM   32  C17 UNL     1      37.831  19.475   9.705  1.00  0.00     0.009 A 
HETATM   33  C18 UNL     1      39.157  19.518  10.038  1.00  0.00     0.001 A 
HETATM   34  C19 UNL     1      39.699  18.609  10.946  1.00  0.00     0.000 A 
HETATM   35  C20 UNL     1      38.856  17.679  11.484  1.00  0.00     0.001 A 
HETATM   36  C21 UNL     1      37.501  17.645  11.136  1.00  0.00     0.009 A 
ENDBRANCH  30  31
ENDBRANCH  27  30
ENDBRANCH  26  27
ENDBRANCH  25  26
ENDBRANCH  24  25
ENDBRANCH  21  24
ENDBRANCH  20  21
ENDBRANCH  19  20
ENDBRANCH  17  19
ENDBRANCH   4  17
ENDBRANCH   3   4
TORSDOF 17
ENDMDL
MODEL 2
REMARK VINA RESULT: -6.777634196      1.518      1.599
REMARK  17 active torsions:
REMARK  status: ('A' for Active; 'I' for Inactive)
REMARK    1  A    between atoms: N2_3  and  C2_4 
REMARK    2  A    between atoms: C2_4  and  C3_5 
REMARK    3  A    between atoms: C2_4  and  N5_17 
REMARK    4  A    between atoms: C3_5  and  N3_6 
REMARK    5  A    between atoms: N3_6  and  C4_8 
REMARK    6  A    between atoms: C4_8  and  C5_9 
REMARK    7  A    between atoms: C5_9  and  N4_10 
REMARK       I    between atoms: N4_10  and  C6_12 
REMARK    8  A    between atoms: C6_12  and  C7_14 
REMARK    9  A    between atoms: N5_17  and  C10_19 
REMARK   10  A    between atoms: C10_19  and  C11_20 
REMARK   11  A    between atoms: C11_20  and  N6_21 
REMARK   12  A    between atoms: N6_21  and  C12_24 
REMARK   13  A    between atoms: C12_24  and  C13_25 
REMARK   14  A    between atoms: C13_25  and  C14_26 
REMARK   15  A    between atoms: C14_26  and  N7_27 
REMARK   16  A    between atoms: N7_27  and  C15_30 
REMARK   17  A    between atoms: C15_30  and  C16_31 
ROOT
HETATM    1  N1  UNL     1      27.383  18.739  14.787  1.00  0.00    -0.156 NA
HETATM    2  C1  UNL     1      27.568  19.478  13.905  1.00  0.00     0.270 C 
HETATM    3  N2  UNL     1      27.788  20.244  12.930  1.00  0.00    -0.315 NA
ENDROOT
BRANCH   3   4
HETATM    4  C2  UNL     1      27.989  20.976  12.008  1.00  0.00     0.182 C 
BRANCH   4   5
HETATM    5  C3  UNL     1      27.119  22.262  11.932  1.00  0.00     0.207 C 
BRANCH   5   6
HETATM    6  N3  UNL     1      27.897  23.343  11.509  1.00  0.00    -0.412 N 
ATOM      7  H3  UNL     1      28.788  23.177  11.041  1.00  0.00     0.153 HD
BRANCH   6   8
HETATM    8  C4  UNL     1      27.447  24.679  11.733  1.00  0.00     0.134 C 
BRANCH   8   9
HETATM    9  C5  UNL     1      26.456  24.477  12.944  1.00  0.00     0.141 C 
BRANCH   9  10
HETATM   10  N4  UNL     1      26.910  25.358  14.006  1.00  0.00    -0.359 N 
HETATM   11  C6  UNL     1      27.829  24.861  14.942  1.00  0.00     0.221 C 
HETATM   12  O1  UNL     1      28.239  23.688  14.861  1.00  0.00    -0.273 OA
ATOM     13  H4  UNL     1      26.567  26.316  14.071  1.00  0.00     0.162 HD
BRANCH  11  14
HETATM   14  C7  UNL     1      28.361  25.728  16.053  1.00  0.00     0.078 A 
HETATM   15  C8  UNL     1      29.569  26.518  15.497  1.00  0.00     0.015 A 
HETATM   16  C9  UNL     1      29.688  25.531  16.632  1.00  0.00     0.015 A 
ENDBRANCH  11  14
ENDBRANCH   9  10
ENDBRANCH   8   9
ENDBRANCH   6   8
ENDBRANCH   5   6
ENDBRANCH   4   5
BRANCH   4  17
HETATM   17  N5  UNL     1      28.899  20.813  10.945  1.00  0.00    -0.365 N 
ATOM     18  H5  UNL     1      29.612  21.523  10.777  1.00  0.00     0.161 HD
BRANCH  17  19
HETATM   19  C10 UNL     1      28.832  19.637  10.082  1.00  0.00     0.149 C 
BRANCH  19  20
HETATM   20  C11 UNL     1      29.730  18.565  10.711  1.00  0.00     0.251 C 
BRANCH  20  21
HETATM   21  N6  UNL     1      30.992  19.101  11.125  1.00  0.00    -0.074 N 
ATOM     22  H62 UNL     1      30.902  19.881  11.776  1.00  0.00     0.277 HD
ATOM     23  H61 UNL     1      31.509  18.475  11.743  1.00  0.00     0.277 HD
BRANCH  21  24
HETATM   24  C12 UNL     1      31.722  19.445   9.921  1.00  0.00     0.234 C 
BRANCH  24  25
HETATM   25  C13 UNL     1      33.197  19.181  10.016  1.00  0.00     0.055 C 
BRANCH  25  26
HETATM   26  C14 UNL     1      33.497  17.991  10.924  1.00  0.00     0.234 C 
BRANCH  26  27
HETATM   27  N7  UNL     1      34.950  17.994  11.214  1.00  0.00    -0.071 N 
ATOM     28  H72 UNL     1      35.181  18.605  11.997  1.00  0.00     0.277 HD
ATOM     29  H71 UNL     1      35.260  17.109  11.618  1.00  0.00     0.277 HD
BRANCH  27  30
HETATM   30  C15 UNL     1      35.690  18.332  10.036  1.00  0.00     0.270 C 
BRANCH  30  31
HETATM   31  C16 UNL     1      37.133  18.449  10.355  1.00  0.00    -0.033 A 
HETATM   32  C17 UNL     1      37.926  19.398   9.688  1.00  0.00     0.009 A 
HETATM   33  C18 UNL     1      39.262  19.545   9.941  1.00  0.00     0.001 A 
HETATM   34  C19 UNL     1      39.907  18.747  10.885  1.00  0.00     0.000 A 
HETATM   35  C20 UNL     1      39.152  17.818  11.542  1.00  0.00     0.001 A 
HETATM   36  C21 UNL     1      37.786  17.676  11.275  1.00  0.00     0.009 A 
ENDBRANCH  30  31
ENDBRANCH  27  30
ENDBRANCH  26  27
ENDBRANCH  25  26
ENDBRANCH  24  25
ENDBRANCH  21  24
ENDBRANCH  20  21
ENDBRANCH  19  20
ENDBRANCH  17  19
ENDBRANCH   4  17
ENDBRANCH   3   4
TORSDOF 17
ENDMDL
MODEL 3
REMARK VINA RESULT: -6.765375241      1.786      2.247
REMARK  17 active torsions:
REMARK  status: ('A' for Active; 'I' for Inactive)
REMARK    1  A    between atoms: N2_3  and  C2_4 
REMARK    2  A    between atoms: C2_4  and  C3_5 
REMARK    3  A    between atoms: C2_4  and  N5_17 
REMARK    4  A    between atoms: C3_5  and  N3_6 
REMARK    5  A    between atoms: N3_6  and  C4_8 
REMARK    6  A    between atoms: C4_8  and  C5_9 
REMARK    7  A    between atoms: C5_9  and  N4_10 
REMARK       I    between atoms: N4_10  and  C6_12 
REMARK    8  A    between atoms: C6_12  and  C7_14 
REMARK    9  A    between atoms: N5_17  and  C10_19 
REMARK   10  A    between atoms: C10_19  and  C11_20 
REMARK   11  A    between atoms: C11_20  and  N6_21 
REMARK   12  A    between atoms: N6_21  and  C12_24 
REMARK   13  A    between atoms: C12_24  and  C13_25 
REMARK   14  A    between atoms: C13_25  and  C14_26 
REMARK   15  A    between atoms: C14_26  and  N7_27 
REMARK   16  A    between atoms: N7_27  and  C15_30 
REMARK   17  A    between atoms: C15_30  and  C16_31 
ROOT
HETATM    1  N1  UNL     1      27.592  20.209  15.145  1.00  0.00    -0.156 NA
HETATM    2  C1  UNL     1      27.611  20.464  14.008  1.00  0.00     0.270 C 
HETATM    3  N2  UNL     1      27.630  20.782  12.789  1.00  0.00    -0.315 NA
ENDROOT
BRANCH   3   4
HETATM    4  C2  UNL     1      27.654  21.075  11.632  1.00  0.00     0.182 C 
BRANCH   4   5
HETATM    5  C3  UNL     1      26.565  22.067  11.137  1.00  0.00     0.207 C 
BRANCH   5   6
HETATM    6  N3  UNL     1      26.977  23.383  11.363  1.00  0.00    -0.412 N 
ATOM      7  H3  UNL     1      27.625  23.832  10.716  1.00  0.00     0.153 HD
BRANCH   6   8
HETATM    8  C4  UNL     1      26.493  24.099  12.499  1.00  0.00     0.134 C 
BRANCH   8   9
HETATM    9  C5  UNL     1      27.785  24.886  12.947  1.00  0.00     0.141 C 
BRANCH   9  10
HETATM   10  N4  UNL     1      27.475  26.300  12.831  1.00  0.00    -0.359 N 
HETATM   11  C6  UNL     1      27.373  26.860  11.549  1.00  0.00     0.221 C 
HETATM   12  O1  UNL     1      27.551  26.157  10.538  1.00  0.00    -0.273 OA
ATOM     13  H4  UNL     1      27.334  26.872  13.663  1.00  0.00     0.162 HD
BRANCH  11  14
HETATM   14  C7  UNL     1      27.026  28.314  11.356  1.00  0.00     0.078 A 
HETATM   15  C8  UNL     1      25.525  28.397  10.995  1.00  0.00     0.015 A 
HETATM   16  C9  UNL     1      26.618  28.856  10.063  1.00  0.00     0.015 A 
ENDBRANCH  11  14
ENDBRANCH   9  10
ENDBRANCH   8   9
ENDBRANCH   6   8
ENDBRANCH   5   6
ENDBRANCH   4   5
BRANCH   4  17
HETATM   17  N5  UNL     1      28.530  20.609  10.632  1.00  0.00    -0.365 N 
ATOM     18  H5  UNL     1      28.727  21.196   9.820  1.00  0.00     0.161 HD
BRANCH  17  19
HETATM   19  C10 UNL     1      29.159  19.296  10.743  1.00  0.00     0.149 C 
BRANCH  19  20
HETATM   20  C11 UNL     1      30.232  19.217   9.651  1.00  0.00     0.251 C 
BRANCH  20  21
HETATM   21  N6  UNL     1      31.369  18.455  10.073  1.00  0.00    -0.074 N 
ATOM     22  H62 UNL     1      31.931  18.932  10.778  1.00  0.00     0.277 HD
ATOM     23  H61 UNL     1      31.119  17.641  10.635  1.00  0.00     0.277 HD
BRANCH  21  24
HETATM   24  C12 UNL     1      32.119  18.115   8.880  1.00  0.00     0.234 C 
BRANCH  24  25
HETATM   25  C13 UNL     1      33.602  18.053   9.100  1.00  0.00     0.055 C 
BRANCH  25  26
HETATM   26  C14 UNL     1      33.942  17.716  10.550  1.00  0.00     0.234 C 
BRANCH  26  27
HETATM   27  N7  UNL     1      35.401  17.478  10.633  1.00  0.00    -0.071 N 
ATOM     28  H72 UNL     1      35.665  17.031  11.511  1.00  0.00     0.277 HD
ATOM     29  H71 UNL     1      35.705  16.744   9.993  1.00  0.00     0.277 HD
BRANCH  27  30
HETATM   30  C15 UNL     1      36.116  18.701  10.422  1.00  0.00     0.270 C 
BRANCH  30  31
HETATM   31  C16 UNL     1      37.563  18.495  10.662  1.00  0.00    -0.033 A 
HETATM   32  C17 UNL     1      38.503  19.364  10.082  1.00  0.00     0.009 A 
HETATM   33  C18 UNL     1      39.850  19.217  10.267  1.00  0.00     0.001 A 
HETATM   34  C19 UNL     1      40.359  18.183  11.052  1.00  0.00     0.000 A 
HETATM   35  C20 UNL     1      39.461  17.328  11.623  1.00  0.00     0.001 A 
HETATM   36  C21 UNL     1      38.085  17.487  11.426  1.00  0.00     0.009 A 
ENDBRANCH  30  31
ENDBRANCH  27  30
ENDBRANCH  26  27
ENDBRANCH  25  26
ENDBRANCH  24  25
ENDBRANCH  21  24
ENDBRANCH  20  21
ENDBRANCH  19  20
ENDBRANCH  17  19
ENDBRANCH   4  17
ENDBRANCH   3   4
TORSDOF 17
ENDMDL
MODEL 4
REMARK VINA RESULT: -6.683173839      5.590      7.363
REMARK  17 active torsions:
REMARK  status: ('A' for Active; 'I' for Inactive)
REMARK    1  A    between atoms: N2_3  and  C2_4 
REMARK    2  A    between atoms: C2_4  and  C3_5 
REMARK    3  A    between atoms: C2_4  and  N5_17 
REMARK    4  A    between atoms: C3_5  and  N3_6 
REMARK    5  A    between atoms: N3_6  and  C4_8 
REMARK    6  A    between atoms: C4_8  and  C5_9 
REMARK    7  A    between atoms: C5_9  and  N4_10 
REMARK       I    between atoms: N4_10  and  C6_12 
REMARK    8  A    between atoms: C6_12  and  C7_14 
REMARK    9  A    between atoms: N5_17  and  C10_19 
REMARK   10  A    between atoms: C10_19  and  C11_20 
REMARK   11  A    between atoms: C11_20  and  N6_21 
REMARK   12  A    between atoms: N6_21  and  C12_24 
REMARK   13  A    between atoms: C12_24  and  C13_25 
REMARK   14  A    between atoms: C13_25  and  C14_26 
REMARK   15  A    between atoms: C14_26  and  N7_27 
REMARK   16  A    between atoms: N7_27  and  C15_30 
REMARK   17  A    between atoms: C15_30  and  C16_31 
ROOT
HETATM    1  N1  UNL     1      33.334  24.003  16.595  1.00  0.00    -0.156 NA
HETATM    2  C1  UNL     1      34.320  24.371  16.093  1.00  0.00     0.270 C 
HETATM    3  N2  UNL     1      35.370  24.811  15.554  1.00  0.00    -0.315 NA
ENDROOT
BRANCH   3   4
HETATM    4  C2  UNL     1      36.372  25.219  15.048  1.00  0.00     0.182 C 
BRANCH   4   5
HETATM    5  C3  UNL     1      36.546  26.762  14.983  1.00  0.00     0.207 C 
BRANCH   5   6
HETATM    6  N3  UNL     1      35.518  27.329  14.226  1.00  0.00    -0.412 N 
ATOM      7  H3  UNL     1      35.411  27.076  13.243  1.00  0.00     0.153 HD
BRANCH   6   8
HETATM    8  C4  UNL     1      34.620  28.262  14.824  1.00  0.00     0.134 C 
BRANCH   8   9
HETATM    9  C5  UNL     1      33.250  27.847  14.162  1.00  0.00     0.141 C 
BRANCH   9  10
HETATM   10  N4  UNL     1      32.624  29.071  13.693  1.00  0.00    -0.359 N 
HETATM   11  C6  UNL     1      31.668  29.691  14.511  1.00  0.00     0.221 C 
HETATM   12  O1  UNL     1      31.363  29.194  15.611  1.00  0.00    -0.273 OA
ATOM     13  H4  UNL     1      32.874  29.471  12.789  1.00  0.00     0.162 HD
BRANCH  11  14
HETATM   14  C7  UNL     1      31.000  30.976  14.099  1.00  0.00     0.078 A 
HETATM   15  C8  UNL     1      31.984  32.133  14.387  1.00  0.00     0.015 A 
HETATM   16  C9  UNL     1      30.640  32.015  15.060  1.00  0.00     0.015 A 
ENDBRANCH  11  14
ENDBRANCH   9  10
ENDBRANCH   8   9
ENDBRANCH   6   8
ENDBRANCH   5   6
ENDBRANCH   4   5
BRANCH   4  17
HETATM   17  N5  UNL     1      37.418  24.479  14.462  1.00  0.00    -0.365 N 
ATOM     18  H5  UNL     1      37.600  24.567  13.462  1.00  0.00     0.161 HD
BRANCH  17  19
HETATM   19  C10 UNL     1      38.245  23.588  15.270  1.00  0.00     0.149 C 
BRANCH  19  20
HETATM   20  C11 UNL     1      39.337  23.029  14.350  1.00  0.00     0.251 C 
BRANCH  20  21
HETATM   21  N6  UNL     1      39.865  21.791  14.839  1.00  0.00    -0.074 N 
ATOM     22  H62 UNL     1      40.573  21.915  15.563  1.00  0.00     0.277 HD
ATOM     23  H61 UNL     1      39.196  21.264  15.401  1.00  0.00     0.277 HD
BRANCH  21  24
HETATM   24  C12 UNL     1      40.349  21.053  13.689  1.00  0.00     0.234 C 
BRANCH  24  25
HETATM   25  C13 UNL     1      41.787  20.638  13.803  1.00  0.00     0.055 C 
BRANCH  25  26
HETATM   26  C14 UNL     1      41.957  19.135  13.599  1.00  0.00     0.234 C 
BRANCH  26  27
HETATM   27  N7  UNL     1      41.816  18.852  12.152  1.00  0.00    -0.071 N 
ATOM     28  H72 UNL     1      41.446  19.653  11.641  1.00  0.00     0.277 HD
ATOM     29  H71 UNL     1      42.722  18.783  11.687  1.00  0.00     0.277 HD
BRANCH  27  30
HETATM   30  C15 UNL     1      41.022  17.677  11.953  1.00  0.00     0.270 C 
BRANCH  30  31
HETATM   31  C16 UNL     1      39.714  18.040  11.358  1.00  0.00    -0.033 A 
HETATM   32  C17 UNL     1      39.619  19.140  10.488  1.00  0.00     0.009 A 
HETATM   33  C18 UNL     1      38.437  19.521   9.914  1.00  0.00     0.001 A 
HETATM   34  C19 UNL     1      37.256  18.825  10.171  1.00  0.00     0.000 A 
HETATM   35  C20 UNL     1      37.330  17.755  11.016  1.00  0.00     0.001 A 
HETATM   36  C21 UNL     1      38.544  17.374  11.598  1.00  0.00     0.009 A 
ENDBRANCH  30  31
ENDBRANCH  27  30
ENDBRANCH  26  27
ENDBRANCH  25  26
ENDBRANCH  24  25
ENDBRANCH  21  24
ENDBRANCH  20  21
ENDBRANCH  19  20
ENDBRANCH  17  19
ENDBRANCH   4  17
ENDBRANCH   3   4
TORSDOF 17
ENDMDL
MODEL 5
REMARK VINA RESULT: -6.655822601      2.740      3.477
REMARK  17 active torsions:
REMARK  status: ('A' for Active; 'I' for Inactive)
REMARK    1  A    between atoms: N2_3  and  C2_4 
REMARK    2  A    between atoms: C2_4  and  C3_5 
REMARK    3  A    between atoms: C2_4  and  N5_17 
REMARK    4  A    between atoms: C3_5  and  N3_6 
REMARK    5  A    between atoms: N3_6  and  C4_8 
REMARK    6  A    between atoms: C4_8  and  C5_9 
REMARK    7  A    between atoms: C5_9  and  N4_10 
REMARK       I    between atoms: N4_10  and  C6_12 
REMARK    8  A    between atoms: C6_12  and  C7_14 
REMARK    9  A    between atoms: N5_17  and  C10_19 
REMARK   10  A    between atoms: C10_19  and  C11_20 
REMARK   11  A    between atoms: C11_20  and  N6_21 
REMARK   12  A    between atoms: N6_21  and  C12_24 
REMARK   13  A    between atoms: C12_24  and  C13_25 
REMARK   14  A    between atoms: C13_25  and  C14_26 
REMARK   15  A    between atoms: C14_26  and  N7_27 
REMARK   16  A    between atoms: N7_27  and  C15_30 
REMARK   17  A    between atoms: C15_30  and  C16_31 
ROOT
HETATM    1  N1  UNL     1      24.596  17.184  14.751  1.00  0.00    -0.156 NA
HETATM    2  C1  UNL     1      25.576  17.727  14.430  1.00  0.00     0.270 C 
HETATM    3  N2  UNL     1      26.623  18.310  14.041  1.00  0.00    -0.315 NA
ENDROOT
BRANCH   3   4
HETATM    4  C2  UNL     1      27.615  18.869  13.681  1.00  0.00     0.182 C 
BRANCH   4   5
HETATM    5  C3  UNL     1      27.856  20.299  14.238  1.00  0.00     0.207 C 
BRANCH   5   6
HETATM    6  N3  UNL     1      27.169  21.237  13.464  1.00  0.00    -0.412 N 
ATOM      7  H3  UNL     1      26.725  20.950  12.591  1.00  0.00     0.153 HD
BRANCH   6   8
HETATM    8  C4  UNL     1      27.089  22.597  13.891  1.00  0.00     0.134 C 
BRANCH   8   9
HETATM    9  C5  UNL     1      26.538  22.431  15.360  1.00  0.00     0.141 C 
BRANCH   9  10
HETATM   10  N4  UNL     1      26.451  23.766  15.927  1.00  0.00    -0.359 N 
HETATM   11  C6  UNL     1      26.162  23.896  17.293  1.00  0.00     0.221 C 
HETATM   12  O1  UNL     1      25.980  22.886  17.997  1.00  0.00    -0.273 OA
ATOM     13  H4  UNL     1      26.596  24.590  15.344  1.00  0.00     0.162 HD
BRANCH  11  14
HETATM   14  C7  UNL     1      26.084  25.249  17.951  1.00  0.00     0.078 A 
HETATM   15  C8  UNL     1      27.511  25.843  17.980  1.00  0.00     0.015 A 
HETATM   16  C9  UNL     1      26.726  25.535  19.231  1.00  0.00     0.015 A 
ENDBRANCH  11  14
ENDBRANCH   9  10
ENDBRANCH   8   9
ENDBRANCH   6   8
ENDBRANCH   5   6
ENDBRANCH   4   5
BRANCH   4  17
HETATM   17  N5  UNL     1      28.596  18.411  12.779  1.00  0.00    -0.365 N 
ATOM     18  H5  UNL     1      29.134  17.573  13.001  1.00  0.00     0.161 HD
BRANCH  17  19
HETATM   19  C10 UNL     1      28.851  19.123  11.531  1.00  0.00     0.149 C 
BRANCH  19  20
HETATM   20  C11 UNL     1      30.313  18.858  11.151  1.00  0.00     0.251 C 
BRANCH  20  21
HETATM   21  N6  UNL     1      30.669  17.481  11.326  1.00  0.00    -0.074 N 
ATOM     22  H62 UNL     1      30.288  17.075  12.181  1.00  0.00     0.277 HD
ATOM     23  H61 UNL     1      30.200  16.860  10.667  1.00  0.00     0.277 HD
BRANCH  21  24
HETATM   24  C12 UNL     1      32.115  17.404  11.253  1.00  0.00     0.234 C 
BRANCH  24  25
HETATM   25  C13 UNL     1      32.650  17.484   9.853  1.00  0.00     0.055 C 
BRANCH  25  26
HETATM   26  C14 UNL     1      33.638  18.636   9.694  1.00  0.00     0.234 C 
BRANCH  26  27
HETATM   27  N7  UNL     1      34.665  18.507  10.753  1.00  0.00    -0.071 N 
ATOM     28  H72 UNL     1      35.088  19.406  10.986  1.00  0.00     0.277 HD
ATOM     29  H71 UNL     1      34.252  18.296  11.662  1.00  0.00     0.277 HD
BRANCH  27  30
HETATM   30  C15 UNL     1      35.648  17.537  10.374  1.00  0.00     0.270 C 
BRANCH  30  31
HETATM   31  C16 UNL     1      37.009  18.104  10.522  1.00  0.00    -0.033 A 
HETATM   32  C17 UNL     1      37.945  17.476  11.361  1.00  0.00     0.009 A 
HETATM   33  C18 UNL     1      39.213  17.958  11.537  1.00  0.00     0.001 A 
HETATM   34  C19 UNL     1      39.639  19.114  10.883  1.00  0.00     0.000 A 
HETATM   35  C20 UNL     1      38.742  19.739  10.065  1.00  0.00     0.001 A 
HETATM   36  C21 UNL     1      37.448  19.237   9.893  1.00  0.00     0.009 A 
ENDBRANCH  30  31
ENDBRANCH  27  30
ENDBRANCH  26  27
ENDBRANCH  25  26
ENDBRANCH  24  25
ENDBRANCH  21  24
ENDBRANCH  20  21
ENDBRANCH  19  20
ENDBRANCH  17  19
ENDBRANCH   4  17
ENDBRANCH   3   4
TORSDOF 17
ENDMDL
