MODEL 1
REMARK VINA RESULT: -8.551934476      0.000      0.000
REMARK  2 active torsions:
REMARK  status: ('A' for Active; 'I' for Inactive)
REMARK    1  A    between atoms: C2_2  and  N1_4 
REMARK       I    between atoms: N1_4  and  C4_5 
REMARK    2  A    between atoms: N1_4  and  C12_21 
REMARK       I    between atoms: N3_7  and  C5_9 
REMARK       I    between atoms: C5_9  and  N6_14 
ROOT
HETATM    1  N1  UNL     1       6.138  10.225   3.048  1.00  0.00    -0.346 N 
HETATM    2  C4  UNL     1       7.447   9.578   3.111  1.00  0.00     0.205 C 
HETATM    3  N2  UNL     1       7.401   8.161   3.030  1.00  0.00    -0.063 NA
HETATM    4  N3  UNL     1       8.520  10.244   3.229  1.00  0.00    -0.163 N 
ATOM      5  H3  UNL     1       8.488  11.262   3.283  1.00  0.00     0.187 HD
HETATM    6  C5  UNL     1       9.767   9.568   3.285  1.00  0.00     0.691 C 
HETATM    7  N4  UNL     1      10.018   8.677   4.207  1.00  0.00    -0.126 N 
ATOM      8  H4  UNL     1       9.303   8.463   4.902  1.00  0.00     0.197 HD
HETATM    9  C6  UNL     1      11.245   8.011   4.264  1.00  0.00     0.196 C 
HETATM   10  N5  UNL     1      12.260   7.438   4.315  1.00  0.00    -0.171 NA
HETATM   11  N6  UNL     1      10.786   9.841   2.335  1.00  0.00    -0.214 N 
HETATM   12  C7  UNL     1      12.009  10.532   2.634  1.00  0.00     0.171 C 
HETATM   13  C8  UNL     1      13.072  10.042   1.671  1.00  0.00     0.292 C 
HETATM   14  N7  UNL     1      12.738  10.339   0.308  1.00  0.00     0.087 N 
HETATM   15  C9  UNL     1      13.457  11.477  -0.188  1.00  0.00     0.310 C 
HETATM   16  C10 UNL     1      11.310  10.442   0.079  1.00  0.00     0.292 C 
HETATM   17  C11 UNL     1      10.600   9.398   0.948  1.00  0.00     0.171 C 
ENDROOT
BRANCH   1  18
HETATM   18  C2  UNL     1       5.648  10.547   4.338  1.00  0.00     0.079 C 
HETATM   19  C1  UNL     1       4.470   9.829   4.866  1.00  0.00     0.032 C 
HETATM   20  C3  UNL     1       6.728  10.532   5.406  1.00  0.00     0.032 C 
ENDBRANCH   1  18
BRANCH   1  21
HETATM   21  C12 UNL     1       5.618  10.422   1.755  1.00  0.00     0.087 A 
HETATM   22  C13 UNL     1       4.394   9.515   1.431  1.00  0.00     0.027 A 
HETATM   23  C14 UNL     1       5.634   9.520   0.613  1.00  0.00     0.027 A 
ENDBRANCH   1  21
TORSDOF 2
ENDMDL
MODEL 2
REMARK VINA RESULT: -8.498949231      0.794      1.204
REMARK  2 active torsions:
REMARK  status: ('A' for Active; 'I' for Inactive)
REMARK    1  A    between atoms: C2_2  and  N1_4 
REMARK       I    between atoms: N1_4  and  C4_5 
REMARK    2  A    between atoms: N1_4  and  C12_21 
REMARK       I    between atoms: N3_7  and  C5_9 
REMARK       I    between atoms: C5_9  and  N6_14 
ROOT
HETATM    1  N1  UNL     1       6.660   9.368   3.243  1.00  0.00    -0.346 N 
HETATM    2  C4  UNL     1       8.035   8.877   3.227  1.00  0.00     0.205 C 
HETATM    3  N2  UNL     1       8.150   7.464   3.143  1.00  0.00    -0.063 NA
HETATM    4  N3  UNL     1       9.029   9.663   3.287  1.00  0.00    -0.163 N 
ATOM      5  H3  UNL     1       8.882  10.671   3.348  1.00  0.00     0.187 HD
HETATM    6  C5  UNL     1      10.347   9.136   3.269  1.00  0.00     0.691 C 
HETATM    7  N4  UNL     1      10.752   8.282   4.172  1.00  0.00    -0.126 N 
ATOM      8  H4  UNL     1      10.107   7.989   4.905  1.00  0.00     0.197 HD
HETATM    9  C6  UNL     1      12.049   7.763   4.155  1.00  0.00     0.196 C 
HETATM   10  N5  UNL     1      13.124   7.311   4.146  1.00  0.00    -0.171 NA
HETATM   11  N6  UNL     1      11.272   9.523   2.264  1.00  0.00    -0.214 N 
HETATM   12  C7  UNL     1      12.422  10.351   2.496  1.00  0.00     0.171 C 
HETATM   13  C8  UNL     1      13.477   9.986   1.472  1.00  0.00     0.292 C 
HETATM   14  N7  UNL     1      13.034  10.240   0.130  1.00  0.00     0.087 N 
HETATM   15  C9  UNL     1      13.586  11.452  -0.400  1.00  0.00     0.310 C 
HETATM   16  C10 UNL     1      11.593  10.175  -0.015  1.00  0.00     0.292 C 
HETATM   17  C11 UNL     1      11.059   9.058   0.887  1.00  0.00     0.171 C 
ENDROOT
BRANCH   1  18
HETATM   18  C2  UNL     1       6.209   9.634   4.560  1.00  0.00     0.079 C 
HETATM   19  C1  UNL     1       6.871  10.688   5.354  1.00  0.00     0.032 C 
HETATM   20  C3  UNL     1       4.708   9.852   4.643  1.00  0.00     0.032 C 
ENDBRANCH   1  18
BRANCH   1  21
HETATM   21  C12 UNL     1       6.047   9.500   1.982  1.00  0.00     0.087 A 
HETATM   22  C13 UNL     1       6.661  10.632   1.106  1.00  0.00     0.027 A 
HETATM   23  C14 UNL     1       5.222  10.586   1.472  1.00  0.00     0.027 A 
ENDBRANCH   1  21
TORSDOF 2
ENDMDL
MODEL 3
REMARK VINA RESULT: -8.232714958      4.598      8.685
REMARK  2 active torsions:
REMARK  status: ('A' for Active; 'I' for Inactive)
REMARK    1  A    between atoms: C2_2  and  N1_4 
REMARK       I    between atoms: N1_4  and  C4_5 
REMARK    2  A    between atoms: N1_4  and  C12_21 
REMARK       I    between atoms: N3_7  and  C5_9 
REMARK       I    between atoms: C5_9  and  N6_14 
ROOT
HETATM    1  N1  UNL     1      15.857   9.527  -1.973  1.00  0.00    -0.346 N 
HETATM    2  C4  UNL     1      16.063   9.220  -0.559  1.00  0.00     0.205 C 
HETATM    3  N2  UNL     1      16.988  10.076   0.095  1.00  0.00    -0.063 NA
HETATM    4  N3  UNL     1      15.457   8.265   0.015  1.00  0.00    -0.163 N 
ATOM      5  H3  UNL     1      14.804   7.683  -0.510  1.00  0.00     0.187 HD
HETATM    6  C5  UNL     1      15.692   8.007   1.391  1.00  0.00     0.691 C 
HETATM    7  N4  UNL     1      16.890   7.742   1.840  1.00  0.00    -0.126 N 
ATOM      8  H4  UNL     1      17.674   7.721   1.187  1.00  0.00     0.197 HD
HETATM    9  C6  UNL     1      17.122   7.488   3.194  1.00  0.00     0.196 C 
HETATM   10  N5  UNL     1      17.333   7.287   4.323  1.00  0.00    -0.171 NA
HETATM   11  N6  UNL     1      14.625   8.028   2.327  1.00  0.00    -0.214 N 
HETATM   12  C7  UNL     1      14.097   6.862   2.980  1.00  0.00     0.171 C 
HETATM   13  C8  UNL     1      13.534   7.290   4.321  1.00  0.00     0.292 C 
HETATM   14  N7  UNL     1      12.454   8.223   4.176  1.00  0.00     0.087 N 
HETATM   15  C9  UNL     1      11.175   7.599   4.348  1.00  0.00     0.310 C 
HETATM   16  C10 UNL     1      12.532   9.001   2.954  1.00  0.00     0.292 C 
HETATM   17  C11 UNL     1      14.004   9.314   2.667  1.00  0.00     0.171 C 
ENDROOT
BRANCH   1  18
HETATM   18  C2  UNL     1      16.639   8.696  -2.812  1.00  0.00     0.079 C 
HETATM   19  C1  UNL     1      15.976   7.895  -3.861  1.00  0.00     0.032 C 
HETATM   20  C3  UNL     1      17.812   9.424  -3.445  1.00  0.00     0.032 C 
ENDBRANCH   1  18
BRANCH   1  21
HETATM   21  C12 UNL     1      14.934  10.556  -2.244  1.00  0.00     0.087 A 
HETATM   22  C13 UNL     1      15.489  11.982  -1.956  1.00  0.00     0.027 A 
HETATM   23  C14 UNL     1      14.259  11.451  -1.315  1.00  0.00     0.027 A 
ENDBRANCH   1  21
TORSDOF 2
ENDMDL
MODEL 4
REMARK VINA RESULT: -7.888925876      2.885      7.927
REMARK  2 active torsions:
REMARK  status: ('A' for Active; 'I' for Inactive)
REMARK    1  A    between atoms: C2_2  and  N1_4 
REMARK       I    between atoms: N1_4  and  C4_5 
REMARK    2  A    between atoms: N1_4  and  C12_21 
REMARK       I    between atoms: N3_7  and  C5_9 
REMARK       I    between atoms: C5_9  and  N6_14 
ROOT
HETATM    1  N1  UNL     1      16.041   9.505  -0.372  1.00  0.00    -0.346 N 
HETATM    2  C4  UNL     1      15.409   9.115   0.887  1.00  0.00     0.205 C 
HETATM    3  N2  UNL     1      16.098   9.556   2.047  1.00  0.00    -0.063 NA
HETATM    4  N3  UNL     1      14.336   8.439   0.917  1.00  0.00    -0.163 N 
ATOM      5  H3  UNL     1      13.888   8.150   0.047  1.00  0.00     0.187 HD
HETATM    6  C5  UNL     1      13.761   8.084   2.165  1.00  0.00     0.691 C 
HETATM    7  N4  UNL     1      14.426   7.387   3.049  1.00  0.00    -0.126 N 
ATOM      8  H4  UNL     1      15.378   7.091   2.836  1.00  0.00     0.197 HD
HETATM    9  C6  UNL     1      13.861   7.038   4.277  1.00  0.00     0.196 C 
HETATM   10  N5  UNL     1      13.407   6.749   5.313  1.00  0.00    -0.171 NA
HETATM   11  N6  UNL     1      12.438   8.478   2.495  1.00  0.00    -0.214 N 
HETATM   12  C7  UNL     1      11.323   7.576   2.587  1.00  0.00     0.171 C 
HETATM   13  C8  UNL     1      10.333   8.154   3.578  1.00  0.00     0.292 C 
HETATM   14  N7  UNL     1       9.820   9.423   3.146  1.00  0.00     0.087 N 
HETATM   15  C9  UNL     1       8.504   9.311   2.588  1.00  0.00     0.310 C 
HETATM   16  C10 UNL     1      10.732  10.142   2.278  1.00  0.00     0.292 C 
HETATM   17  C11 UNL     1      12.165   9.895   2.764  1.00  0.00     0.171 C 
ENDROOT
BRANCH   1  18
HETATM   18  C2  UNL     1      16.834   8.461  -0.909  1.00  0.00     0.079 C 
HETATM   19  C1  UNL     1      16.435   7.829  -2.183  1.00  0.00     0.032 C 
HETATM   20  C3  UNL     1      18.307   8.821  -1.001  1.00  0.00     0.032 C 
ENDBRANCH   1  18
BRANCH   1  21
HETATM   21  C12 UNL     1      15.748  10.807  -0.821  1.00  0.00     0.087 A 
HETATM   22  C13 UNL     1      14.546  10.869  -1.809  1.00  0.00     0.027 A 
HETATM   23  C14 UNL     1      15.900  11.374  -2.153  1.00  0.00     0.027 A 
ENDBRANCH   1  21
TORSDOF 2
ENDMDL
MODEL 5
REMARK VINA RESULT: -7.869806197      3.090      8.036
REMARK  2 active torsions:
REMARK  status: ('A' for Active; 'I' for Inactive)
REMARK    1  A    between atoms: C2_2  and  N1_4 
REMARK       I    between atoms: N1_4  and  C4_5 
REMARK    2  A    between atoms: N1_4  and  C12_21 
REMARK       I    between atoms: N3_7  and  C5_9 
REMARK       I    between atoms: C5_9  and  N6_14 
ROOT
HETATM    1  N1  UNL     1      16.035   8.289   2.561  1.00  0.00    -0.346 N 
HETATM    2  C4  UNL     1      14.704   8.468   1.987  1.00  0.00     0.205 C 
HETATM    3  N2  UNL     1      14.432   7.632   0.871  1.00  0.00    -0.063 NA
HETATM    4  N3  UNL     1      13.877   9.306   2.459  1.00  0.00    -0.163 N 
ATOM      5  H3  UNL     1      14.132   9.881   3.262  1.00  0.00     0.187 HD
HETATM    6  C5  UNL     1      12.595   9.443   1.865  1.00  0.00     0.691 C 
HETATM    7  N4  UNL     1      12.458   9.762   0.605  1.00  0.00    -0.126 N 
ATOM      8  H4  UNL     1      13.291   9.915   0.036  1.00  0.00     0.197 HD
HETATM    9  C6  UNL     1      11.197   9.897   0.019  1.00  0.00     0.196 C 
HETATM   10  N5  UNL     1      10.151  10.001  -0.486  1.00  0.00    -0.171 NA
HETATM   11  N6  UNL     1      11.415   9.238   2.627  1.00  0.00    -0.214 N 
HETATM   12  C7  UNL     1      10.508  10.283   3.014  1.00  0.00     0.171 C 
HETATM   13  C8  UNL     1       9.127   9.676   3.158  1.00  0.00     0.292 C 
HETATM   14  N7  UNL     1       9.086   8.674   4.184  1.00  0.00     0.087 N 
HETATM   15  C9  UNL     1       8.500   9.167   5.397  1.00  0.00     0.310 C 
HETATM   16  C10 UNL     1      10.367   8.033   4.407  1.00  0.00     0.292 C 
HETATM   17  C11 UNL     1      11.077   7.876   3.059  1.00  0.00     0.171 C 
ENDROOT
BRANCH   1  18
HETATM   18  C2  UNL     1      16.949   9.264   2.089  1.00  0.00     0.079 C 
HETATM   19  C1  UNL     1      17.668  10.113   3.059  1.00  0.00     0.032 C 
HETATM   20  C3  UNL     1      17.964   8.703   1.108  1.00  0.00     0.032 C 
ENDBRANCH   1  18
BRANCH   1  21
HETATM   21  C12 UNL     1      16.168   7.218   3.466  1.00  0.00     0.087 A 
HETATM   22  C13 UNL     1      15.761   7.581   4.924  1.00  0.00     0.027 A 
HETATM   23  C14 UNL     1      17.105   7.060   4.568  1.00  0.00     0.027 A 
ENDBRANCH   1  21
TORSDOF 2
ENDMDL
