MODEL 1
REMARK VINA RESULT: -7.111122642      0.000      0.000
REMARK  4 active torsions:
REMARK  status: ('A' for Active; 'I' for Inactive)
REMARK    1  A    between atoms: N2_5  and  C4_6 
REMARK    2  A    between atoms: C4_6  and  N3_8 
REMARK    3  A    between atoms: C5_10  and  C6_11 
REMARK    4  A    between atoms: C6_11  and  N4_12 
ROOT
HETATM    1  C4  UNL     1      11.547   8.890   3.751  1.00  0.00     0.173 C 
HETATM    2  S1  UNL     1      11.161  10.461   3.608  1.00  0.00    -0.041 SA
ENDROOT
BRANCH   1   3
HETATM    3  N2  UNL     1      12.567   8.323   2.965  1.00  0.00    -0.355 N 
HETATM    4  C3  UNL     1      12.647   8.828   1.614  1.00  0.00     0.141 C 
HETATM    5  C2  UNL     1      14.055   9.309   1.282  1.00  0.00     0.132 C 
HETATM    6  N1  UNL     1      14.919   8.156   1.219  1.00  0.00    -0.238 NA
HETATM    7  C1  UNL     1      16.046   8.361   2.069  1.00  0.00     0.135 C 
HETATM    8  N5  UNL     1      14.258   6.964   1.392  1.00  0.00    -0.353 N 
HETATM    9  C13 UNL     1      14.202   6.496   2.740  1.00  0.00     0.153 C 
ATOM     10  H5  UNL     1      13.839   6.451   0.616  1.00  0.00     0.174 HD
HETATM   11  C12 UNL     1      13.365   7.325   3.651  1.00  0.00     0.146 C 
ENDBRANCH   1   3
BRANCH   1  12
HETATM   12  N3  UNL     1      10.847   8.083   4.676  1.00  0.00    -0.345 N 
HETATM   13  C5  UNL     1       9.660   7.628   4.452  1.00  0.00     0.093 C 
ATOM     14  H3  UNL     1      11.300   7.850   5.560  1.00  0.00     0.167 HD
BRANCH  13  15
HETATM   15  C6  UNL     1       9.028   7.986   3.155  1.00  0.00     0.317 C 
BRANCH  15  16
HETATM   16  N4  UNL     1       7.661   8.406   3.470  1.00  0.00     0.093 N 
HETATM   17  C7  UNL     1       7.661   9.377   4.535  1.00  0.00     0.273 C 
HETATM   18  C8  UNL     1       6.260   9.803   4.830  1.00  0.00     0.030 C 
HETATM   19  C9  UNL     1       5.467  10.147   3.591  1.00  0.00     0.003 C 
HETATM   20  C10 UNL     1       6.416  10.234   2.431  1.00  0.00     0.030 C 
HETATM   21  C11 UNL     1       7.079   8.890   2.248  1.00  0.00     0.273 C 
ENDBRANCH  15  16
ENDBRANCH  13  15
ENDBRANCH   1  12
TORSDOF 4
ENDMDL
MODEL 2
REMARK VINA RESULT: -7.078803722      1.179      1.609
REMARK  4 active torsions:
REMARK  status: ('A' for Active; 'I' for Inactive)
REMARK    1  A    between atoms: N2_5  and  C4_6 
REMARK    2  A    between atoms: C4_6  and  N3_8 
REMARK    3  A    between atoms: C5_10  and  C6_11 
REMARK    4  A    between atoms: C6_11  and  N4_12 
ROOT
HETATM    1  C4  UNL     1      12.297   8.144   4.553  1.00  0.00     0.173 C 
HETATM    2  S1  UNL     1      12.819   9.131   5.732  1.00  0.00    -0.041 SA
ENDROOT
BRANCH   1   3
HETATM    3  N2  UNL     1      13.100   7.876   3.429  1.00  0.00    -0.355 N 
HETATM    4  C3  UNL     1      12.719   8.578   2.226  1.00  0.00     0.141 C 
HETATM    5  C2  UNL     1      13.899   9.330   1.622  1.00  0.00     0.132 C 
HETATM    6  N1  UNL     1      14.837   8.359   1.114  1.00  0.00    -0.238 NA
HETATM    7  C1  UNL     1      16.130   8.623   1.651  1.00  0.00     0.135 C 
HETATM    8  N5  UNL     1      14.401   7.060   1.232  1.00  0.00    -0.353 N 
HETATM    9  C13 UNL     1      14.800   6.399   2.433  1.00  0.00     0.153 C 
ATOM     10  H5  UNL     1      13.835   6.604   0.517  1.00  0.00     0.174 HD
HETATM   11  C12 UNL     1      14.177   6.936   3.675  1.00  0.00     0.146 C 
ENDBRANCH   1   3
BRANCH   1  12
HETATM   12  N3  UNL     1      11.020   7.549   4.658  1.00  0.00    -0.345 N 
HETATM   13  C5  UNL     1       9.923   8.215   4.527  1.00  0.00     0.093 C 
ATOM     14  H3  UNL     1      10.963   6.548   4.847  1.00  0.00     0.167 HD
BRANCH  13  15
HETATM   15  C6  UNL     1      10.041   9.672   4.252  1.00  0.00     0.317 C 
BRANCH  15  16
HETATM   16  N4  UNL     1       8.718  10.109   3.801  1.00  0.00     0.093 N 
HETATM   17  C7  UNL     1       8.028   9.036   3.134  1.00  0.00     0.273 C 
HETATM   18  C8  UNL     1       6.676   9.498   2.697  1.00  0.00     0.030 C 
HETATM   19  C9  UNL     1       5.917  10.230   3.778  1.00  0.00     0.003 C 
HETATM   20  C10 UNL     1       6.636  10.030   5.079  1.00  0.00     0.030 C 
HETATM   21  C11 UNL     1       8.026  10.609   4.958  1.00  0.00     0.273 C 
ENDBRANCH  15  16
ENDBRANCH  13  15
ENDBRANCH   1  12
TORSDOF 4
ENDMDL
MODEL 3
REMARK VINA RESULT: -7.046816823      1.903      2.489
REMARK  4 active torsions:
REMARK  status: ('A' for Active; 'I' for Inactive)
REMARK    1  A    between atoms: N2_5  and  C4_6 
REMARK    2  A    between atoms: C4_6  and  N3_8 
REMARK    3  A    between atoms: C5_10  and  C6_11 
REMARK    4  A    between atoms: C6_11  and  N4_12 
ROOT
HETATM    1  C4  UNL     1      11.824   7.783   2.904  1.00  0.00     0.173 C 
HETATM    2  S1  UNL     1      12.675   7.583   4.273  1.00  0.00    -0.041 SA
ENDROOT
BRANCH   1   3
HETATM    3  N2  UNL     1      12.248   8.694   1.919  1.00  0.00    -0.355 N 
HETATM    4  C3  UNL     1      11.303   8.919   0.850  1.00  0.00     0.141 C 
HETATM    5  C2  UNL     1      11.024  10.406   0.658  1.00  0.00     0.132 C 
HETATM    6  N1  UNL     1      12.219  11.021   0.132  1.00  0.00    -0.238 NA
HETATM    7  C1  UNL     1      12.574  12.136   0.946  1.00  0.00     0.135 C 
HETATM    8  N5  UNL     1      13.232  10.127  -0.121  1.00  0.00    -0.353 N 
HETATM    9  C13 UNL     1      14.147   9.933   0.957  1.00  0.00     0.153 C 
ATOM     10  H5  UNL     1      13.323   9.639  -1.013  1.00  0.00     0.174 HD
HETATM   11  C12 UNL     1      13.568   9.250   2.148  1.00  0.00     0.146 C 
ENDBRANCH   1   3
BRANCH   1  12
HETATM   12  N3  UNL     1      10.645   7.033   2.702  1.00  0.00    -0.345 N 
HETATM   13  C5  UNL     1       9.514   7.346   3.241  1.00  0.00     0.093 C 
ATOM     14  H3  UNL     1      10.688   6.207   2.105  1.00  0.00     0.167 HD
BRANCH  13  15
HETATM   15  C6  UNL     1       9.484   8.555   4.106  1.00  0.00     0.317 C 
BRANCH  15  16
HETATM   16  N4  UNL     1       8.070   8.881   4.301  1.00  0.00     0.093 N 
HETATM   17  C7  UNL     1       7.928  10.170   4.928  1.00  0.00     0.273 C 
HETATM   18  C8  UNL     1       6.479  10.490   5.104  1.00  0.00     0.030 C 
HETATM   19  C9  UNL     1       5.658  10.239   3.861  1.00  0.00     0.003 C 
HETATM   20  C10 UNL     1       6.595  10.009   2.712  1.00  0.00     0.030 C 
HETATM   21  C11 UNL     1       7.439   8.793   3.013  1.00  0.00     0.273 C 
ENDBRANCH  15  16
ENDBRANCH  13  15
ENDBRANCH   1  12
TORSDOF 4
ENDMDL
MODEL 4
REMARK VINA RESULT: -7.031434675      2.259      2.705
REMARK  4 active torsions:
REMARK  status: ('A' for Active; 'I' for Inactive)
REMARK    1  A    between atoms: N2_5  and  C4_6 
REMARK    2  A    between atoms: C4_6  and  N3_8 
REMARK    3  A    between atoms: C5_10  and  C6_11 
REMARK    4  A    between atoms: C6_11  and  N4_12 
ROOT
HETATM    1  C4  UNL     1      11.370   8.546   3.832  1.00  0.00     0.173 C 
HETATM    2  S1  UNL     1      12.458   8.922   4.977  1.00  0.00    -0.041 SA
ENDROOT
BRANCH   1   3
HETATM    3  N2  UNL     1      11.265   9.311   2.656  1.00  0.00    -0.355 N 
HETATM    4  C3  UNL     1      11.304  10.741   2.854  1.00  0.00     0.141 C 
HETATM    5  C2  UNL     1      12.363  11.397   1.976  1.00  0.00     0.132 C 
HETATM    6  N1  UNL     1      11.930  11.300   0.603  1.00  0.00    -0.238 NA
HETATM    7  C1  UNL     1      12.967  10.714  -0.180  1.00  0.00     0.135 C 
HETATM    8  N5  UNL     1      10.687  10.732   0.459  1.00  0.00    -0.353 N 
HETATM    9  C13 UNL     1      10.690   9.318   0.262  1.00  0.00     0.153 C 
ATOM     10  H5  UNL     1       9.826  11.280   0.489  1.00  0.00     0.174 HD
HETATM   11  C12 UNL     1      11.137   8.528   1.442  1.00  0.00     0.146 C 
ENDBRANCH   1   3
BRANCH   1  12
HETATM   12  N3  UNL     1      10.517   7.435   4.021  1.00  0.00    -0.345 N 
HETATM   13  C5  UNL     1       9.350   7.532   4.565  1.00  0.00     0.093 C 
ATOM     14  H3  UNL     1      10.837   6.517   3.715  1.00  0.00     0.167 HD
BRANCH  13  15
HETATM   15  C6  UNL     1       8.913   8.885   5.001  1.00  0.00     0.317 C 
BRANCH  15  16
HETATM   16  N4  UNL     1       7.515   9.014   4.584  1.00  0.00     0.093 N 
HETATM   17  C7  UNL     1       6.934  10.218   5.121  1.00  0.00     0.273 C 
HETATM   18  C8  UNL     1       5.514  10.338   4.672  1.00  0.00     0.030 C 
HETATM   19  C9  UNL     1       5.333  10.093   3.193  1.00  0.00     0.003 C 
HETATM   20  C10 UNL     1       6.687  10.080   2.546  1.00  0.00     0.030 C 
HETATM   21  C11 UNL     1       7.499   8.957   3.148  1.00  0.00     0.273 C 
ENDBRANCH  15  16
ENDBRANCH  13  15
ENDBRANCH   1  12
TORSDOF 4
ENDMDL
MODEL 5
REMARK VINA RESULT: -7.013124865      2.264      3.046
REMARK  4 active torsions:
REMARK  status: ('A' for Active; 'I' for Inactive)
REMARK    1  A    between atoms: N2_5  and  C4_6 
REMARK    2  A    between atoms: C4_6  and  N3_8 
REMARK    3  A    between atoms: C5_10  and  C6_11 
REMARK    4  A    between atoms: C6_11  and  N4_12 
ROOT
HETATM    1  C4  UNL     1      11.449   8.548   3.837  1.00  0.00     0.173 C 
HETATM    2  S1  UNL     1      12.491   9.149   4.928  1.00  0.00    -0.041 SA
ENDROOT
BRANCH   1   3
HETATM    3  N2  UNL     1      11.411   9.052   2.523  1.00  0.00    -0.355 N 
HETATM    4  C3  UNL     1      11.219   8.057   1.494  1.00  0.00     0.141 C 
HETATM    5  C2  UNL     1      10.052   8.418   0.581  1.00  0.00     0.132 C 
HETATM    6  N1  UNL     1      10.430   9.576  -0.192  1.00  0.00    -0.238 NA
HETATM    7  C1  UNL     1       9.432  10.584  -0.054  1.00  0.00     0.135 C 
HETATM    8  N5  UNL     1      11.722   9.988   0.031  1.00  0.00    -0.353 N 
HETATM    9  C13 UNL     1      11.871  10.973   1.054  1.00  0.00     0.153 C 
ATOM     10  H5  UNL     1      12.515   9.618  -0.494  1.00  0.00     0.174 HD
HETATM   11  C12 UNL     1      11.572  10.491   2.430  1.00  0.00     0.146 C 
ENDBRANCH   1   3
BRANCH   1  12
HETATM   12  N3  UNL     1      10.571   7.508   4.212  1.00  0.00    -0.345 N 
HETATM   13  C5  UNL     1       9.401   7.725   4.714  1.00  0.00     0.093 C 
ATOM     14  H3  UNL     1      10.873   6.543   4.082  1.00  0.00     0.167 HD
BRANCH  13  15
HETATM   15  C6  UNL     1       8.990   9.143   4.892  1.00  0.00     0.317 C 
BRANCH  15  16
HETATM   16  N4  UNL     1       7.552   9.187   4.615  1.00  0.00     0.093 N 
HETATM   17  C7  UNL     1       6.973  10.401   5.129  1.00  0.00     0.273 C 
HETATM   18  C8  UNL     1       5.511  10.433   4.824  1.00  0.00     0.030 C 
HETATM   19  C9  UNL     1       5.193  10.078   3.390  1.00  0.00     0.003 C 
HETATM   20  C10 UNL     1       6.474  10.073   2.609  1.00  0.00     0.030 C 
HETATM   21  C11 UNL     1       7.394   9.029   3.195  1.00  0.00     0.273 C 
ENDBRANCH  15  16
ENDBRANCH  13  15
ENDBRANCH   1  12
TORSDOF 4
ENDMDL
