MODEL 1
REMARK VINA RESULT: -7.510881890      0.000      0.000
REMARK  2 active torsions:
REMARK  status: ('A' for Active; 'I' for Inactive)
REMARK    1  A    between atoms: C11_12  and  N2_13 
REMARK       I    between atoms: N2_13  and  C12_15 
REMARK    2  A    between atoms: C12_15  and  C13_17 
ROOT
HETATM    1  C1  UNL     1       9.312  10.217  -0.218  1.00  0.00     0.309 C 
HETATM    2  N1  UNL     1       9.537  10.008   1.211  1.00  0.00     0.085 N 
HETATM    3  C2  UNL     1      10.830   9.436   1.420  1.00  0.00     0.278 C 
HETATM    4  C3  UNL     1      11.376   9.911   2.722  1.00  0.00     0.037 C 
HETATM    5  C4  UNL     1      10.312  10.602   3.506  1.00  0.00     0.013 C 
HETATM    6  C5  UNL     1       9.246   9.761   4.064  1.00  0.00    -0.004 C 
HETATM    7  C6  UNL     1       9.633   8.392   4.500  1.00  0.00    -0.008 C 
HETATM    8  C7  UNL     1       8.383   7.871   3.810  1.00  0.00     0.011 C 
HETATM    9  C8  UNL     1       8.211   9.249   3.155  1.00  0.00     0.019 C 
HETATM   10  C9  UNL     1       8.453   9.224   1.721  1.00  0.00     0.277 C 
HETATM   11  C10 UNL     1      10.864   7.827   3.917  1.00  0.00     0.030 C 
HETATM   12  C11 UNL     1      11.934   8.806   3.580  1.00  0.00     0.090 C 
ENDROOT
BRANCH  12  13
HETATM   13  N2  UNL     1      13.021   8.131   2.905  1.00  0.00    -0.355 N 
HETATM   14  C12 UNL     1      14.343   8.096   3.408  1.00  0.00     0.238 C 
HETATM   15  O1  UNL     1      14.567   8.682   4.489  1.00  0.00    -0.272 OA
ATOM     16  H2  UNL     1      12.825   7.657   2.023  1.00  0.00     0.162 HD
BRANCH  14  17
HETATM   17  C13 UNL     1      15.379   7.404   2.682  1.00  0.00     0.180 C 
HETATM   18  C14 UNL     1      15.076   6.936   1.278  1.00  0.00     0.138 C 
HETATM   19  N3  UNL     1      16.532   7.108   1.145  1.00  0.00    -0.251 NA
HETATM   20  C15 UNL     1      17.004   7.381  -0.157  1.00  0.00     0.130 C 
HETATM   21  N4  UNL     1      16.400   8.180   2.029  1.00  0.00    -0.239 NA
HETATM   22  C16 UNL     1      16.048   9.433   1.468  1.00  0.00     0.131 C 
ENDBRANCH  14  17
ENDBRANCH  12  13
TORSDOF 2
ENDMDL
MODEL 2
REMARK VINA RESULT: -7.431833093      2.010      6.652
REMARK  2 active torsions:
REMARK  status: ('A' for Active; 'I' for Inactive)
REMARK    1  A    between atoms: C11_12  and  N2_13 
REMARK       I    between atoms: N2_13  and  C12_15 
REMARK    2  A    between atoms: C12_15  and  C13_17 
ROOT
HETATM    1  C1  UNL     1      16.090   9.846   0.723  1.00  0.00     0.309 C 
HETATM    2  N1  UNL     1      15.620   8.799   1.627  1.00  0.00     0.085 N 
HETATM    3  C2  UNL     1      14.231   8.988   1.907  1.00  0.00     0.278 C 
HETATM    4  C3  UNL     1      13.585   7.663   2.119  1.00  0.00     0.037 C 
HETATM    5  C4  UNL     1      14.622   6.597   2.238  1.00  0.00     0.013 C 
HETATM    6  C5  UNL     1      15.430   6.591   3.463  1.00  0.00    -0.004 C 
HETATM    7  C6  UNL     1      14.751   7.025   4.715  1.00  0.00    -0.008 C 
HETATM    8  C7  UNL     1      15.983   7.855   5.037  1.00  0.00     0.011 C 
HETATM    9  C8  UNL     1      16.486   7.602   3.609  1.00  0.00     0.019 C 
HETATM   10  C9  UNL     1      16.463   8.799   2.784  1.00  0.00     0.277 C 
HETATM   11  C10 UNL     1      13.544   7.858   4.567  1.00  0.00     0.030 C 
HETATM   12  C11 UNL     1      12.722   7.603   3.352  1.00  0.00     0.090 C 
ENDROOT
BRANCH  12  13
HETATM   13  N2  UNL     1      11.649   8.572   3.275  1.00  0.00    -0.355 N 
HETATM   14  C12 UNL     1      10.375   8.274   2.734  1.00  0.00     0.238 C 
HETATM   15  O1  UNL     1      10.183   7.116   2.308  1.00  0.00    -0.272 OA
ATOM     16  H2  UNL     1      11.819   9.514   3.627  1.00  0.00     0.162 HD
BRANCH  14  17
HETATM   17  C13 UNL     1       9.351   9.289   2.689  1.00  0.00     0.180 C 
HETATM   18  C14 UNL     1       7.954   8.874   2.292  1.00  0.00     0.138 C 
HETATM   19  N3  UNL     1       7.611  10.031   3.135  1.00  0.00    -0.251 NA
HETATM   20  C15 UNL     1       6.335   9.997   3.738  1.00  0.00     0.130 C 
HETATM   21  N4  UNL     1       8.712   9.678   3.917  1.00  0.00    -0.239 NA
HETATM   22  C16 UNL     1       8.499   8.694   4.916  1.00  0.00     0.131 C 
ENDBRANCH  14  17
ENDBRANCH  12  13
TORSDOF 2
ENDMDL
MODEL 3
REMARK VINA RESULT: -7.322199627      1.883      2.207
REMARK  2 active torsions:
REMARK  status: ('A' for Active; 'I' for Inactive)
REMARK    1  A    between atoms: C11_12  and  N2_13 
REMARK       I    between atoms: N2_13  and  C12_15 
REMARK    2  A    between atoms: C12_15  and  C13_17 
ROOT
HETATM    1  C1  UNL     1      10.496  10.197   0.270  1.00  0.00     0.309 C 
HETATM    2  N1  UNL     1       9.900  10.064   1.598  1.00  0.00     0.085 N 
HETATM    3  C2  UNL     1      10.849   9.488   2.499  1.00  0.00     0.278 C 
HETATM    4  C3  UNL     1      10.620  10.027   3.868  1.00  0.00     0.037 C 
HETATM    5  C4  UNL     1       9.329  10.773   3.919  1.00  0.00     0.013 C 
HETATM    6  C5  UNL     1       8.098   9.978   3.840  1.00  0.00    -0.004 C 
HETATM    7  C6  UNL     1       8.131   8.630   4.470  1.00  0.00    -0.008 C 
HETATM    8  C7  UNL     1       7.435   8.088   3.232  1.00  0.00     0.011 C 
HETATM    9  C8  UNL     1       7.702   9.430   2.535  1.00  0.00     0.019 C 
HETATM   10  C9  UNL     1       8.683   9.323   1.466  1.00  0.00     0.277 C 
HETATM   11  C10 UNL     1       9.457   8.019   4.673  1.00  0.00     0.030 C 
HETATM   12  C11 UNL     1      10.577   8.964   4.935  1.00  0.00     0.090 C 
ENDROOT
BRANCH  12  13
HETATM   13  N2  UNL     1      11.828   8.239   4.987  1.00  0.00    -0.355 N 
HETATM   14  C12 UNL     1      13.036   8.811   5.451  1.00  0.00     0.238 C 
HETATM   15  O1  UNL     1      13.005  10.001   5.831  1.00  0.00    -0.272 OA
ATOM     16  H2  UNL     1      11.840   7.268   4.674  1.00  0.00     0.162 HD
BRANCH  14  17
HETATM   17  C13 UNL     1      14.248   8.030   5.477  1.00  0.00     0.180 C 
HETATM   18  C14 UNL     1      14.196   6.616   4.947  1.00  0.00     0.138 C 
HETATM   19  N3  UNL     1      15.613   6.903   4.673  1.00  0.00    -0.251 NA
HETATM   20  C15 UNL     1      16.196   6.179   3.611  1.00  0.00     0.130 C 
HETATM   21  N4  UNL     1      15.210   8.216   4.423  1.00  0.00    -0.239 NA
HETATM   22  C16 UNL     1      14.742   8.504   3.116  1.00  0.00     0.131 C 
ENDBRANCH  14  17
ENDBRANCH  12  13
TORSDOF 2
ENDMDL
MODEL 4
REMARK VINA RESULT: -7.261686672      1.647      6.605
REMARK  2 active torsions:
REMARK  status: ('A' for Active; 'I' for Inactive)
REMARK    1  A    between atoms: C11_12  and  N2_13 
REMARK       I    between atoms: N2_13  and  C12_15 
REMARK    2  A    between atoms: C12_15  and  C13_17 
ROOT
HETATM    1  C1  UNL     1      17.048   7.604   0.286  1.00  0.00     0.309 C 
HETATM    2  N1  UNL     1      16.557   7.332   1.635  1.00  0.00     0.085 N 
HETATM    3  C2  UNL     1      15.127   7.340   1.642  1.00  0.00     0.278 C 
HETATM    4  C3  UNL     1      14.633   6.375   2.663  1.00  0.00     0.037 C 
HETATM    5  C4  UNL     1      15.760   5.915   3.526  1.00  0.00     0.013 C 
HETATM    6  C5  UNL     1      16.316   6.893   4.469  1.00  0.00    -0.004 C 
HETATM    7  C6  UNL     1      15.362   7.872   5.058  1.00  0.00    -0.008 C 
HETATM    8  C7  UNL     1      16.390   8.959   4.794  1.00  0.00     0.011 C 
HETATM    9  C8  UNL     1      17.183   7.956   3.944  1.00  0.00     0.019 C 
HETATM   10  C9  UNL     1      17.159   8.277   2.526  1.00  0.00     0.277 C 
HETATM   11  C10 UNL     1      14.106   8.106   4.324  1.00  0.00     0.030 C 
HETATM   12  C11 UNL     1      13.568   6.944   3.564  1.00  0.00     0.090 C 
ENDROOT
BRANCH  12  13
HETATM   13  N2  UNL     1      12.411   7.353   2.796  1.00  0.00    -0.355 N 
HETATM   14  C12 UNL     1      11.151   7.622   3.380  1.00  0.00     0.238 C 
HETATM   15  O1  UNL     1      11.047   7.497   4.618  1.00  0.00    -0.272 OA
ATOM     16  H2  UNL     1      12.510   7.451   1.786  1.00  0.00     0.162 HD
BRANCH  14  17
HETATM   17  C13 UNL     1      10.039   8.025   2.554  1.00  0.00     0.180 C 
HETATM   18  C14 UNL     1       8.664   8.062   3.176  1.00  0.00     0.138 C 
HETATM   19  N3  UNL     1       8.467   9.094   2.146  1.00  0.00    -0.251 NA
HETATM   20  C15 UNL     1       7.490  10.072   2.430  1.00  0.00     0.130 C 
HETATM   21  N4  UNL     1       9.807   9.431   2.351  1.00  0.00    -0.239 NA
HETATM   22  C16 UNL     1      10.086  10.328   3.412  1.00  0.00     0.131 C 
ENDBRANCH  14  17
ENDBRANCH  12  13
TORSDOF 2
ENDMDL
MODEL 5
REMARK VINA RESULT: -7.185342408      1.283      1.358
REMARK  2 active torsions:
REMARK  status: ('A' for Active; 'I' for Inactive)
REMARK    1  A    between atoms: C11_12  and  N2_13 
REMARK       I    between atoms: N2_13  and  C12_15 
REMARK    2  A    between atoms: C12_15  and  C13_17 
ROOT
HETATM    1  C1  UNL     1       8.031   9.925   0.563  1.00  0.00     0.309 C 
HETATM    2  N1  UNL     1       8.458   9.870   1.959  1.00  0.00     0.085 N 
HETATM    3  C2  UNL     1       9.793   9.364   2.039  1.00  0.00     0.278 C 
HETATM    4  C3  UNL     1      10.489   9.988   3.199  1.00  0.00     0.037 C 
HETATM    5  C4  UNL     1       9.511  10.720   4.054  1.00  0.00     0.013 C 
HETATM    6  C5  UNL     1       8.571   9.906   4.835  1.00  0.00    -0.004 C 
HETATM    7  C6  UNL     1       9.077   8.601   5.342  1.00  0.00    -0.008 C 
HETATM    8  C7  UNL     1       7.770   7.972   4.888  1.00  0.00     0.011 C 
HETATM    9  C8  UNL     1       7.447   9.270   4.134  1.00  0.00     0.019 C 
HETATM   10  C9  UNL     1       7.492   9.108   2.689  1.00  0.00     0.277 C 
HETATM   11  C10 UNL     1      10.242   8.021   4.649  1.00  0.00     0.030 C 
HETATM   12  C11 UNL     1      11.209   8.994   4.073  1.00  0.00     0.090 C 
ENDROOT
BRANCH  12  13
HETATM   13  N2  UNL     1      12.225   8.290   3.320  1.00  0.00    -0.355 N 
HETATM   14  C12 UNL     1      13.231   7.500   3.926  1.00  0.00     0.238 C 
HETATM   15  O1  UNL     1      13.229   7.417   5.173  1.00  0.00    -0.272 OA
ATOM     16  H2  UNL     1      12.215   8.366   2.303  1.00  0.00     0.162 HD
BRANCH  14  17
HETATM   17  C13 UNL     1      14.212   6.825   3.114  1.00  0.00     0.180 C 
HETATM   18  C14 UNL     1      14.498   7.375   1.736  1.00  0.00     0.138 C 
HETATM   19  N3  UNL     1      15.806   6.754   2.003  1.00  0.00    -0.251 NA
HETATM   20  C15 UNL     1      16.908   7.322   1.329  1.00  0.00     0.130 C 
HETATM   21  N4  UNL     1      15.605   7.107   3.338  1.00  0.00    -0.239 NA
HETATM   22  C16 UNL     1      15.982   8.421   3.717  1.00  0.00     0.131 C 
ENDBRANCH  14  17
ENDBRANCH  12  13
TORSDOF 2
ENDMDL
