MODEL 1
REMARK VINA RESULT: -9.895527063      0.000      0.000
REMARK  8 active torsions:
REMARK  status: ('A' for Active; 'I' for Inactive)
REMARK    1  A    between atoms: C1_2  and  C2_3 
REMARK       I    between atoms: C1_2  and  N2_18 
REMARK    2  A    between atoms: C2_3  and  C3_4 
REMARK    3  A    between atoms: C3_4  and  C4_5 
REMARK       I    between atoms: N1_7  and  C6_8 
REMARK    4  A    between atoms: C6_8  and  C7_10 
REMARK    5  A    between atoms: N2_18  and  C14_20 
REMARK    6  A    between atoms: C14_20  and  C15_21 
REMARK       I    between atoms: N3_24  and  C18_25 
REMARK       I    between atoms: C18_25  and  N4_27 
REMARK    7  A    between atoms: N4_27  and  C19_29 
REMARK    8  A    between atoms: C19_29  and  C20_30 
ROOT
HETATM    1  O1  UNL     1      14.940   7.121   4.332  1.00  0.00    -0.274 OA
HETATM    2  C1  UNL     1      14.994   7.644   3.203  1.00  0.00     0.217 C 
HETATM    3  N2  UNL     1      14.276   8.843   2.975  1.00  0.00    -0.361 N 
ATOM      4  H2  UNL     1      14.297   9.299   2.063  1.00  0.00     0.162 HD
ENDROOT
BRANCH   2   5
HETATM    5  C2  UNL     1      15.765   7.094   2.067  1.00  0.00     0.103 C 
BRANCH   5   6
HETATM    6  C3  UNL     1      17.153   7.624   1.920  1.00  0.00     0.018 C 
BRANCH   6   7
HETATM    7  C4  UNL     1      17.314   8.369   0.642  1.00  0.00     0.040 C 
HETATM    8  C5  UNL     1      16.148   8.036  -0.323  1.00  0.00     0.133 C 
HETATM    9  N1  UNL     1      16.426   9.021  -1.349  1.00  0.00    -0.349 N 
HETATM   10  C6  UNL     1      16.298   8.802  -2.738  1.00  0.00     0.224 C 
HETATM   11  C12 UNL     1      16.851  10.243  -0.691  1.00  0.00     0.163 C 
HETATM   12  O2  UNL     1      15.916   7.679  -3.155  1.00  0.00    -0.273 OA
HETATM   13  C13 UNL     1      17.111   9.860   0.774  1.00  0.00     0.193 C 
HETATM   14  F1  UNL     1      18.249  10.506   1.228  1.00  0.00    -0.247 F 
BRANCH  10  15
HETATM   15  C7  UNL     1      16.596   9.851  -3.749  1.00  0.00     0.078 C 
HETATM   16  C8  UNL     1      18.005   9.718  -4.249  1.00  0.00     0.014 C 
HETATM   17  C9  UNL     1      17.944   9.898  -5.748  1.00  0.00     0.001 C 
HETATM   18  C10 UNL     1      16.522   9.710  -6.157  1.00  0.00     0.001 C 
HETATM   19  C11 UNL     1      15.683   9.765  -4.926  1.00  0.00     0.014 C 
ENDBRANCH  10  15
ENDBRANCH   6   7
ENDBRANCH   5   6
ENDBRANCH   2   5
BRANCH   3  20
HETATM   20  C14 UNL     1      13.514   9.404   4.066  1.00  0.00     0.127 C 
BRANCH  20  21
HETATM   21  C15 UNL     1      12.060   9.421   3.710  1.00  0.00     0.006 C 
HETATM   22  C16 UNL     1      11.856  10.002   2.328  1.00  0.00     0.026 C 
HETATM   23  C17 UNL     1      10.373  10.173   2.132  1.00  0.00     0.128 C 
HETATM   24  N3  UNL     1       9.726   8.930   2.487  1.00  0.00    -0.334 N 
HETATM   25  C18 UNL     1       8.312   8.914   2.668  1.00  0.00     0.318 C 
HETATM   26  C23 UNL     1      10.541   7.748   2.643  1.00  0.00     0.128 C 
HETATM   27  O3  UNL     1       7.716   7.854   2.976  1.00  0.00    -0.247 OA
HETATM   28  N4  UNL     1       7.545  10.092   2.503  1.00  0.00    -0.343 N 
ATOM     29  H4  UNL     1       8.030  10.953   2.252  1.00  0.00     0.164 HD
HETATM   30  C24 UNL     1      11.518   7.993   3.776  1.00  0.00     0.026 C 
BRANCH  28  31
HETATM   31  C19 UNL     1       6.120  10.136   2.673  1.00  0.00     0.129 C 
BRANCH  31  32
HETATM   32  C20 UNL     1       5.775  10.704   4.027  1.00  0.00     0.003 A 
HETATM   33  C21 UNL     1       4.423  10.314   4.616  1.00  0.00     0.007 A 
HETATM   34  C22 UNL     1       5.682   9.755   5.224  1.00  0.00     0.007 A 
ENDBRANCH  31  32
ENDBRANCH  28  31
ENDBRANCH  20  21
ENDBRANCH   3  20
TORSDOF 8
ENDMDL
MODEL 2
REMARK VINA RESULT: -9.855131682      1.768      9.493
REMARK  8 active torsions:
REMARK  status: ('A' for Active; 'I' for Inactive)
REMARK    1  A    between atoms: C1_2  and  C2_3 
REMARK       I    between atoms: C1_2  and  N2_18 
REMARK    2  A    between atoms: C2_3  and  C3_4 
REMARK    3  A    between atoms: C3_4  and  C4_5 
REMARK       I    between atoms: N1_7  and  C6_8 
REMARK    4  A    between atoms: C6_8  and  C7_10 
REMARK    5  A    between atoms: N2_18  and  C14_20 
REMARK    6  A    between atoms: C14_20  and  C15_21 
REMARK       I    between atoms: N3_24  and  C18_25 
REMARK       I    between atoms: C18_25  and  N4_27 
REMARK    7  A    between atoms: N4_27  and  C19_29 
REMARK    8  A    between atoms: C19_29  and  C20_30 
ROOT
HETATM    1  O1  UNL     1      16.208   8.687   4.665  1.00  0.00    -0.274 OA
HETATM    2  C1  UNL     1      15.327   8.097   4.012  1.00  0.00     0.217 C 
HETATM    3  N2  UNL     1      15.696   7.446   2.810  1.00  0.00    -0.361 N 
ATOM      4  H2  UNL     1      15.001   6.952   2.249  1.00  0.00     0.162 HD
ENDROOT
BRANCH   2   5
HETATM    5  C2  UNL     1      13.904   8.025   4.408  1.00  0.00     0.103 C 
BRANCH   5   6
HETATM    6  C3  UNL     1      13.003   7.341   3.434  1.00  0.00     0.018 C 
BRANCH   6   7
HETATM    7  C4  UNL     1      11.908   8.242   2.987  1.00  0.00     0.040 C 
HETATM    8  C5  UNL     1      10.587   7.882   3.712  1.00  0.00     0.133 C 
HETATM    9  N1  UNL     1       9.784   9.006   3.274  1.00  0.00    -0.349 N 
HETATM   10  C6  UNL     1       8.421   8.936   2.911  1.00  0.00     0.224 C 
HETATM   11  C12 UNL     1      10.628  10.187   3.278  1.00  0.00     0.163 C 
HETATM   12  O2  UNL     1       7.824   7.830   2.959  1.00  0.00    -0.273 OA
HETATM   13  C13 UNL     1      12.065   9.672   3.449  1.00  0.00     0.193 C 
HETATM   14  F1  UNL     1      12.919  10.397   2.633  1.00  0.00    -0.247 F 
BRANCH  10  15
HETATM   15  C7  UNL     1       7.643  10.123   2.468  1.00  0.00     0.078 C 
HETATM   16  C8  UNL     1       7.527  10.151   0.972  1.00  0.00     0.014 C 
HETATM   17  C9  UNL     1       6.094  10.518   0.663  1.00  0.00     0.001 C 
HETATM   18  C10 UNL     1       5.302  10.288   1.906  1.00  0.00     0.001 C 
HETATM   19  C11 UNL     1       6.263  10.127   3.035  1.00  0.00     0.014 C 
ENDBRANCH  10  15
ENDBRANCH   6   7
ENDBRANCH   5   6
ENDBRANCH   2   5
BRANCH   3  20
HETATM   20  C14 UNL     1      17.079   7.498   2.397  1.00  0.00     0.127 C 
BRANCH  20  21
HETATM   21  C15 UNL     1      17.171   8.051   1.010  1.00  0.00     0.006 C 
HETATM   22  C16 UNL     1      15.834   8.603   0.565  1.00  0.00     0.026 C 
HETATM   23  C17 UNL     1      15.957   8.947  -0.896  1.00  0.00     0.128 C 
HETATM   24  N3  UNL     1      17.152   9.742  -1.070  1.00  0.00    -0.334 N 
HETATM   25  C18 UNL     1      17.655   9.953  -2.387  1.00  0.00     0.318 C 
HETATM   26  C23 UNL     1      17.792  10.295   0.100  1.00  0.00     0.128 C 
HETATM   27  O3  UNL     1      18.689  10.636  -2.579  1.00  0.00    -0.247 OA
HETATM   28  N4  UNL     1      17.000   9.397  -3.512  1.00  0.00    -0.343 N 
ATOM     29  H4  UNL     1      16.158   8.842  -3.357  1.00  0.00     0.164 HD
HETATM   30  C24 UNL     1      18.238   9.146   0.983  1.00  0.00     0.026 C 
BRANCH  28  31
HETATM   31  C19 UNL     1      17.459   9.575  -4.862  1.00  0.00     0.129 C 
BRANCH  31  32
HETATM   32  C20 UNL     1      16.313   9.405  -5.828  1.00  0.00     0.003 A 
HETATM   33  C21 UNL     1      15.417  10.619  -6.057  1.00  0.00     0.007 A 
HETATM   34  C22 UNL     1      16.346  10.168  -7.154  1.00  0.00     0.007 A 
ENDBRANCH  31  32
ENDBRANCH  28  31
ENDBRANCH  20  21
ENDBRANCH   3  20
TORSDOF 8
ENDMDL
MODEL 3
REMARK VINA RESULT: -9.846393382      0.868      1.026
REMARK  8 active torsions:
REMARK  status: ('A' for Active; 'I' for Inactive)
REMARK    1  A    between atoms: C1_2  and  C2_3 
REMARK       I    between atoms: C1_2  and  N2_18 
REMARK    2  A    between atoms: C2_3  and  C3_4 
REMARK    3  A    between atoms: C3_4  and  C4_5 
REMARK       I    between atoms: N1_7  and  C6_8 
REMARK    4  A    between atoms: C6_8  and  C7_10 
REMARK    5  A    between atoms: N2_18  and  C14_20 
REMARK    6  A    between atoms: C14_20  and  C15_21 
REMARK       I    between atoms: N3_24  and  C18_25 
REMARK       I    between atoms: C18_25  and  N4_27 
REMARK    7  A    between atoms: N4_27  and  C19_29 
REMARK    8  A    between atoms: C19_29  and  C20_30 
ROOT
HETATM    1  O1  UNL     1      15.927   6.990   4.508  1.00  0.00    -0.274 OA
HETATM    2  C1  UNL     1      16.034   8.088   3.930  1.00  0.00     0.217 C 
HETATM    3  N2  UNL     1      15.103   9.110   4.236  1.00  0.00    -0.361 N 
ATOM      4  H2  UNL     1      15.160  10.021   3.781  1.00  0.00     0.162 HD
ENDROOT
BRANCH   2   5
HETATM    5  C2  UNL     1      17.079   8.405   2.932  1.00  0.00     0.103 C 
BRANCH   5   6
HETATM    6  C3  UNL     1      17.124   7.501   1.745  1.00  0.00     0.018 C 
BRANCH   6   7
HETATM    7  C4  UNL     1      17.275   8.275   0.484  1.00  0.00     0.040 C 
HETATM    8  C5  UNL     1      16.126   7.930  -0.498  1.00  0.00     0.133 C 
HETATM    9  N1  UNL     1      16.385   8.942  -1.502  1.00  0.00    -0.349 N 
HETATM   10  C6  UNL     1      16.274   8.748  -2.896  1.00  0.00     0.224 C 
HETATM   11  C12 UNL     1      16.772  10.162  -0.817  1.00  0.00     0.163 C 
HETATM   12  O2  UNL     1      15.927   7.623  -3.338  1.00  0.00    -0.273 OA
HETATM   13  C13 UNL     1      17.030   9.757   0.642  1.00  0.00     0.193 C 
HETATM   14  F1  UNL     1      18.147  10.425   1.119  1.00  0.00    -0.247 F 
BRANCH  10  15
HETATM   15  C7  UNL     1      16.551   9.824  -3.884  1.00  0.00     0.078 C 
HETATM   16  C8  UNL     1      17.951   9.708  -4.412  1.00  0.00     0.014 C 
HETATM   17  C9  UNL     1      17.862   9.929  -5.905  1.00  0.00     0.001 C 
HETATM   18  C10 UNL     1      16.434   9.747  -6.293  1.00  0.00     0.001 C 
HETATM   19  C11 UNL     1      15.617   9.767  -5.046  1.00  0.00     0.014 C 
ENDBRANCH  10  15
ENDBRANCH   6   7
ENDBRANCH   5   6
ENDBRANCH   2   5
BRANCH   3  20
HETATM   20  C14 UNL     1      14.071   8.830   5.206  1.00  0.00     0.127 C 
BRANCH  20  21
HETATM   21  C15 UNL     1      12.724   9.020   4.581  1.00  0.00     0.006 C 
HETATM   22  C16 UNL     1      12.743  10.189   3.620  1.00  0.00     0.026 C 
HETATM   23  C17 UNL     1      11.320  10.440   3.196  1.00  0.00     0.128 C 
HETATM   24  N3  UNL     1      10.747   9.180   2.778  1.00  0.00    -0.334 N 
HETATM   25  C18 UNL     1       9.335   9.086   2.606  1.00  0.00     0.318 C 
HETATM   26  C23 UNL     1      11.631   8.062   2.548  1.00  0.00     0.128 C 
HETATM   27  O3  UNL     1       8.802   8.010   2.245  1.00  0.00    -0.247 OA
HETATM   28  N4  UNL     1       8.499  10.204   2.838  1.00  0.00    -0.343 N 
ATOM     29  H4  UNL     1       8.933  11.080   3.132  1.00  0.00     0.164 HD
HETATM   30  C24 UNL     1      12.330   7.735   3.853  1.00  0.00     0.026 C 
BRANCH  28  31
HETATM   31  C19 UNL     1       7.072  10.170   2.682  1.00  0.00     0.129 C 
BRANCH  31  32
HETATM   32  C20 UNL     1       6.424   9.640   3.937  1.00  0.00     0.003 A 
HETATM   33  C21 UNL     1       6.665  10.425   5.223  1.00  0.00     0.007 A 
HETATM   34  C22 UNL     1       5.300  10.450   4.586  1.00  0.00     0.007 A 
ENDBRANCH  31  32
ENDBRANCH  28  31
ENDBRANCH  20  21
ENDBRANCH   3  20
TORSDOF 8
ENDMDL
MODEL 4
REMARK VINA RESULT: -9.767323738      2.296     10.417
REMARK  8 active torsions:
REMARK  status: ('A' for Active; 'I' for Inactive)
REMARK    1  A    between atoms: C1_2  and  C2_3 
REMARK       I    between atoms: C1_2  and  N2_18 
REMARK    2  A    between atoms: C2_3  and  C3_4 
REMARK    3  A    between atoms: C3_4  and  C4_5 
REMARK       I    between atoms: N1_7  and  C6_8 
REMARK    4  A    between atoms: C6_8  and  C7_10 
REMARK    5  A    between atoms: N2_18  and  C14_20 
REMARK    6  A    between atoms: C14_20  and  C15_21 
REMARK       I    between atoms: N3_24  and  C18_25 
REMARK       I    between atoms: C18_25  and  N4_27 
REMARK    7  A    between atoms: N4_27  and  C19_29 
REMARK    8  A    between atoms: C19_29  and  C20_30 
ROOT
HETATM    1  O1  UNL     1      13.554   7.435   4.943  1.00  0.00    -0.274 OA
HETATM    2  C1  UNL     1      12.894   7.453   3.887  1.00  0.00     0.217 C 
HETATM    3  N2  UNL     1      13.544   7.109   2.676  1.00  0.00    -0.361 N 
ATOM      4  H2  UNL     1      13.035   7.113   1.792  1.00  0.00     0.162 HD
ENDROOT
BRANCH   2   5
HETATM    5  C2  UNL     1      11.462   7.813   3.805  1.00  0.00     0.103 C 
BRANCH   5   6
HETATM    6  C3  UNL     1      10.867   7.759   2.437  1.00  0.00     0.018 C 
BRANCH   6   7
HETATM    7  C4  UNL     1       9.498   8.339   2.421  1.00  0.00     0.040 C 
HETATM    8  C5  UNL     1       9.213   9.080   3.752  1.00  0.00     0.133 C 
HETATM    9  N1  UNL     1       7.958   9.706   3.390  1.00  0.00    -0.349 N 
HETATM   10  C6  UNL     1       6.844   9.846   4.248  1.00  0.00     0.224 C 
HETATM   11  C12 UNL     1       8.060  10.148   2.011  1.00  0.00     0.163 C 
HETATM   12  O2  UNL     1       6.911   9.407   5.424  1.00  0.00    -0.273 OA
HETATM   13  C13 UNL     1       9.332   9.490   1.456  1.00  0.00     0.193 C 
HETATM   14  F1  UNL     1       9.103   9.057   0.159  1.00  0.00    -0.247 F 
BRANCH  10  15
HETATM   15  C7  UNL     1       5.578  10.500   3.823  1.00  0.00     0.078 C 
HETATM   16  C8  UNL     1       4.999   9.801   2.628  1.00  0.00     0.014 C 
HETATM   17  C9  UNL     1       3.515   9.675   2.887  1.00  0.00     0.001 C 
HETATM   18  C10 UNL     1       3.302   9.893   4.346  1.00  0.00     0.001 C 
HETATM   19  C11 UNL     1       4.552  10.481   4.906  1.00  0.00     0.014 C 
ENDBRANCH  10  15
ENDBRANCH   6   7
ENDBRANCH   5   6
ENDBRANCH   2   5
BRANCH   3  20
HETATM   20  C14 UNL     1      14.942   6.753   2.725  1.00  0.00     0.127 C 
BRANCH  20  21
HETATM   21  C15 UNL     1      15.692   7.504   1.670  1.00  0.00     0.006 C 
HETATM   22  C16 UNL     1      15.147   8.910   1.528  1.00  0.00     0.026 C 
HETATM   23  C17 UNL     1      15.807   9.523   0.321  1.00  0.00     0.128 C 
HETATM   24  N3  UNL     1      17.234   9.318   0.437  1.00  0.00    -0.334 N 
HETATM   25  C18 UNL     1      18.058   9.543  -0.704  1.00  0.00     0.318 C 
HETATM   26  C23 UNL     1      17.770   8.893   1.708  1.00  0.00     0.128 C 
HETATM   27  O3  UNL     1      19.300   9.375  -0.642  1.00  0.00    -0.247 OA
HETATM   28  N4  UNL     1      17.498   9.962  -1.934  1.00  0.00    -0.343 N 
ATOM     29  H4  UNL     1      16.488  10.099  -1.984  1.00  0.00     0.164 HD
HETATM   30  C24 UNL     1      17.173   7.540   2.045  1.00  0.00     0.026 C 
BRANCH  28  31
HETATM   31  C19 UNL     1      18.278  10.204  -3.116  1.00  0.00     0.129 C 
BRANCH  31  32
HETATM   32  C20 UNL     1      17.868   9.253  -4.213  1.00  0.00     0.003 A 
HETATM   33  C21 UNL     1      16.419   8.777  -4.208  1.00  0.00     0.007 A 
HETATM   34  C22 UNL     1      16.878   9.735  -5.276  1.00  0.00     0.007 A 
ENDBRANCH  31  32
ENDBRANCH  28  31
ENDBRANCH  20  21
ENDBRANCH   3  20
TORSDOF 8
ENDMDL
MODEL 5
REMARK VINA RESULT: -9.672584795      1.523      1.879
REMARK  8 active torsions:
REMARK  status: ('A' for Active; 'I' for Inactive)
REMARK    1  A    between atoms: C1_2  and  C2_3 
REMARK       I    between atoms: C1_2  and  N2_18 
REMARK    2  A    between atoms: C2_3  and  C3_4 
REMARK    3  A    between atoms: C3_4  and  C4_5 
REMARK       I    between atoms: N1_7  and  C6_8 
REMARK    4  A    between atoms: C6_8  and  C7_10 
REMARK    5  A    between atoms: N2_18  and  C14_20 
REMARK    6  A    between atoms: C14_20  and  C15_21 
REMARK       I    between atoms: N3_24  and  C18_25 
REMARK       I    between atoms: C18_25  and  N4_27 
REMARK    7  A    between atoms: N4_27  and  C19_29 
REMARK    8  A    between atoms: C19_29  and  C20_30 
ROOT
HETATM    1  O1  UNL     1      15.695   6.858   4.939  1.00  0.00    -0.274 OA
HETATM    2  C1  UNL     1      15.924   7.830   4.195  1.00  0.00     0.217 C 
HETATM    3  N2  UNL     1      15.124   8.991   4.329  1.00  0.00    -0.361 N 
ATOM      4  H2  UNL     1      15.283   9.805   3.737  1.00  0.00     0.162 HD
ENDROOT
BRANCH   2   5
HETATM    5  C2  UNL     1      16.987   7.858   3.167  1.00  0.00     0.103 C 
BRANCH   5   6
HETATM    6  C3  UNL     1      17.118   9.144   2.419  1.00  0.00     0.018 C 
BRANCH   6   7
HETATM    7  C4  UNL     1      16.471   9.059   1.083  1.00  0.00     0.040 C 
HETATM    8  C5  UNL     1      17.469   9.483  -0.025  1.00  0.00     0.133 C 
HETATM    9  N1  UNL     1      16.683   9.109  -1.183  1.00  0.00    -0.349 N 
HETATM   10  C6  UNL     1      16.603   9.851  -2.382  1.00  0.00     0.224 C 
HETATM   11  C12 UNL     1      16.008   7.860  -0.881  1.00  0.00     0.163 C 
HETATM   12  O2  UNL     1      17.251  10.923  -2.491  1.00  0.00    -0.273 OA
HETATM   13  C13 UNL     1      16.183   7.646   0.631  1.00  0.00     0.193 C 
HETATM   14  F1  UNL     1      15.005   7.153   1.169  1.00  0.00    -0.247 F 
BRANCH  10  15
HETATM   15  C7  UNL     1      15.780   9.419  -3.543  1.00  0.00     0.078 C 
HETATM   16  C8  UNL     1      14.837  10.511  -3.955  1.00  0.00     0.014 C 
HETATM   17  C9  UNL     1      14.885  10.567  -5.465  1.00  0.00     0.001 C 
HETATM   18  C10 UNL     1      16.118   9.846  -5.893  1.00  0.00     0.001 C 
HETATM   19  C11 UNL     1      16.622   9.071  -4.724  1.00  0.00     0.014 C 
ENDBRANCH  10  15
ENDBRANCH   6   7
ENDBRANCH   5   6
ENDBRANCH   2   5
BRANCH   3  20
HETATM   20  C14 UNL     1      14.079   8.993   5.325  1.00  0.00     0.127 C 
BRANCH  20  21
HETATM   21  C15 UNL     1      12.746   9.124   4.658  1.00  0.00     0.006 C 
HETATM   22  C16 UNL     1      12.790  10.190   3.583  1.00  0.00     0.026 C 
HETATM   23  C17 UNL     1      11.377  10.403   3.109  1.00  0.00     0.128 C 
HETATM   24  N3  UNL     1      10.804   9.109   2.810  1.00  0.00    -0.334 N 
HETATM   25  C18 UNL     1       9.395   9.006   2.622  1.00  0.00     0.318 C 
HETATM   26  C23 UNL     1      11.684   7.969   2.713  1.00  0.00     0.128 C 
HETATM   27  O3  UNL     1       8.861   7.901   2.361  1.00  0.00    -0.247 OA
HETATM   28  N4  UNL     1       8.563  10.146   2.722  1.00  0.00    -0.343 N 
ATOM     29  H4  UNL     1       8.997  11.044   2.933  1.00  0.00     0.164 HD
HETATM   30  C24 UNL     1      12.357   7.774   4.057  1.00  0.00     0.026 C 
BRANCH  28  31
HETATM   31  C19 UNL     1       7.138  10.102   2.542  1.00  0.00     0.129 C 
BRANCH  31  32
HETATM   32  C20 UNL     1       6.466   9.664   3.820  1.00  0.00     0.003 A 
HETATM   33  C21 UNL     1       6.703  10.527   5.056  1.00  0.00     0.007 A 
HETATM   34  C22 UNL     1       5.347  10.531   4.401  1.00  0.00     0.007 A 
ENDBRANCH  31  32
ENDBRANCH  28  31
ENDBRANCH  20  21
ENDBRANCH   3  20
TORSDOF 8
ENDMDL
