MODEL 1
REMARK VINA RESULT: -8.425611904      0.000      0.000
REMARK  11 active torsions:
REMARK  status: ('A' for Active; 'I' for Inactive)
REMARK    1  A    between atoms: N1_2  and  C2_5 
REMARK    2  A    between atoms: C2_5  and  C4_7 
REMARK       I    between atoms: C4_7  and  N2_9 
REMARK    3  A    between atoms: N2_9  and  C5_11 
REMARK    4  A    between atoms: C5_11  and  C7_13 
REMARK    5  A    between atoms: C7_13  and  N4_23 
REMARK    6  A    between atoms: N3_14  and  C8_16 
REMARK    7  A    between atoms: C8_16  and  C9_17 
REMARK    8  A    between atoms: C10_18  and  C11_19 
REMARK    9  A    between atoms: C17_26  and  N5_27 
REMARK   10  A    between atoms: N5_27  and  C20_30 
REMARK   11  A    between atoms: C20_30  and  C21_31 
ROOT
HETATM    1  C7  UNL     1      14.060   9.355   1.751  1.00  0.00     0.098 C 
HETATM    2  N3  UNL     1      14.637   9.859   0.757  1.00  0.00    -0.368 N 
ATOM      3  H3  UNL     1      14.119  10.559   0.227  1.00  0.00     0.161 HD
ENDROOT
BRANCH   1   4
HETATM    4  C5  UNL     1      14.728   8.326   2.590  1.00  0.00     0.147 C 
HETATM    5  C6  UNL     1      13.820   7.143   2.820  1.00  0.00     0.040 C 
BRANCH   4   6
HETATM    6  N2  UNL     1      15.192   8.931   3.847  1.00  0.00    -0.348 N 
HETATM    7  C4  UNL     1      16.445   8.623   4.441  1.00  0.00     0.248 C 
HETATM    8  O1  UNL     1      17.165   7.782   3.835  1.00  0.00    -0.271 OA
ATOM      9  H2  UNL     1      14.585   9.605   4.314  1.00  0.00     0.163 HD
BRANCH   7  10
HETATM   10  C2  UNL     1      16.897   9.253   5.706  1.00  0.00     0.272 C 
HETATM   11  C3  UNL     1      15.666   9.775   6.428  1.00  0.00     0.050 C 
BRANCH  10  12
HETATM   12  N1  UNL     1      17.797  10.333   5.374  1.00  0.00    -0.067 N 
HETATM   13  C1  UNL     1      18.815  10.538   6.386  1.00  0.00     0.267 C 
ATOM     14  H12 UNL     1      17.284  11.195   5.190  1.00  0.00     0.277 HD
ATOM     15  H11 UNL     1      18.217  10.191   4.455  1.00  0.00     0.277 HD
ENDBRANCH  10  12
ENDBRANCH   7  10
ENDBRANCH   4   6
ENDBRANCH   1   4
BRANCH   1  16
HETATM   16  N4  UNL     1      12.733   9.804   2.059  1.00  0.00    -0.369 N 
HETATM   17  C15 UNL     1      11.712   9.524   1.067  1.00  0.00     0.126 C 
HETATM   18  C16 UNL     1      10.332   9.730   1.618  1.00  0.00     0.053 C 
HETATM   19  C17 UNL     1      10.233   9.120   3.006  1.00  0.00     0.192 C 
HETATM   20  C24 UNL     1      11.140   9.853   3.930  1.00  0.00     0.053 C 
HETATM   21  C25 UNL     1      12.327  10.499   3.230  1.00  0.00     0.126 C 
BRANCH  19  22
HETATM   22  N5  UNL     1       8.838   9.126   3.397  1.00  0.00    -0.070 N 
HETATM   23  C18 UNL     1       8.660  10.258   4.272  1.00  0.00     0.272 C 
HETATM   24  C19 UNL     1       8.576   7.859   4.050  1.00  0.00     0.272 C 
BRANCH  22  25
HETATM   25  C20 UNL     1       7.940   9.241   2.286  1.00  0.00     0.241 C 
BRANCH  25  26
HETATM   26  C21 UNL     1       6.878  10.279   2.420  1.00  0.00     0.012 A 
HETATM   27  C22 UNL     1       5.443   9.995   2.255  1.00  0.00     0.007 A 
HETATM   28  C23 UNL     1       6.199  10.702   1.129  1.00  0.00     0.007 A 
ENDBRANCH  25  26
ENDBRANCH  22  25
ENDBRANCH  19  22
ENDBRANCH   1  16
BRANCH   2  29
HETATM   29  C8  UNL     1      15.941   9.544   0.304  1.00  0.00     0.215 C 
BRANCH  29  30
HETATM   30  C9  UNL     1      15.994   9.418  -1.181  1.00  0.00    -0.086 C 
HETATM   31  C10 UNL     1      16.012   9.324  -2.383  1.00  0.00    -0.096 C 
BRANCH  31  32
HETATM   32  C11 UNL     1      16.008   9.223  -3.842  1.00  0.00     0.013 C 
HETATM   33  C12 UNL     1      15.041  10.277  -4.370  1.00  0.00     0.028 C 
HETATM   34  C13 UNL     1      15.532   7.831  -4.278  1.00  0.00     0.028 C 
HETATM   35  C14 UNL     1      17.399   9.504  -4.344  1.00  0.00     0.028 C 
ENDBRANCH  31  32
ENDBRANCH  29  30
ENDBRANCH   2  29
TORSDOF 11
ENDMDL
MODEL 2
REMARK VINA RESULT: -8.293995055      1.540      1.883
REMARK  11 active torsions:
REMARK  status: ('A' for Active; 'I' for Inactive)
REMARK    1  A    between atoms: N1_2  and  C2_5 
REMARK    2  A    between atoms: C2_5  and  C4_7 
REMARK       I    between atoms: C4_7  and  N2_9 
REMARK    3  A    between atoms: N2_9  and  C5_11 
REMARK    4  A    between atoms: C5_11  and  C7_13 
REMARK    5  A    between atoms: C7_13  and  N4_23 
REMARK    6  A    between atoms: N3_14  and  C8_16 
REMARK    7  A    between atoms: C8_16  and  C9_17 
REMARK    8  A    between atoms: C10_18  and  C11_19 
REMARK    9  A    between atoms: C17_26  and  N5_27 
REMARK   10  A    between atoms: N5_27  and  C20_30 
REMARK   11  A    between atoms: C20_30  and  C21_31 
ROOT
HETATM    1  C7  UNL     1      14.448  10.455   0.606  1.00  0.00     0.098 C 
HETATM    2  N3  UNL     1      14.849  11.235  -0.292  1.00  0.00    -0.368 N 
ATOM      3  H3  UNL     1      14.182  11.921  -0.642  1.00  0.00     0.161 HD
ENDROOT
BRANCH   1   4
HETATM    4  C5  UNL     1      15.343   9.418   1.183  1.00  0.00     0.147 C 
HETATM    5  C6  UNL     1      15.348   8.174   0.332  1.00  0.00     0.040 C 
BRANCH   4   6
HETATM    6  N2  UNL     1      14.957   9.146   2.575  1.00  0.00    -0.348 N 
HETATM    7  C4  UNL     1      15.874   8.689   3.560  1.00  0.00     0.248 C 
HETATM    8  O1  UNL     1      17.066   8.516   3.183  1.00  0.00    -0.271 OA
ATOM      9  H2  UNL     1      13.985   9.292   2.847  1.00  0.00     0.163 HD
BRANCH   7  10
HETATM   10  C2  UNL     1      15.464   8.428   4.962  1.00  0.00     0.272 C 
HETATM   11  C3  UNL     1      14.439   7.307   4.943  1.00  0.00     0.050 C 
BRANCH  10  12
HETATM   12  N1  UNL     1      14.892   9.642   5.496  1.00  0.00    -0.067 N 
HETATM   13  C1  UNL     1      13.547   9.447   6.001  1.00  0.00     0.267 C 
ATOM     14  H12 UNL     1      14.920  10.394   4.807  1.00  0.00     0.277 HD
ATOM     15  H11 UNL     1      15.496  10.050   6.209  1.00  0.00     0.277 HD
ENDBRANCH  10  12
ENDBRANCH   7  10
ENDBRANCH   4   6
ENDBRANCH   1   4
BRANCH   1  16
HETATM   16  N4  UNL     1      13.096  10.596   1.064  1.00  0.00    -0.369 N 
HETATM   17  C15 UNL     1      12.106   9.755   0.419  1.00  0.00     0.126 C 
HETATM   18  C16 UNL     1      10.813   9.735   1.181  1.00  0.00     0.053 C 
HETATM   19  C17 UNL     1      11.092   9.581   2.667  1.00  0.00     0.192 C 
HETATM   20  C24 UNL     1      11.820  10.783   3.156  1.00  0.00     0.053 C 
HETATM   21  C25 UNL     1      12.636  11.480   2.077  1.00  0.00     0.126 C 
BRANCH  19  22
HETATM   22  N5  UNL     1       9.830   9.326   3.332  1.00  0.00    -0.070 N 
HETATM   23  C18 UNL     1       9.998   9.733   4.705  1.00  0.00     0.272 C 
HETATM   24  C19 UNL     1       9.557   7.909   3.190  1.00  0.00     0.272 C 
BRANCH  22  25
HETATM   25  C20 UNL     1       8.732  10.044   2.756  1.00  0.00     0.241 C 
BRANCH  25  26
HETATM   26  C21 UNL     1       7.401   9.380   2.861  1.00  0.00     0.012 A 
HETATM   27  C22 UNL     1       6.169   9.941   2.282  1.00  0.00     0.007 A 
HETATM   28  C23 UNL     1       6.400  10.045   3.790  1.00  0.00     0.007 A 
ENDBRANCH  25  26
ENDBRANCH  22  25
ENDBRANCH  19  22
ENDBRANCH   1  16
BRANCH   2  29
HETATM   29  C8  UNL     1      16.144  11.247  -0.865  1.00  0.00     0.215 C 
BRANCH  29  30
HETATM   30  C9  UNL     1      16.148  10.664  -2.237  1.00  0.00    -0.086 C 
HETATM   31  C10 UNL     1      16.124  10.191  -3.346  1.00  0.00    -0.096 C 
BRANCH  31  32
HETATM   32  C11 UNL     1      16.066   9.618  -4.690  1.00  0.00     0.013 C 
HETATM   33  C12 UNL     1      15.099  10.468  -5.508  1.00  0.00     0.028 C 
HETATM   34  C13 UNL     1      15.551   8.174  -4.633  1.00  0.00     0.028 C 
HETATM   35  C14 UNL     1      17.443   9.681  -5.295  1.00  0.00     0.028 C 
ENDBRANCH  31  32
ENDBRANCH  29  30
ENDBRANCH   2  29
TORSDOF 11
ENDMDL
MODEL 3
REMARK VINA RESULT: -8.159435856      1.914      7.606
REMARK  11 active torsions:
REMARK  status: ('A' for Active; 'I' for Inactive)
REMARK    1  A    between atoms: N1_2  and  C2_5 
REMARK    2  A    between atoms: C2_5  and  C4_7 
REMARK       I    between atoms: C4_7  and  N2_9 
REMARK    3  A    between atoms: N2_9  and  C5_11 
REMARK    4  A    between atoms: C5_11  and  C7_13 
REMARK    5  A    between atoms: C7_13  and  N4_23 
REMARK    6  A    between atoms: N3_14  and  C8_16 
REMARK    7  A    between atoms: C8_16  and  C9_17 
REMARK    8  A    between atoms: C10_18  and  C11_19 
REMARK    9  A    between atoms: C17_26  and  N5_27 
REMARK   10  A    between atoms: N5_27  and  C20_30 
REMARK   11  A    between atoms: C20_30  and  C21_31 
ROOT
HETATM    1  C7  UNL     1      12.386   9.035   1.835  1.00  0.00     0.098 C 
HETATM    2  N3  UNL     1      11.406   8.580   1.195  1.00  0.00    -0.368 N 
ATOM      3  H3  UNL     1      11.344   8.824   0.207  1.00  0.00     0.161 HD
ENDROOT
BRANCH   1   4
HETATM    4  C5  UNL     1      12.568   8.739   3.280  1.00  0.00     0.147 C 
HETATM    5  C6  UNL     1      12.135   9.906   4.131  1.00  0.00     0.040 C 
BRANCH   4   6
HETATM    6  N2  UNL     1      13.960   8.342   3.535  1.00  0.00    -0.348 N 
HETATM    7  C4  UNL     1      14.324   7.365   4.501  1.00  0.00     0.248 C 
HETATM    8  O1  UNL     1      13.381   6.838   5.153  1.00  0.00    -0.271 OA
ATOM      9  H2  UNL     1      14.699   8.790   2.995  1.00  0.00     0.163 HD
BRANCH   7  10
HETATM   10  C2  UNL     1      15.736   6.973   4.736  1.00  0.00     0.272 C 
HETATM   11  C3  UNL     1      16.489   8.213   5.190  1.00  0.00     0.050 C 
BRANCH  10  12
HETATM   12  N1  UNL     1      16.274   6.466   3.496  1.00  0.00    -0.067 N 
HETATM   13  C1  UNL     1      17.023   7.470   2.765  1.00  0.00     0.267 C 
ATOM     14  H12 UNL     1      15.540   6.061   2.916  1.00  0.00     0.277 HD
ATOM     15  H11 UNL     1      16.838   5.631   3.655  1.00  0.00     0.277 HD
ENDBRANCH  10  12
ENDBRANCH   7  10
ENDBRANCH   4   6
ENDBRANCH   1   4
BRANCH   1  16
HETATM   16  N4  UNL     1      13.330   9.852   1.129  1.00  0.00    -0.369 N 
HETATM   17  C15 UNL     1      14.512   9.181   0.623  1.00  0.00     0.126 C 
HETATM   18  C16 UNL     1      15.255  10.031  -0.364  1.00  0.00     0.053 C 
HETATM   19  C17 UNL     1      14.274  10.676  -1.330  1.00  0.00     0.192 C 
HETATM   20  C24 UNL     1      13.395  11.615  -0.582  1.00  0.00     0.053 C 
HETATM   21  C25 UNL     1      13.222  11.248   0.884  1.00  0.00     0.126 C 
BRANCH  19  22
HETATM   22  N5  UNL     1      15.038  11.285  -2.400  1.00  0.00    -0.070 N 
HETATM   23  C18 UNL     1      16.427  11.183  -2.023  1.00  0.00     0.272 C 
HETATM   24  C19 UNL     1      14.583  12.657  -2.517  1.00  0.00     0.272 C 
BRANCH  22  25
HETATM   25  C20 UNL     1      14.844  10.648  -3.668  1.00  0.00     0.241 C 
BRANCH  25  26
HETATM   26  C21 UNL     1      15.949   9.754  -4.117  1.00  0.00     0.012 A 
HETATM   27  C22 UNL     1      16.168   9.383  -5.525  1.00  0.00     0.007 A 
HETATM   28  C23 UNL     1      15.533   8.366  -4.575  1.00  0.00     0.007 A 
ENDBRANCH  25  26
ENDBRANCH  22  25
ENDBRANCH  19  22
ENDBRANCH   1  16
BRANCH   2  29
HETATM   29  C8  UNL     1      10.380   7.758   1.720  1.00  0.00     0.215 C 
BRANCH  29  30
HETATM   30  C9  UNL     1       9.403   8.543   2.529  1.00  0.00    -0.086 C 
HETATM   31  C10 UNL     1       8.616   9.161   3.203  1.00  0.00    -0.096 C 
BRANCH  31  32
HETATM   32  C11 UNL     1       7.668   9.891   4.043  1.00  0.00     0.013 C 
HETATM   33  C12 UNL     1       7.207   8.941   5.142  1.00  0.00     0.028 C 
HETATM   34  C13 UNL     1       6.456  10.338   3.214  1.00  0.00     0.028 C 
HETATM   35  C14 UNL     1       8.379  11.071   4.649  1.00  0.00     0.028 C 
ENDBRANCH  31  32
ENDBRANCH  29  30
ENDBRANCH   2  29
TORSDOF 11
ENDMDL
MODEL 4
REMARK VINA RESULT: -8.158360299      2.144      3.575
REMARK  11 active torsions:
REMARK  status: ('A' for Active; 'I' for Inactive)
REMARK    1  A    between atoms: N1_2  and  C2_5 
REMARK    2  A    between atoms: C2_5  and  C4_7 
REMARK       I    between atoms: C4_7  and  N2_9 
REMARK    3  A    between atoms: N2_9  and  C5_11 
REMARK    4  A    between atoms: C5_11  and  C7_13 
REMARK    5  A    between atoms: C7_13  and  N4_23 
REMARK    6  A    between atoms: N3_14  and  C8_16 
REMARK    7  A    between atoms: C8_16  and  C9_17 
REMARK    8  A    between atoms: C10_18  and  C11_19 
REMARK    9  A    between atoms: C17_26  and  N5_27 
REMARK   10  A    between atoms: N5_27  and  C20_30 
REMARK   11  A    between atoms: C20_30  and  C21_31 
ROOT
HETATM    1  C7  UNL     1      13.681   8.275   1.613  1.00  0.00     0.098 C 
HETATM    2  N3  UNL     1      14.257   7.460   0.851  1.00  0.00    -0.368 N 
ATOM      3  H3  UNL     1      13.676   6.752   0.405  1.00  0.00     0.161 HD
ENDROOT
BRANCH   1   4
HETATM    4  C5  UNL     1      14.438   9.345   2.312  1.00  0.00     0.147 C 
HETATM    5  C6  UNL     1      14.690   8.977   3.753  1.00  0.00     0.040 C 
BRANCH   4   6
HETATM    6  N2  UNL     1      13.732  10.627   2.174  1.00  0.00    -0.348 N 
HETATM    7  C4  UNL     1      13.963  11.529   1.101  1.00  0.00     0.248 C 
HETATM    8  O1  UNL     1      14.825  11.182   0.248  1.00  0.00    -0.271 OA
ATOM      9  H2  UNL     1      13.044  10.881   2.883  1.00  0.00     0.163 HD
BRANCH   7  10
HETATM   10  C2  UNL     1      13.231  12.815   0.977  1.00  0.00     0.272 C 
HETATM   11  C3  UNL     1      11.981  12.557   0.152  1.00  0.00     0.050 C 
BRANCH  10  12
HETATM   12  N1  UNL     1      14.099  13.763   0.319  1.00  0.00    -0.067 N 
HETATM   13  C1  UNL     1      13.532  14.270  -0.916  1.00  0.00     0.267 C 
ATOM     14  H12 UNL     1      15.025  13.364   0.161  1.00  0.00     0.277 HD
ATOM     15  H11 UNL     1      14.353  14.526   0.946  1.00  0.00     0.277 HD
ENDBRANCH  10  12
ENDBRANCH   7  10
ENDBRANCH   4   6
ENDBRANCH   1   4
BRANCH   1  16
HETATM   16  N4  UNL     1      12.263   8.144   1.788  1.00  0.00    -0.369 N 
HETATM   17  C15 UNL     1      11.822   7.457   2.986  1.00  0.00     0.126 C 
HETATM   18  C16 UNL     1      10.357   7.663   3.238  1.00  0.00     0.053 C 
HETATM   19  C17 UNL     1       9.997   9.124   3.021  1.00  0.00     0.192 C 
HETATM   20  C24 UNL     1      10.205   9.473   1.590  1.00  0.00     0.053 C 
HETATM   21  C25 UNL     1      11.256   8.615   0.902  1.00  0.00     0.126 C 
BRANCH  19  22
HETATM   22  N5  UNL     1       8.645   9.324   3.503  1.00  0.00    -0.070 N 
HETATM   23  C18 UNL     1       8.602  10.649   4.070  1.00  0.00     0.272 C 
HETATM   24  C19 UNL     1       8.385   8.282   4.477  1.00  0.00     0.272 C 
BRANCH  22  25
HETATM   25  C20 UNL     1       7.656   9.217   2.472  1.00  0.00     0.241 C 
BRANCH  25  26
HETATM   26  C21 UNL     1       6.622  10.291   2.457  1.00  0.00     0.012 A 
HETATM   27  C22 UNL     1       5.203  10.045   2.149  1.00  0.00     0.007 A 
HETATM   28  C23 UNL     1       6.097  10.687   1.087  1.00  0.00     0.007 A 
ENDBRANCH  25  26
ENDBRANCH  22  25
ENDBRANCH  19  22
ENDBRANCH   1  16
BRANCH   2  29
HETATM   29  C8  UNL     1      15.642   7.435   0.556  1.00  0.00     0.215 C 
BRANCH  29  30
HETATM   30  C9  UNL     1      15.941   8.096  -0.748  1.00  0.00    -0.086 C 
HETATM   31  C10 UNL     1      16.158   8.640  -1.802  1.00  0.00    -0.096 C 
BRANCH  31  32
HETATM   32  C11 UNL     1      16.394   9.310  -3.080  1.00  0.00     0.013 C 
HETATM   33  C12 UNL     1      15.949   8.358  -4.184  1.00  0.00     0.028 C 
HETATM   34  C13 UNL     1      17.886   9.625  -3.250  1.00  0.00     0.028 C 
HETATM   35  C14 UNL     1      15.564  10.565  -3.119  1.00  0.00     0.028 C 
ENDBRANCH  31  32
ENDBRANCH  29  30
ENDBRANCH   2  29
TORSDOF 11
ENDMDL
MODEL 5
REMARK VINA RESULT: -8.115854829      1.229      1.787
REMARK  11 active torsions:
REMARK  status: ('A' for Active; 'I' for Inactive)
REMARK    1  A    between atoms: N1_2  and  C2_5 
REMARK    2  A    between atoms: C2_5  and  C4_7 
REMARK       I    between atoms: C4_7  and  N2_9 
REMARK    3  A    between atoms: N2_9  and  C5_11 
REMARK    4  A    between atoms: C5_11  and  C7_13 
REMARK    5  A    between atoms: C7_13  and  N4_23 
REMARK    6  A    between atoms: N3_14  and  C8_16 
REMARK    7  A    between atoms: C8_16  and  C9_17 
REMARK    8  A    between atoms: C10_18  and  C11_19 
REMARK    9  A    between atoms: C17_26  and  N5_27 
REMARK   10  A    between atoms: N5_27  and  C20_30 
REMARK   11  A    between atoms: C20_30  and  C21_31 
ROOT
HETATM    1  C7  UNL     1      14.342   9.998   0.950  1.00  0.00     0.098 C 
HETATM    2  N3  UNL     1      14.858  10.730   0.070  1.00  0.00    -0.368 N 
ATOM      3  H3  UNL     1      14.278  11.478  -0.308  1.00  0.00     0.161 HD
ENDROOT
BRANCH   1   4
HETATM    4  C5  UNL     1      15.102   8.879   1.565  1.00  0.00     0.147 C 
HETATM    5  C6  UNL     1      14.561   7.545   1.114  1.00  0.00     0.040 C 
BRANCH   4   6
HETATM    6  N2  UNL     1      15.101   9.020   3.028  1.00  0.00    -0.348 N 
HETATM    7  C4  UNL     1      16.195   8.630   3.846  1.00  0.00     0.248 C 
HETATM    8  O1  UNL     1      17.195   8.138   3.254  1.00  0.00    -0.271 OA
ATOM      9  H2  UNL     1      14.276   9.417   3.477  1.00  0.00     0.163 HD
BRANCH   7  10
HETATM   10  C2  UNL     1      16.176   8.790   5.322  1.00  0.00     0.272 C 
HETATM   11  C3  UNL     1      14.797   9.296   5.714  1.00  0.00     0.050 C 
BRANCH  10  12
HETATM   12  N1  UNL     1      17.198   9.743   5.684  1.00  0.00    -0.067 N 
HETATM   13  C1  UNL     1      17.482   9.739   7.105  1.00  0.00     0.267 C 
ATOM     14  H12 UNL     1      16.957  10.680   5.360  1.00  0.00     0.277 HD
ATOM     15  H11 UNL     1      18.048   9.594   5.139  1.00  0.00     0.277 HD
ENDBRANCH  10  12
ENDBRANCH   7  10
ENDBRANCH   4   6
ENDBRANCH   1   4
BRANCH   1  16
HETATM   16  N4  UNL     1      12.992  10.276   1.350  1.00  0.00    -0.369 N 
HETATM   17  C15 UNL     1      11.964  10.045   0.353  1.00  0.00     0.126 C 
HETATM   18  C16 UNL     1      10.592  10.044   0.960  1.00  0.00     0.053 C 
HETATM   19  C17 UNL     1      10.598   9.238   2.249  1.00  0.00     0.192 C 
HETATM   20  C24 UNL     1      11.471   9.915   3.245  1.00  0.00     0.053 C 
HETATM   21  C25 UNL     1      12.570  10.760   2.618  1.00  0.00     0.126 C 
BRANCH  19  22
HETATM   22  N5  UNL     1       9.223   9.061   2.669  1.00  0.00    -0.070 N 
HETATM   23  C18 UNL     1       9.130   7.735   3.228  1.00  0.00     0.272 C 
HETATM   24  C19 UNL     1       8.396   9.239   1.492  1.00  0.00     0.272 C 
BRANCH  22  25
HETATM   25  C20 UNL     1       8.804  10.019   3.649  1.00  0.00     0.241 C 
BRANCH  25  26
HETATM   26  C21 UNL     1       7.524   9.708   4.348  1.00  0.00     0.012 A 
HETATM   27  C22 UNL     1       6.533  10.732   4.717  1.00  0.00     0.007 A 
HETATM   28  C23 UNL     1       7.440  10.145   5.800  1.00  0.00     0.007 A 
ENDBRANCH  25  26
ENDBRANCH  22  25
ENDBRANCH  19  22
ENDBRANCH   1  16
BRANCH   2  29
HETATM   29  C8  UNL     1      16.171  10.610  -0.446  1.00  0.00     0.215 C 
BRANCH  29  30
HETATM   30  C9  UNL     1      16.166  10.214  -1.884  1.00  0.00    -0.086 C 
HETATM   31  C10 UNL     1      16.135   9.890  -3.045  1.00  0.00    -0.096 C 
BRANCH  31  32
HETATM   32  C11 UNL     1      16.069   9.494  -4.451  1.00  0.00     0.013 C 
HETATM   33  C12 UNL     1      15.600   8.044  -4.495  1.00  0.00     0.028 C 
HETATM   34  C13 UNL     1      17.455   9.601  -5.101  1.00  0.00     0.028 C 
HETATM   35  C14 UNL     1      15.071  10.379  -5.149  1.00  0.00     0.028 C 
ENDBRANCH  31  32
ENDBRANCH  29  30
ENDBRANCH   2  29
TORSDOF 11
ENDMDL
