MODEL 1
REMARK VINA RESULT: -8.004214730      0.000      0.000
REMARK  13 active torsions:
REMARK  status: ('A' for Active; 'I' for Inactive)
REMARK    1  A    between atoms: C2_2  and  O1_3 
REMARK    2  A    between atoms: C2_2  and  C3_5 
REMARK    3  A    between atoms: C5_8  and  C6_9 
REMARK    4  A    between atoms: C6_9  and  C7_10 
REMARK    5  A    between atoms: C7_10  and  C8_11 
REMARK    6  A    between atoms: C8_11  and  C9_12 
REMARK    7  A    between atoms: C9_12  and  C10_13 
REMARK    8  A    between atoms: C10_13  and  C11_14 
REMARK    9  A    between atoms: C11_14  and  C12_15 
REMARK   10  A    between atoms: C12_15  and  C13_16 
REMARK   11  A    between atoms: C15_19  and  O4_20 
REMARK   12  A    between atoms: C16_22  and  O5_23 
REMARK   13  A    between atoms: C17_25  and  O6_26 
ROOT
HETATM    1  C10 UNL     1      16.948  36.138  61.111  1.00  0.00     0.000 C 
ENDROOT
BRANCH   1   2
HETATM    2  C9  UNL     1      16.053  37.280  60.705  1.00  0.00     0.000 C 
BRANCH   2   3
HETATM    3  C8  UNL     1      15.354  37.912  61.877  1.00  0.00     0.000 C 
BRANCH   3   4
HETATM    4  C7  UNL     1      14.669  36.916  62.756  1.00  0.00     0.005 C 
BRANCH   4   5
HETATM    5  C6  UNL     1      13.217  37.248  62.960  1.00  0.00     0.061 C 
BRANCH   5   6
HETATM    6  C5  UNL     1      12.409  37.127  61.702  1.00  0.00     0.260 C 
HETATM    7  O2  UNL     1      11.510  36.076  61.834  1.00  0.00    -0.359 OA
HETATM    8  C4  UNL     1      10.379  36.631  62.413  1.00  0.00     0.205 C 
HETATM    9  C3  UNL     1      10.597  38.108  62.388  1.00  0.00     0.176 C 
HETATM   10  O7  UNL     1      11.652  38.286  61.504  1.00  0.00    -0.351 OA
BRANCH   9  11
HETATM   11  C2  UNL     1       9.358  38.860  61.940  1.00  0.00     0.145 C 
HETATM   12  C1  UNL     1       8.264  37.911  61.522  1.00  0.00     0.042 C 
BRANCH  11  13
HETATM   13  O1  UNL     1       9.704  39.742  60.930  1.00  0.00    -0.393 OA
ATOM     14  H1  UNL     1       8.956  40.229  60.605  1.00  0.00     0.210 HD
ENDBRANCH  11  13
ENDBRANCH   9  11
ENDBRANCH   5   6
ENDBRANCH   4   5
ENDBRANCH   3   4
ENDBRANCH   2   3
ENDBRANCH   1   2
BRANCH   1  15
HETATM   15  C11 UNL     1      18.265  36.166  60.400  1.00  0.00     0.002 C 
BRANCH  15  16
HETATM   16  C12 UNL     1      18.416  34.989  59.473  1.00  0.00     0.034 C 
BRANCH  16  17
HETATM   17  C13 UNL     1      18.545  35.450  58.034  1.00  0.00     0.152 C 
HETATM   18  O3  UNL     1      19.149  36.680  58.037  1.00  0.00    -0.381 OA
HETATM   19  C14 UNL     1      19.245  37.293  56.817  1.00  0.00     0.202 C 
HETATM   20  C15 UNL     1      17.929  37.381  56.080  1.00  0.00     0.173 C 
HETATM   21  C16 UNL     1      17.261  36.014  56.046  1.00  0.00     0.180 C 
HETATM   22  C17 UNL     1      17.134  35.562  57.486  1.00  0.00     0.178 C 
BRANCH  20  23
HETATM   23  O4  UNL     1      17.056  38.241  56.736  1.00  0.00    -0.391 OA
ATOM     24  H4  UNL     1      16.970  39.059  56.262  1.00  0.00     0.210 HD
ENDBRANCH  20  23
BRANCH  21  25
HETATM   25  O5  UNL     1      16.017  36.137  55.432  1.00  0.00    -0.390 OA
ATOM     26  H5  UNL     1      15.837  37.058  55.287  1.00  0.00     0.210 HD
ENDBRANCH  21  25
BRANCH  22  27
HETATM   27  O6  UNL     1      16.459  34.350  57.576  1.00  0.00    -0.390 OA
ATOM     28  H6  UNL     1      16.598  33.818  56.802  1.00  0.00     0.210 HD
ENDBRANCH  22  27
ENDBRANCH  16  17
ENDBRANCH  15  16
ENDBRANCH   1  15
TORSDOF 13
ENDMDL
MODEL 2
REMARK VINA RESULT: -7.924765875      1.559      2.701
REMARK  13 active torsions:
REMARK  status: ('A' for Active; 'I' for Inactive)
REMARK    1  A    between atoms: C2_2  and  O1_3 
REMARK    2  A    between atoms: C2_2  and  C3_5 
REMARK    3  A    between atoms: C5_8  and  C6_9 
REMARK    4  A    between atoms: C6_9  and  C7_10 
REMARK    5  A    between atoms: C7_10  and  C8_11 
REMARK    6  A    between atoms: C8_11  and  C9_12 
REMARK    7  A    between atoms: C9_12  and  C10_13 
REMARK    8  A    between atoms: C10_13  and  C11_14 
REMARK    9  A    between atoms: C11_14  and  C12_15 
REMARK   10  A    between atoms: C12_15  and  C13_16 
REMARK   11  A    between atoms: C15_19  and  O4_20 
REMARK   12  A    between atoms: C16_22  and  O5_23 
REMARK   13  A    between atoms: C17_25  and  O6_26 
ROOT
HETATM    1  C10 UNL     1      16.419  38.393  59.623  1.00  0.00     0.000 C 
ENDROOT
BRANCH   1   2
HETATM    2  C9  UNL     1      16.461  36.894  59.760  1.00  0.00     0.000 C 
BRANCH   2   3
HETATM    3  C8  UNL     1      17.031  36.449  61.079  1.00  0.00     0.000 C 
BRANCH   3   4
HETATM    4  C7  UNL     1      16.356  37.086  62.251  1.00  0.00     0.005 C 
BRANCH   4   5
HETATM    5  C6  UNL     1      14.974  36.536  62.474  1.00  0.00     0.061 C 
BRANCH   5   6
HETATM    6  C5  UNL     1      14.047  37.529  63.108  1.00  0.00     0.260 C 
HETATM    7  O2  UNL     1      13.828  38.580  62.224  1.00  0.00    -0.359 OA
HETATM    8  C4  UNL     1      12.749  38.187  61.448  1.00  0.00     0.205 C 
HETATM    9  C3  UNL     1      12.215  36.952  62.093  1.00  0.00     0.176 C 
HETATM   10  O7  UNL     1      12.803  36.939  63.351  1.00  0.00    -0.351 OA
BRANCH   9  11
HETATM   11  C2  UNL     1      10.701  36.964  62.184  1.00  0.00     0.145 C 
HETATM   12  C1  UNL     1      10.145  38.328  61.858  1.00  0.00     0.042 C 
BRANCH  11  13
HETATM   13  O1  UNL     1      10.318  36.527  63.440  1.00  0.00    -0.393 OA
ATOM     14  H1  UNL     1      10.178  35.588  63.468  1.00  0.00     0.210 HD
ENDBRANCH  11  13
ENDBRANCH   9  11
ENDBRANCH   5   6
ENDBRANCH   4   5
ENDBRANCH   3   4
ENDBRANCH   2   3
ENDBRANCH   1   2
BRANCH   1  15
HETATM   15  C11 UNL     1      17.116  38.872  58.388  1.00  0.00     0.002 C 
BRANCH  15  16
HETATM   16  C12 UNL     1      18.395  38.115  58.147  1.00  0.00     0.034 C 
BRANCH  16  17
HETATM   17  C13 UNL     1      18.378  37.447  56.787  1.00  0.00     0.152 C 
HETATM   18  O3  UNL     1      17.184  37.745  56.185  1.00  0.00    -0.381 OA
HETATM   19  C14 UNL     1      16.958  37.126  54.985  1.00  0.00     0.202 C 
HETATM   20  C15 UNL     1      17.136  35.627  55.033  1.00  0.00     0.173 C 
HETATM   21  C16 UNL     1      18.473  35.285  55.675  1.00  0.00     0.180 C 
HETATM   22  C17 UNL     1      18.481  35.954  57.034  1.00  0.00     0.178 C 
BRANCH  20  23
HETATM   23  O4  UNL     1      16.149  35.041  55.819  1.00  0.00    -0.391 OA
ATOM     24  H4  UNL     1      15.844  35.648  56.482  1.00  0.00     0.210 HD
ENDBRANCH  20  23
BRANCH  21  25
HETATM   25  O5  UNL     1      18.579  33.900  55.781  1.00  0.00    -0.390 OA
ATOM     26  H5  UNL     1      18.570  33.525  54.908  1.00  0.00     0.210 HD
ENDBRANCH  21  25
BRANCH  22  27
HETATM   27  O6  UNL     1      19.634  35.636  57.746  1.00  0.00    -0.390 OA
ATOM     28  H6  UNL     1      20.060  34.866  57.388  1.00  0.00     0.210 HD
ENDBRANCH  22  27
ENDBRANCH  16  17
ENDBRANCH  15  16
ENDBRANCH   1  15
TORSDOF 13
ENDMDL
MODEL 3
REMARK VINA RESULT: -7.861496731      1.828      2.738
REMARK  13 active torsions:
REMARK  status: ('A' for Active; 'I' for Inactive)
REMARK    1  A    between atoms: C2_2  and  O1_3 
REMARK    2  A    between atoms: C2_2  and  C3_5 
REMARK    3  A    between atoms: C5_8  and  C6_9 
REMARK    4  A    between atoms: C6_9  and  C7_10 
REMARK    5  A    between atoms: C7_10  and  C8_11 
REMARK    6  A    between atoms: C8_11  and  C9_12 
REMARK    7  A    between atoms: C9_12  and  C10_13 
REMARK    8  A    between atoms: C10_13  and  C11_14 
REMARK    9  A    between atoms: C11_14  and  C12_15 
REMARK   10  A    between atoms: C12_15  and  C13_16 
REMARK   11  A    between atoms: C15_19  and  O4_20 
REMARK   12  A    between atoms: C16_22  and  O5_23 
REMARK   13  A    between atoms: C17_25  and  O6_26 
ROOT
HETATM    1  C10 UNL     1      14.944  37.948  62.322  1.00  0.00     0.000 C 
ENDROOT
BRANCH   1   2
HETATM    2  C9  UNL     1      14.046  38.216  61.143  1.00  0.00     0.000 C 
BRANCH   2   3
HETATM    3  C8  UNL     1      12.611  38.423  61.543  1.00  0.00     0.000 C 
BRANCH   3   4
HETATM    4  C7  UNL     1      12.051  37.278  62.324  1.00  0.00     0.005 C 
BRANCH   4   5
HETATM    5  C6  UNL     1      10.569  37.415  62.542  1.00  0.00     0.061 C 
BRANCH   5   6
HETATM    6  C5  UNL     1       9.922  38.353  61.568  1.00  0.00     0.260 C 
HETATM    7  O2  UNL     1       8.991  37.655  60.809  1.00  0.00    -0.359 OA
HETATM    8  C4  UNL     1       7.809  37.715  61.531  1.00  0.00     0.205 C 
HETATM    9  C3  UNL     1       8.060  38.688  62.635  1.00  0.00     0.176 C 
HETATM   10  O7  UNL     1       9.220  39.349  62.254  1.00  0.00    -0.351 OA
BRANCH   9  11
HETATM   11  C2  UNL     1       6.903  39.652  62.820  1.00  0.00     0.145 C 
HETATM   12  C1  UNL     1       7.309  41.064  62.483  1.00  0.00     0.042 C 
BRANCH  11  13
HETATM   13  O1  UNL     1       6.421  39.538  64.113  1.00  0.00    -0.393 OA
ATOM     14  H1  UNL     1       6.798  40.186  64.697  1.00  0.00     0.210 HD
ENDBRANCH  11  13
ENDBRANCH   9  11
ENDBRANCH   5   6
ENDBRANCH   4   5
ENDBRANCH   3   4
ENDBRANCH   2   3
ENDBRANCH   1   2
BRANCH   1  15
HETATM   15  C11 UNL     1      16.160  37.161  61.945  1.00  0.00     0.002 C 
BRANCH  15  16
HETATM   16  C12 UNL     1      16.033  36.578  60.563  1.00  0.00     0.034 C 
BRANCH  16  17
HETATM   17  C13 UNL     1      17.162  37.056  59.670  1.00  0.00     0.152 C 
HETATM   18  O3  UNL     1      16.751  38.205  59.049  1.00  0.00    -0.381 OA
HETATM   19  C14 UNL     1      17.616  38.714  58.118  1.00  0.00     0.202 C 
HETATM   20  C15 UNL     1      18.046  37.707  57.077  1.00  0.00     0.173 C 
HETATM   21  C16 UNL     1      18.531  36.434  57.757  1.00  0.00     0.180 C 
HETATM   22  C17 UNL     1      17.398  35.962  58.645  1.00  0.00     0.178 C 
BRANCH  20  23
HETATM   23  O4  UNL     1      16.973  37.348  56.268  1.00  0.00    -0.391 OA
ATOM     24  H4  UNL     1      17.113  37.640  55.376  1.00  0.00     0.210 HD
ENDBRANCH  20  23
BRANCH  21  25
HETATM   25  O5  UNL     1      18.845  35.494  56.779  1.00  0.00    -0.390 OA
ATOM     26  H5  UNL     1      19.562  34.955  57.092  1.00  0.00     0.210 HD
ENDBRANCH  21  25
BRANCH  22  27
HETATM   27  O6  UNL     1      17.706  34.752  59.257  1.00  0.00    -0.390 OA
ATOM     28  H6  UNL     1      16.957  34.399  59.722  1.00  0.00     0.210 HD
ENDBRANCH  22  27
ENDBRANCH  16  17
ENDBRANCH  15  16
ENDBRANCH   1  15
TORSDOF 13
ENDMDL
MODEL 4
REMARK VINA RESULT: -7.817754905      1.643      2.669
REMARK  13 active torsions:
REMARK  status: ('A' for Active; 'I' for Inactive)
REMARK    1  A    between atoms: C2_2  and  O1_3 
REMARK    2  A    between atoms: C2_2  and  C3_5 
REMARK    3  A    between atoms: C5_8  and  C6_9 
REMARK    4  A    between atoms: C6_9  and  C7_10 
REMARK    5  A    between atoms: C7_10  and  C8_11 
REMARK    6  A    between atoms: C8_11  and  C9_12 
REMARK    7  A    between atoms: C9_12  and  C10_13 
REMARK    8  A    between atoms: C10_13  and  C11_14 
REMARK    9  A    between atoms: C11_14  and  C12_15 
REMARK   10  A    between atoms: C12_15  and  C13_16 
REMARK   11  A    between atoms: C15_19  and  O4_20 
REMARK   12  A    between atoms: C16_22  and  O5_23 
REMARK   13  A    between atoms: C17_25  and  O6_26 
ROOT
HETATM    1  C10 UNL     1      18.927  36.358  60.039  1.00  0.00     0.000 C 
ENDROOT
BRANCH   1   2
HETATM    2  C9  UNL     1      17.577  35.767  60.347  1.00  0.00     0.000 C 
BRANCH   2   3
HETATM    3  C8  UNL     1      16.527  36.816  60.590  1.00  0.00     0.000 C 
BRANCH   3   4
HETATM    4  C7  UNL     1      16.291  37.081  62.042  1.00  0.00     0.005 C 
BRANCH   4   5
HETATM    5  C6  UNL     1      14.990  36.495  62.518  1.00  0.00     0.061 C 
BRANCH   5   6
HETATM    6  C5  UNL     1      14.079  37.518  63.129  1.00  0.00     0.260 C 
HETATM    7  O2  UNL     1      13.898  38.563  62.231  1.00  0.00    -0.359 OA
HETATM    8  C4  UNL     1      12.821  38.188  61.444  1.00  0.00     0.205 C 
HETATM    9  C3  UNL     1      12.248  36.974  62.096  1.00  0.00     0.176 C 
HETATM   10  O7  UNL     1      12.818  36.961  63.361  1.00  0.00    -0.351 OA
BRANCH   9  11
HETATM   11  C2  UNL     1      10.733  37.023  62.165  1.00  0.00     0.145 C 
HETATM   12  C1  UNL     1      10.216  38.402  61.838  1.00  0.00     0.042 C 
BRANCH  11  13
HETATM   13  O1  UNL     1      10.322  36.591  63.414  1.00  0.00    -0.393 OA
ATOM     14  H1  UNL     1      10.165  35.654  63.438  1.00  0.00     0.210 HD
ENDBRANCH  11  13
ENDBRANCH   9  11
ENDBRANCH   5   6
ENDBRANCH   4   5
ENDBRANCH   3   4
ENDBRANCH   2   3
ENDBRANCH   1   2
BRANCH   1  15
HETATM   15  C11 UNL     1      19.591  35.688  58.878  1.00  0.00     0.002 C 
BRANCH  15  16
HETATM   16  C12 UNL     1      19.398  36.470  57.605  1.00  0.00     0.034 C 
BRANCH  16  17
HETATM   17  C13 UNL     1      18.293  35.865  56.763  1.00  0.00     0.152 C 
HETATM   18  O3  UNL     1      18.831  34.836  56.036  1.00  0.00    -0.381 OA
HETATM   19  C14 UNL     1      17.986  34.246  55.134  1.00  0.00     0.202 C 
HETATM   20  C15 UNL     1      17.318  35.227  54.199  1.00  0.00     0.173 C 
HETATM   21  C16 UNL     1      16.692  36.361  54.999  1.00  0.00     0.180 C 
HETATM   22  C17 UNL     1      17.803  36.961  55.836  1.00  0.00     0.178 C 
BRANCH  20  23
HETATM   23  O4  UNL     1      18.252  35.803  53.344  1.00  0.00    -0.391 OA
ATOM     24  H4  UNL     1      19.029  35.261  53.281  1.00  0.00     0.210 HD
ENDBRANCH  20  23
BRANCH  21  25
HETATM   25  O5  UNL     1      16.154  37.291  54.113  1.00  0.00    -0.390 OA
ATOM     26  H5  UNL     1      16.858  37.668  53.599  1.00  0.00     0.210 HD
ENDBRANCH  21  25
BRANCH  22  27
HETATM   27  O6  UNL     1      17.355  38.067  56.550  1.00  0.00    -0.390 OA
ATOM     28  H6  UNL     1      17.690  38.876  56.182  1.00  0.00     0.210 HD
ENDBRANCH  22  27
ENDBRANCH  16  17
ENDBRANCH  15  16
ENDBRANCH   1  15
TORSDOF 13
ENDMDL
MODEL 5
REMARK VINA RESULT: -7.775277666      1.529      8.580
REMARK  13 active torsions:
REMARK  status: ('A' for Active; 'I' for Inactive)
REMARK    1  A    between atoms: C2_2  and  O1_3 
REMARK    2  A    between atoms: C2_2  and  C3_5 
REMARK    3  A    between atoms: C5_8  and  C6_9 
REMARK    4  A    between atoms: C6_9  and  C7_10 
REMARK    5  A    between atoms: C7_10  and  C8_11 
REMARK    6  A    between atoms: C8_11  and  C9_12 
REMARK    7  A    between atoms: C9_12  and  C10_13 
REMARK    8  A    between atoms: C10_13  and  C11_14 
REMARK    9  A    between atoms: C11_14  and  C12_15 
REMARK   10  A    between atoms: C12_15  and  C13_16 
REMARK   11  A    between atoms: C15_19  and  O4_20 
REMARK   12  A    between atoms: C16_22  and  O5_23 
REMARK   13  A    between atoms: C17_25  and  O6_26 
ROOT
HETATM    1  C10 UNL     1      13.739  37.546  61.634  1.00  0.00     0.000 C 
ENDROOT
BRANCH   1   2
HETATM    2  C9  UNL     1      14.929  38.194  62.290  1.00  0.00     0.000 C 
BRANCH   2   3
HETATM    3  C8  UNL     1      16.085  37.245  62.458  1.00  0.00     0.000 C 
BRANCH   3   4
HETATM    4  C7  UNL     1      16.216  36.277  61.326  1.00  0.00     0.005 C 
BRANCH   4   5
HETATM    5  C6  UNL     1      17.560  36.370  60.658  1.00  0.00     0.061 C 
BRANCH   5   6
HETATM    6  C5  UNL     1      17.484  36.939  59.273  1.00  0.00     0.260 C 
HETATM    7  O2  UNL     1      18.741  36.876  58.683  1.00  0.00    -0.359 OA
HETATM    8  C4  UNL     1      18.802  35.628  58.082  1.00  0.00     0.205 C 
HETATM    9  C3  UNL     1      17.419  35.073  58.163  1.00  0.00     0.176 C 
HETATM   10  O7  UNL     1      16.626  36.167  58.483  1.00  0.00    -0.351 OA
BRANCH   9  11
HETATM   11  C2  UNL     1      16.984  34.431  56.859  1.00  0.00     0.145 C 
HETATM   12  C1  UNL     1      16.583  35.471  55.844  1.00  0.00     0.042 C 
BRANCH  11  13
HETATM   13  O1  UNL     1      15.967  33.527  57.116  1.00  0.00    -0.393 OA
ATOM     14  H1  UNL     1      16.078  32.714  56.638  1.00  0.00     0.210 HD
ENDBRANCH  11  13
ENDBRANCH   9  11
ENDBRANCH   5   6
ENDBRANCH   4   5
ENDBRANCH   3   4
ENDBRANCH   2   3
ENDBRANCH   1   2
BRANCH   1  15
HETATM   15  C11 UNL     1      12.666  37.197  62.617  1.00  0.00     0.002 C 
BRANCH  15  16
HETATM   16  C12 UNL     1      11.333  37.021  61.940  1.00  0.00     0.034 C 
BRANCH  16  17
HETATM   17  C13 UNL     1      10.310  37.988  62.503  1.00  0.00     0.152 C 
HETATM   18  O3  UNL     1       9.207  37.266  62.877  1.00  0.00    -0.381 OA
HETATM   19  C14 UNL     1       8.138  38.004  63.309  1.00  0.00     0.202 C 
HETATM   20  C15 UNL     1       7.724  39.091  62.345  1.00  0.00     0.173 C 
HETATM   21  C16 UNL     1       8.938  39.918  61.944  1.00  0.00     0.180 C 
HETATM   22  C17 UNL     1       9.953  38.945  61.381  1.00  0.00     0.178 C 
BRANCH  20  23
HETATM   23  O4  UNL     1       7.207  38.541  61.177  1.00  0.00    -0.391 OA
ATOM     24  H4  UNL     1       7.638  38.906  60.415  1.00  0.00     0.210 HD
ENDBRANCH  20  23
BRANCH  21  25
HETATM   25  O5  UNL     1       8.546  40.860  60.997  1.00  0.00    -0.390 OA
ATOM     26  H5  UNL     1       9.029  40.706  60.194  1.00  0.00     0.210 HD
ENDBRANCH  21  25
BRANCH  22  27
HETATM   27  O6  UNL     1      11.079  39.610  60.905  1.00  0.00    -0.390 OA
ATOM     28  H6  UNL     1      11.451  39.164  60.154  1.00  0.00     0.210 HD
ENDBRANCH  22  27
ENDBRANCH  16  17
ENDBRANCH  15  16
ENDBRANCH   1  15
TORSDOF 13
ENDMDL
