MODEL 1
REMARK VINA RESULT: -8.454282452      0.000      0.000
REMARK  13 active torsions:
REMARK  status: ('A' for Active; 'I' for Inactive)
REMARK    1  A    between atoms: O1_1  and  C1_3 
REMARK    2  A    between atoms: C1_3  and  C2_4 
REMARK    3  A    between atoms: C3_6  and  O3_7 
REMARK    4  A    between atoms: O3_7  and  C4_8 
REMARK    5  A    between atoms: C4_8  and  O4_9 
REMARK    6  A    between atoms: O4_9  and  C5_10 
REMARK    7  A    between atoms: C5_10  and  O5_11 
REMARK    8  A    between atoms: O5_11  and  C6_12 
REMARK    9  A    between atoms: C6_12  and  C7_13 
REMARK   10  A    between atoms: C7_13  and  C8_14 
REMARK   11  A    between atoms: C14_20  and  O6_21 
REMARK   12  A    between atoms: C15_23  and  O7_24 
REMARK   13  A    between atoms: C16_26  and  O8_27 
ROOT
HETATM    1  C2  UNL     1      18.411  35.560  59.579  1.00  0.00     0.179 C 
HETATM    2  O2  UNL     1      17.406  36.302  60.160  1.00  0.00    -0.348 OA
HETATM    3  C3  UNL     1      16.756  37.147  59.251  1.00  0.00     0.294 C 
HETATM    4  C14 UNL     1      17.676  38.047  58.524  1.00  0.00     0.204 C 
HETATM    5  C15 UNL     1      19.070  37.571  58.321  1.00  0.00     0.183 C 
HETATM    6  C16 UNL     1      19.546  36.498  59.236  1.00  0.00     0.180 C 
ENDROOT
BRANCH   3   7
HETATM    7  O3  UNL     1      15.786  37.832  59.980  1.00  0.00    -0.334 OA
BRANCH   7   8
HETATM    8  C4  UNL     1      15.267  37.068  61.050  1.00  0.00     0.343 C 
BRANCH   8   9
HETATM    9  O4  UNL     1      14.107  37.211  61.471  1.00  0.00    -0.343 OA
BRANCH   9  10
HETATM   10  C5  UNL     1      12.901  37.456  61.665  1.00  0.00     0.340 C 
BRANCH  10  11
HETATM   11  O5  UNL     1      12.267  36.785  62.772  1.00  0.00    -0.367 OA
BRANCH  11  12
HETATM   12  C6  UNL     1      10.902  36.888  62.502  1.00  0.00     0.171 C 
BRANCH  12  13
HETATM   13  C7  UNL     1      10.582  38.087  61.655  1.00  0.00     0.031 C 
BRANCH  13  14
HETATM   14  C8  UNL     1       9.434  38.899  62.151  1.00  0.00    -0.013 C 
HETATM   15  C9  UNL     1       9.294  40.245  61.537  1.00  0.00     0.005 C 
HETATM   16  C10 UNL     1       7.879  40.786  61.614  1.00  0.00     0.000 C 
HETATM   17  C11 UNL     1       7.146  40.287  62.828  1.00  0.00     0.000 C 
HETATM   18  C12 UNL     1       7.158  38.800  63.006  1.00  0.00     0.000 C 
HETATM   19  C13 UNL     1       8.100  38.185  61.978  1.00  0.00     0.005 C 
ENDBRANCH  13  14
ENDBRANCH  12  13
ENDBRANCH  11  12
ENDBRANCH  10  11
ENDBRANCH   9  10
ENDBRANCH   8   9
ENDBRANCH   7   8
ENDBRANCH   3   7
BRANCH   4  20
HETATM   20  O6  UNL     1      17.149  38.268  57.228  1.00  0.00    -0.388 OA
ATOM     21  H6  UNL     1      17.669  37.772  56.607  1.00  0.00     0.210 HD
ENDBRANCH   4  20
BRANCH   1  22
HETATM   22  C1  UNL     1      17.982  34.778  58.363  1.00  0.00     0.198 C 
BRANCH  22  23
HETATM   23  O1  UNL     1      17.545  33.502  58.719  1.00  0.00    -0.398 OA
ATOM     24  H1  UNL     1      17.260  33.482  59.625  1.00  0.00     0.209 HD
ENDBRANCH  22  23
ENDBRANCH   1  22
BRANCH   5  25
HETATM   25  O7  UNL     1      19.953  38.668  58.480  1.00  0.00    -0.390 OA
ATOM     26  H7  UNL     1      20.192  38.993  57.620  1.00  0.00     0.210 HD
ENDBRANCH   5  25
BRANCH   6  27
HETATM   27  O8  UNL     1      20.570  35.792  58.557  1.00  0.00    -0.390 OA
ATOM     28  H8  UNL     1      21.362  36.316  58.529  1.00  0.00     0.210 HD
ENDBRANCH   6  27
TORSDOF 13
ENDMDL
MODEL 2
REMARK VINA RESULT: -8.129475645      1.326      2.477
REMARK  13 active torsions:
REMARK  status: ('A' for Active; 'I' for Inactive)
REMARK    1  A    between atoms: O1_1  and  C1_3 
REMARK    2  A    between atoms: C1_3  and  C2_4 
REMARK    3  A    between atoms: C3_6  and  O3_7 
REMARK    4  A    between atoms: O3_7  and  C4_8 
REMARK    5  A    between atoms: C4_8  and  O4_9 
REMARK    6  A    between atoms: O4_9  and  C5_10 
REMARK    7  A    between atoms: C5_10  and  O5_11 
REMARK    8  A    between atoms: O5_11  and  C6_12 
REMARK    9  A    between atoms: C6_12  and  C7_13 
REMARK   10  A    between atoms: C7_13  and  C8_14 
REMARK   11  A    between atoms: C14_20  and  O6_21 
REMARK   12  A    between atoms: C15_23  and  O7_24 
REMARK   13  A    between atoms: C16_26  and  O8_27 
ROOT
HETATM    1  C2  UNL     1      17.874  36.605  56.699  1.00  0.00     0.179 C 
HETATM    2  O2  UNL     1      17.047  37.321  57.536  1.00  0.00    -0.348 OA
HETATM    3  C3  UNL     1      17.512  37.363  58.858  1.00  0.00     0.294 C 
HETATM    4  C14 UNL     1      17.761  36.026  59.436  1.00  0.00     0.204 C 
HETATM    5  C15 UNL     1      18.126  34.937  58.492  1.00  0.00     0.183 C 
HETATM    6  C16 UNL     1      17.757  35.142  57.065  1.00  0.00     0.180 C 
ENDROOT
BRANCH   3   7
HETATM    7  O3  UNL     1      16.575  38.103  59.577  1.00  0.00    -0.334 OA
BRANCH   7   8
HETATM    8  C4  UNL     1      15.696  37.290  60.326  1.00  0.00     0.343 C 
BRANCH   8   9
HETATM    9  O4  UNL     1      14.637  37.723  60.813  1.00  0.00    -0.343 OA
BRANCH   9  10
HETATM   10  C5  UNL     1      13.580  37.941  61.436  1.00  0.00     0.340 C 
BRANCH  10  11
HETATM   11  O5  UNL     1      12.575  36.908  61.397  1.00  0.00    -0.367 OA
BRANCH  11  12
HETATM   12  C6  UNL     1      11.741  37.198  62.477  1.00  0.00     0.171 C 
BRANCH  12  13
HETATM   13  C7  UNL     1      10.289  37.025  62.133  1.00  0.00     0.031 C 
BRANCH  13  14
HETATM   14  C8  UNL     1       9.465  38.254  62.317  1.00  0.00    -0.013 C 
HETATM   15  C9  UNL     1       9.939  39.455  61.580  1.00  0.00     0.005 C 
HETATM   16  C10 UNL     1       8.836  40.464  61.323  1.00  0.00     0.000 C 
HETATM   17  C11 UNL     1       7.786  40.444  62.399  1.00  0.00     0.000 C 
HETATM   18  C12 UNL     1       7.213  39.093  62.695  1.00  0.00     0.000 C 
HETATM   19  C13 UNL     1       8.007  38.038  61.934  1.00  0.00     0.005 C 
ENDBRANCH  13  14
ENDBRANCH  12  13
ENDBRANCH  11  12
ENDBRANCH  10  11
ENDBRANCH   9  10
ENDBRANCH   8   9
ENDBRANCH   7   8
ENDBRANCH   3   7
BRANCH   4  20
HETATM   20  O6  UNL     1      18.843  36.131  60.345  1.00  0.00    -0.388 OA
ATOM     21  H6  UNL     1      19.157  35.254  60.535  1.00  0.00     0.210 HD
ENDBRANCH   4  20
BRANCH   1  22
HETATM   22  C1  UNL     1      19.316  37.046  56.725  1.00  0.00     0.198 C 
BRANCH  22  23
HETATM   23  O1  UNL     1      19.930  36.817  55.494  1.00  0.00    -0.398 OA
ATOM     24  H1  UNL     1      20.698  37.366  55.390  1.00  0.00     0.209 HD
ENDBRANCH  22  23
ENDBRANCH   1  22
BRANCH   5  25
HETATM   25  O7  UNL     1      17.493  33.740  58.911  1.00  0.00    -0.390 OA
ATOM     26  H7  UNL     1      18.109  33.023  58.825  1.00  0.00     0.210 HD
ENDBRANCH   5  25
BRANCH   6  27
HETATM   27  O8  UNL     1      18.657  34.375  56.285  1.00  0.00    -0.390 OA
ATOM     28  H8  UNL     1      19.436  34.176  56.790  1.00  0.00     0.210 HD
ENDBRANCH   6  27
TORSDOF 13
ENDMDL
MODEL 3
REMARK VINA RESULT: -8.077140497      1.057      1.111
REMARK  13 active torsions:
REMARK  status: ('A' for Active; 'I' for Inactive)
REMARK    1  A    between atoms: O1_1  and  C1_3 
REMARK    2  A    between atoms: C1_3  and  C2_4 
REMARK    3  A    between atoms: C3_6  and  O3_7 
REMARK    4  A    between atoms: O3_7  and  C4_8 
REMARK    5  A    between atoms: C4_8  and  O4_9 
REMARK    6  A    between atoms: O4_9  and  C5_10 
REMARK    7  A    between atoms: C5_10  and  O5_11 
REMARK    8  A    between atoms: O5_11  and  C6_12 
REMARK    9  A    between atoms: C6_12  and  C7_13 
REMARK   10  A    between atoms: C7_13  and  C8_14 
REMARK   11  A    between atoms: C14_20  and  O6_21 
REMARK   12  A    between atoms: C15_23  and  O7_24 
REMARK   13  A    between atoms: C16_26  and  O8_27 
ROOT
HETATM    1  C2  UNL     1      17.911  35.076  58.132  1.00  0.00     0.179 C 
HETATM    2  O2  UNL     1      17.566  35.701  59.310  1.00  0.00    -0.348 OA
HETATM    3  C3  UNL     1      16.927  36.933  59.108  1.00  0.00     0.294 C 
HETATM    4  C14 UNL     1      17.704  37.865  58.264  1.00  0.00     0.204 C 
HETATM    5  C15 UNL     1      18.626  37.265  57.263  1.00  0.00     0.183 C 
HETATM    6  C16 UNL     1      19.042  35.857  57.502  1.00  0.00     0.180 C 
ENDROOT
BRANCH   3   7
HETATM    7  O3  UNL     1      16.654  37.442  60.376  1.00  0.00    -0.334 OA
BRANCH   7   8
HETATM    8  C4  UNL     1      15.673  36.696  61.065  1.00  0.00     0.343 C 
BRANCH   8   9
HETATM    9  O4  UNL     1      14.526  37.129  61.268  1.00  0.00    -0.343 OA
BRANCH   9  10
HETATM   10  C5  UNL     1      13.487  37.790  61.455  1.00  0.00     0.340 C 
BRANCH  10  11
HETATM   11  O5  UNL     1      12.769  37.547  62.682  1.00  0.00    -0.367 OA
BRANCH  11  12
HETATM   12  C6  UNL     1      11.458  37.308  62.272  1.00  0.00     0.171 C 
BRANCH  12  13
HETATM   13  C7  UNL     1      10.889  38.461  61.495  1.00  0.00     0.031 C 
BRANCH  13  14
HETATM   14  C8  UNL     1       9.636  39.030  62.070  1.00  0.00    -0.013 C 
HETATM   15  C9  UNL     1       9.207  40.332  61.497  1.00  0.00     0.005 C 
HETATM   16  C10 UNL     1       7.721  40.590  61.662  1.00  0.00     0.000 C 
HETATM   17  C11 UNL     1       7.166  39.943  62.900  1.00  0.00     0.000 C 
HETATM   18  C12 UNL     1       7.473  38.484  63.040  1.00  0.00     0.000 C 
HETATM   19  C13 UNL     1       8.456  38.075  61.950  1.00  0.00     0.005 C 
ENDBRANCH  13  14
ENDBRANCH  12  13
ENDBRANCH  11  12
ENDBRANCH  10  11
ENDBRANCH   9  10
ENDBRANCH   8   9
ENDBRANCH   7   8
ENDBRANCH   3   7
BRANCH   4  20
HETATM   20  O6  UNL     1      16.792  38.659  57.525  1.00  0.00    -0.388 OA
ATOM     21  H6  UNL     1      16.812  38.370  56.620  1.00  0.00     0.210 HD
ENDBRANCH   4  20
BRANCH   1  22
HETATM   22  C1  UNL     1      16.770  34.913  57.158  1.00  0.00     0.198 C 
BRANCH  22  23
HETATM   23  O1  UNL     1      16.051  33.748  57.423  1.00  0.00    -0.398 OA
ATOM     24  H1  UNL     1      16.311  33.371  58.255  1.00  0.00     0.209 HD
ENDBRANCH  22  23
ENDBRANCH   1  22
BRANCH   5  25
HETATM   25  O7  UNL     1      19.811  38.041  57.214  1.00  0.00    -0.390 OA
ATOM     26  H7  UNL     1      20.555  37.456  57.129  1.00  0.00     0.210 HD
ENDBRANCH   5  25
BRANCH   6  27
HETATM   27  O8  UNL     1      19.374  35.298  56.243  1.00  0.00    -0.390 OA
ATOM     28  H8  UNL     1      18.757  35.594  55.584  1.00  0.00     0.210 HD
ENDBRANCH   6  27
TORSDOF 13
ENDMDL
MODEL 4
REMARK VINA RESULT: -8.062614922      1.406      2.008
REMARK  13 active torsions:
REMARK  status: ('A' for Active; 'I' for Inactive)
REMARK    1  A    between atoms: O1_1  and  C1_3 
REMARK    2  A    between atoms: C1_3  and  C2_4 
REMARK    3  A    between atoms: C3_6  and  O3_7 
REMARK    4  A    between atoms: O3_7  and  C4_8 
REMARK    5  A    between atoms: C4_8  and  O4_9 
REMARK    6  A    between atoms: O4_9  and  C5_10 
REMARK    7  A    between atoms: C5_10  and  O5_11 
REMARK    8  A    between atoms: O5_11  and  C6_12 
REMARK    9  A    between atoms: C6_12  and  C7_13 
REMARK   10  A    between atoms: C7_13  and  C8_14 
REMARK   11  A    between atoms: C14_20  and  O6_21 
REMARK   12  A    between atoms: C15_23  and  O7_24 
REMARK   13  A    between atoms: C16_26  and  O8_27 
ROOT
HETATM    1  C2  UNL     1      19.873  37.358  58.856  1.00  0.00     0.179 C 
HETATM    2  O2  UNL     1      18.625  37.101  59.378  1.00  0.00    -0.348 OA
HETATM    3  C3  UNL     1      17.621  37.067  58.400  1.00  0.00     0.294 C 
HETATM    4  C14 UNL     1      17.567  38.290  57.572  1.00  0.00     0.204 C 
HETATM    5  C15 UNL     1      18.836  39.045  57.394  1.00  0.00     0.183 C 
HETATM    6  C16 UNL     1      19.902  38.800  58.402  1.00  0.00     0.180 C 
ENDROOT
BRANCH   3   7
HETATM    7  O3  UNL     1      16.428  36.812  59.074  1.00  0.00    -0.334 OA
BRANCH   7   8
HETATM    8  C4  UNL     1      16.408  37.361  60.376  1.00  0.00     0.343 C 
BRANCH   8   9
HETATM    9  O4  UNL     1      15.376  37.824  60.889  1.00  0.00    -0.343 OA
BRANCH   9  10
HETATM   10  C5  UNL     1      14.221  38.137  61.238  1.00  0.00     0.340 C 
BRANCH  10  11
HETATM   11  O5  UNL     1      13.212  37.110  61.150  1.00  0.00    -0.367 OA
BRANCH  11  12
HETATM   12  C6  UNL     1      12.438  37.290  62.297  1.00  0.00     0.171 C 
BRANCH  12  13
HETATM   13  C7  UNL     1      11.005  36.891  62.079  1.00  0.00     0.031 C 
BRANCH  13  14
HETATM   14  C8  UNL     1      10.026  38.001  62.258  1.00  0.00    -0.013 C 
HETATM   15  C9  UNL     1      10.345  39.255  61.527  1.00  0.00     0.005 C 
HETATM   16  C10 UNL     1       9.121  40.112  61.263  1.00  0.00     0.000 C 
HETATM   17  C11 UNL     1       8.074  39.952  62.329  1.00  0.00     0.000 C 
HETATM   18  C12 UNL     1       7.680  38.537  62.618  1.00  0.00     0.000 C 
HETATM   19  C13 UNL     1       8.612  37.597  61.863  1.00  0.00     0.005 C 
ENDBRANCH  13  14
ENDBRANCH  12  13
ENDBRANCH  11  12
ENDBRANCH  10  11
ENDBRANCH   9  10
ENDBRANCH   8   9
ENDBRANCH   7   8
ENDBRANCH   3   7
BRANCH   4  20
HETATM   20  O6  UNL     1      17.145  37.926  56.270  1.00  0.00    -0.388 OA
ATOM     21  H6  UNL     1      17.883  37.531  55.818  1.00  0.00     0.210 HD
ENDBRANCH   4  20
BRANCH   1  22
HETATM   22  C1  UNL     1      20.278  36.438  57.731  1.00  0.00     0.198 C 
BRANCH  22  23
HETATM   23  O1  UNL     1      21.638  36.137  57.799  1.00  0.00    -0.398 OA
ATOM     24  H1  UNL     1      22.037  36.173  56.937  1.00  0.00     0.209 HD
ENDBRANCH  22  23
ENDBRANCH   1  22
BRANCH   5  25
HETATM   25  O7  UNL     1      18.549  40.432  57.427  1.00  0.00    -0.390 OA
ATOM     26  H7  UNL     1      18.543  40.763  56.537  1.00  0.00     0.210 HD
ENDBRANCH   5  25
BRANCH   6  27
HETATM   27  O8  UNL     1      21.142  39.087  57.780  1.00  0.00    -0.390 OA
ATOM     28  H8  UNL     1      21.772  38.405  57.983  1.00  0.00     0.210 HD
ENDBRANCH   6  27
TORSDOF 13
ENDMDL
MODEL 5
REMARK VINA RESULT: -8.025377376      0.528      1.135
REMARK  13 active torsions:
REMARK  status: ('A' for Active; 'I' for Inactive)
REMARK    1  A    between atoms: O1_1  and  C1_3 
REMARK    2  A    between atoms: C1_3  and  C2_4 
REMARK    3  A    between atoms: C3_6  and  O3_7 
REMARK    4  A    between atoms: O3_7  and  C4_8 
REMARK    5  A    between atoms: C4_8  and  O4_9 
REMARK    6  A    between atoms: O4_9  and  C5_10 
REMARK    7  A    between atoms: C5_10  and  O5_11 
REMARK    8  A    between atoms: O5_11  and  C6_12 
REMARK    9  A    between atoms: C6_12  and  C7_13 
REMARK   10  A    between atoms: C7_13  and  C8_14 
REMARK   11  A    between atoms: C14_20  and  O6_21 
REMARK   12  A    between atoms: C15_23  and  O7_24 
REMARK   13  A    between atoms: C16_26  and  O8_27 
ROOT
HETATM    1  C2  UNL     1      18.373  35.696  59.519  1.00  0.00     0.179 C 
HETATM    2  O2  UNL     1      17.385  36.463  60.099  1.00  0.00    -0.348 OA
HETATM    3  C3  UNL     1      16.749  37.315  59.185  1.00  0.00     0.294 C 
HETATM    4  C14 UNL     1      17.685  38.191  58.449  1.00  0.00     0.204 C 
HETATM    5  C15 UNL     1      19.068  37.684  58.245  1.00  0.00     0.183 C 
HETATM    6  C16 UNL     1      19.525  36.608  59.166  1.00  0.00     0.180 C 
ENDROOT
BRANCH   3   7
HETATM    7  O3  UNL     1      15.796  38.025  59.913  1.00  0.00    -0.334 OA
BRANCH   7   8
HETATM    8  C4  UNL     1      15.230  37.264  60.959  1.00  0.00     0.343 C 
BRANCH   8   9
HETATM    9  O4  UNL     1      14.056  37.417  61.337  1.00  0.00    -0.343 OA
BRANCH   9  10
HETATM   10  C5  UNL     1      12.937  37.818  61.710  1.00  0.00     0.340 C 
BRANCH  10  11
HETATM   11  O5  UNL     1      11.860  36.859  61.690  1.00  0.00    -0.367 OA
BRANCH  11  12
HETATM   12  C6  UNL     1      10.831  37.482  62.397  1.00  0.00     0.171 C 
BRANCH  12  13
HETATM   13  C7  UNL     1       9.487  37.241  61.771  1.00  0.00     0.031 C 
BRANCH  13  14
HETATM   14  C8  UNL     1       8.548  38.395  61.870  1.00  0.00    -0.013 C 
HETATM   15  C9  UNL     1       7.563  38.320  62.980  1.00  0.00     0.005 C 
HETATM   16  C10 UNL     1       7.041  39.682  63.400  1.00  0.00     0.000 C 
HETATM   17  C11 UNL     1       7.012  40.657  62.257  1.00  0.00     0.000 C 
HETATM   18  C12 UNL     1       8.302  40.788  61.508  1.00  0.00     0.000 C 
HETATM   19  C13 UNL     1       9.276  39.726  62.004  1.00  0.00     0.005 C 
ENDBRANCH  13  14
ENDBRANCH  12  13
ENDBRANCH  11  12
ENDBRANCH  10  11
ENDBRANCH   9  10
ENDBRANCH   8   9
ENDBRANCH   7   8
ENDBRANCH   3   7
BRANCH   4  20
HETATM   20  O6  UNL     1      17.158  38.413  57.153  1.00  0.00    -0.388 OA
ATOM     21  H6  UNL     1      16.538  37.719  56.961  1.00  0.00     0.210 HD
ENDBRANCH   4  20
BRANCH   1  22
HETATM   22  C1  UNL     1      17.923  34.914  58.310  1.00  0.00     0.198 C 
BRANCH  22  23
HETATM   23  O1  UNL     1      17.570  33.612  58.662  1.00  0.00    -0.398 OA
ATOM     24  H1  UNL     1      17.272  33.124  57.903  1.00  0.00     0.209 HD
ENDBRANCH  22  23
ENDBRANCH   1  22
BRANCH   5  25
HETATM   25  O7  UNL     1      19.975  38.763  58.392  1.00  0.00    -0.390 OA
ATOM     26  H7  UNL     1      20.437  38.887  57.572  1.00  0.00     0.210 HD
ENDBRANCH   5  25
BRANCH   6  27
HETATM   27  O8  UNL     1      20.532  35.876  58.489  1.00  0.00    -0.390 OA
ATOM     28  H8  UNL     1      21.349  35.927  58.970  1.00  0.00     0.210 HD
ENDBRANCH   6  27
TORSDOF 13
ENDMDL
