MODEL 1
REMARK VINA RESULT: -7.570848710      0.000      0.000
REMARK  11 active torsions:
REMARK  status: ('A' for Active; 'I' for Inactive)
REMARK    1  A    between atoms: C2_2  and  O1_3 
REMARK    2  A    between atoms: O1_3  and  C3_4 
REMARK    3  A    between atoms: C3_4  and  C4_5 
REMARK    4  A    between atoms: C4_5  and  C5_6 
REMARK    5  A    between atoms: C5_6  and  N1_7 
REMARK    6  A    between atoms: N1_7  and  C6_9 
REMARK    7  A    between atoms: C7_12  and  O2_13 
REMARK    8  A    between atoms: O2_13  and  C8_14 
REMARK    9  A    between atoms: C8_14  and  C9_15 
REMARK   10  A    between atoms: C13_19  and  O3_20 
REMARK   11  A    between atoms: C15_27  and  N5_28 
ROOT
HETATM    1  C6  UNL     1      14.910  39.475  60.439  1.00  0.00     0.695 A 
HETATM    2  N2  UNL     1      15.697  38.663  59.676  1.00  0.00    -0.154 N 
ATOM      3  H2  UNL     1      15.669  37.658  59.842  1.00  0.00     0.188 HD
HETATM    4  C7  UNL     1      16.523  39.146  58.698  1.00  0.00     0.252 A 
HETATM    5  N4  UNL     1      16.507  40.496  58.533  1.00  0.00    -0.154 N 
ATOM      6  H4  UNL     1      17.101  40.915  57.818  1.00  0.00     0.188 HD
HETATM    7  C15 UNL     1      15.736  41.285  59.282  1.00  0.00     0.693 A 
HETATM    8  N6  UNL     1      14.925  40.800  60.245  1.00  0.00    -0.022 N 
ATOM      9  H6  UNL     1      14.343  41.422  60.805  1.00  0.00     0.203 HD
ENDROOT
BRANCH   4  10
HETATM   10  O2  UNL     1      17.240  38.287  58.018  1.00  0.00    -0.319 OA
BRANCH  10  11
HETATM   11  C8  UNL     1      18.326  37.723  57.565  1.00  0.00     0.217 C 
BRANCH  11  12
HETATM   12  C9  UNL     1      18.478  36.253  57.929  1.00  0.00     0.147 C 
HETATM   13  C10 UNL     1      18.035  35.415  56.763  1.00  0.00     0.049 C 
HETATM   14  C11 UNL     1      17.714  35.981  59.202  1.00  0.00     0.045 C 
HETATM   15  C12 UNL     1      18.826  36.210  60.236  1.00  0.00     0.064 C 
HETATM   16  C13 UNL     1      19.961  35.496  59.572  1.00  0.00     0.321 C 
HETATM   17  N3  UNL     1      19.887  35.961  58.207  1.00  0.00    -0.038 N 
ATOM     18  H32 UNL     1      20.301  35.309  57.539  1.00  0.00     0.281 HD
ATOM     19  H31 UNL     1      20.505  36.750  58.019  1.00  0.00     0.281 HD
BRANCH  16  20
HETATM   20  O3  UNL     1      21.204  35.875  60.069  1.00  0.00    -0.364 OA
HETATM   21  C14 UNL     1      21.421  37.250  59.953  1.00  0.00     0.204 C 
ENDBRANCH  16  20
ENDBRANCH  11  12
ENDBRANCH  10  11
ENDBRANCH   4  10
BRANCH   1  22
HETATM   22  N1  UNL     1      14.185  38.912  61.316  1.00  0.00    -0.225 N 
ATOM     23  H1  UNL     1      13.844  39.481  62.091  1.00  0.00     0.177 HD
BRANCH  22  24
HETATM   24  C5  UNL     1      13.819  37.535  61.285  1.00  0.00     0.140 C 
BRANCH  24  25
HETATM   25  C4  UNL     1      12.807  37.327  62.419  1.00  0.00     0.046 C 
BRANCH  25  26
HETATM   26  C3  UNL     1      11.438  37.597  61.902  1.00  0.00     0.169 C 
BRANCH  26  27
HETATM   27  O1  UNL     1      11.303  38.903  61.528  1.00  0.00    -0.391 OA
BRANCH  27  28
HETATM   28  C2  UNL     1      10.020  39.363  61.446  1.00  0.00     0.163 C 
HETATM   29  C1  UNL     1       9.040  38.466  62.187  1.00  0.00     0.033 C 
ENDBRANCH  27  28
ENDBRANCH  26  27
ENDBRANCH  25  26
ENDBRANCH  24  25
ENDBRANCH  22  24
ENDBRANCH   1  22
BRANCH   7  30
HETATM   30  N5  UNL     1      15.721  42.582  59.125  1.00  0.00    -0.234 N 
ATOM     31  H52 UNL     1      16.024  42.922  58.212  1.00  0.00     0.174 HD
ATOM     32  H51 UNL     1      15.425  43.210  59.872  1.00  0.00     0.174 HD
ENDBRANCH   7  30
TORSDOF 11
ENDMDL
MODEL 2
REMARK VINA RESULT: -7.552605427      1.730      2.777
REMARK  11 active torsions:
REMARK  status: ('A' for Active; 'I' for Inactive)
REMARK    1  A    between atoms: C2_2  and  O1_3 
REMARK    2  A    between atoms: O1_3  and  C3_4 
REMARK    3  A    between atoms: C3_4  and  C4_5 
REMARK    4  A    between atoms: C4_5  and  C5_6 
REMARK    5  A    between atoms: C5_6  and  N1_7 
REMARK    6  A    between atoms: N1_7  and  C6_9 
REMARK    7  A    between atoms: C7_12  and  O2_13 
REMARK    8  A    between atoms: O2_13  and  C8_14 
REMARK    9  A    between atoms: C8_14  and  C9_15 
REMARK   10  A    between atoms: C13_19  and  O3_20 
REMARK   11  A    between atoms: C15_27  and  N5_28 
ROOT
HETATM    1  C6  UNL     1      13.513  37.977  61.575  1.00  0.00     0.695 A 
HETATM    2  N2  UNL     1      14.501  37.052  61.401  1.00  0.00    -0.154 N 
ATOM      3  H2  UNL     1      14.410  36.146  61.860  1.00  0.00     0.188 HD
HETATM    4  C7  UNL     1      15.608  37.292  60.634  1.00  0.00     0.252 A 
HETATM    5  N4  UNL     1      15.661  38.521  60.053  1.00  0.00    -0.154 N 
ATOM      6  H4  UNL     1      16.463  38.758  59.469  1.00  0.00     0.188 HD
HETATM    7  C15 UNL     1      14.695  39.421  60.226  1.00  0.00     0.693 A 
HETATM    8  N6  UNL     1      13.606  39.176  60.984  1.00  0.00    -0.022 N 
ATOM      9  H6  UNL     1      12.877  39.880  61.103  1.00  0.00     0.203 HD
ENDROOT
BRANCH   4  10
HETATM   10  O2  UNL     1      16.501  36.341  60.527  1.00  0.00    -0.319 OA
BRANCH  10  11
HETATM   11  C8  UNL     1      17.680  35.818  60.329  1.00  0.00     0.217 C 
BRANCH  11  12
HETATM   12  C9  UNL     1      18.116  35.764  58.872  1.00  0.00     0.147 C 
HETATM   13  C10 UNL     1      18.002  34.348  58.383  1.00  0.00     0.049 C 
HETATM   14  C11 UNL     1      19.506  36.342  58.754  1.00  0.00     0.045 C 
HETATM   15  C12 UNL     1      19.163  37.808  58.453  1.00  0.00     0.064 C 
HETATM   16  C13 UNL     1      18.061  37.627  57.458  1.00  0.00     0.321 C 
HETATM   17  N3  UNL     1      17.233  36.612  58.065  1.00  0.00    -0.038 N 
ATOM     18  H32 UNL     1      16.682  36.085  57.386  1.00  0.00     0.281 HD
ATOM     19  H31 UNL     1      16.451  36.996  58.595  1.00  0.00     0.281 HD
BRANCH  16  20
HETATM   20  O3  UNL     1      17.272  38.765  57.309  1.00  0.00    -0.364 OA
HETATM   21  C14 UNL     1      17.859  39.892  57.887  1.00  0.00     0.204 C 
ENDBRANCH  16  20
ENDBRANCH  11  12
ENDBRANCH  10  11
ENDBRANCH   4  10
BRANCH   1  22
HETATM   22  N1  UNL     1      12.534  37.640  62.308  1.00  0.00    -0.225 N 
ATOM     23  H1  UNL     1      12.438  38.094  63.217  1.00  0.00     0.177 HD
BRANCH  22  24
HETATM   24  C5  UNL     1      11.560  36.666  61.941  1.00  0.00     0.140 C 
BRANCH  24  25
HETATM   25  C4  UNL     1      10.273  37.034  62.689  1.00  0.00     0.046 C 
BRANCH  25  26
HETATM   26  C3  UNL     1       9.424  37.881  61.807  1.00  0.00     0.169 C 
BRANCH  26  27
HETATM   27  O1  UNL     1       9.890  39.163  61.762  1.00  0.00    -0.391 OA
BRANCH  27  28
HETATM   28  C2  UNL     1       8.936  40.134  61.656  1.00  0.00     0.163 C 
HETATM   29  C1  UNL     1       7.636  39.736  62.337  1.00  0.00     0.033 C 
ENDBRANCH  27  28
ENDBRANCH  26  27
ENDBRANCH  25  26
ENDBRANCH  24  25
ENDBRANCH  22  24
ENDBRANCH   1  22
BRANCH   7  30
HETATM   30  N5  UNL     1      14.745  40.602  59.669  1.00  0.00    -0.234 N 
ATOM     31  H52 UNL     1      15.132  40.631  58.726  1.00  0.00     0.174 HD
ATOM     32  H51 UNL     1      14.417  41.438  60.152  1.00  0.00     0.174 HD
ENDBRANCH   7  30
TORSDOF 11
ENDMDL
MODEL 3
REMARK VINA RESULT: -7.522910145      1.513      2.557
REMARK  11 active torsions:
REMARK  status: ('A' for Active; 'I' for Inactive)
REMARK    1  A    between atoms: C2_2  and  O1_3 
REMARK    2  A    between atoms: O1_3  and  C3_4 
REMARK    3  A    between atoms: C3_4  and  C4_5 
REMARK    4  A    between atoms: C4_5  and  C5_6 
REMARK    5  A    between atoms: C5_6  and  N1_7 
REMARK    6  A    between atoms: N1_7  and  C6_9 
REMARK    7  A    between atoms: C7_12  and  O2_13 
REMARK    8  A    between atoms: O2_13  and  C8_14 
REMARK    9  A    between atoms: C8_14  and  C9_15 
REMARK   10  A    between atoms: C13_19  and  O3_20 
REMARK   11  A    between atoms: C15_27  and  N5_28 
ROOT
HETATM    1  C6  UNL     1      14.738  39.567  60.415  1.00  0.00     0.695 A 
HETATM    2  N2  UNL     1      15.620  38.733  59.791  1.00  0.00    -0.154 N 
ATOM      3  H2  UNL     1      15.577  37.735  59.992  1.00  0.00     0.188 HD
HETATM    4  C7  UNL     1      16.560  39.186  58.906  1.00  0.00     0.252 A 
HETATM    5  N4  UNL     1      16.559  40.528  58.687  1.00  0.00    -0.154 N 
ATOM      6  H4  UNL     1      17.236  40.925  58.037  1.00  0.00     0.188 HD
HETATM    7  C15 UNL     1      15.695  41.338  59.299  1.00  0.00     0.693 A 
HETATM    8  N6  UNL     1      14.771  40.883  60.170  1.00  0.00    -0.022 N 
ATOM      9  H6  UNL     1      14.118  41.521  60.627  1.00  0.00     0.203 HD
ENDROOT
BRANCH   4  10
HETATM   10  O2  UNL     1      17.363  38.309  58.358  1.00  0.00    -0.319 OA
BRANCH  10  11
HETATM   11  C8  UNL     1      18.310  37.412  58.312  1.00  0.00     0.217 C 
BRANCH  11  12
HETATM   12  C9  UNL     1      17.871  36.004  58.687  1.00  0.00     0.147 C 
HETATM   13  C10 UNL     1      17.708  35.926  60.179  1.00  0.00     0.049 C 
HETATM   14  C11 UNL     1      18.866  35.015  58.128  1.00  0.00     0.045 C 
HETATM   15  C12 UNL     1      18.209  34.710  56.774  1.00  0.00     0.064 C 
HETATM   16  C13 UNL     1      16.780  34.571  57.194  1.00  0.00     0.321 C 
HETATM   17  N3  UNL     1      16.579  35.710  58.060  1.00  0.00    -0.038 N 
ATOM     18  H32 UNL     1      15.827  35.572  58.735  1.00  0.00     0.281 HD
ATOM     19  H31 UNL     1      16.175  36.513  57.578  1.00  0.00     0.281 HD
BRANCH  16  20
HETATM   20  O3  UNL     1      15.888  34.700  56.133  1.00  0.00    -0.364 OA
HETATM   21  C14 UNL     1      16.402  35.495  55.106  1.00  0.00     0.204 C 
ENDBRANCH  16  20
ENDBRANCH  11  12
ENDBRANCH  10  11
ENDBRANCH   4  10
BRANCH   1  22
HETATM   22  N1  UNL     1      13.911  39.031  61.214  1.00  0.00    -0.225 N 
ATOM     23  H1  UNL     1      13.396  39.641  61.850  1.00  0.00     0.177 HD
BRANCH  22  24
HETATM   24  C5  UNL     1      13.657  37.630  61.280  1.00  0.00     0.140 C 
BRANCH  24  25
HETATM   25  C4  UNL     1      12.690  37.417  62.452  1.00  0.00     0.046 C 
BRANCH  25  26
HETATM   26  C3  UNL     1      11.297  37.649  61.980  1.00  0.00     0.169 C 
BRANCH  26  27
HETATM   27  O1  UNL     1      11.132  38.935  61.552  1.00  0.00    -0.391 OA
BRANCH  27  28
HETATM   28  C2  UNL     1       9.843  39.381  61.510  1.00  0.00     0.163 C 
HETATM   29  C1  UNL     1       8.881  38.422  62.194  1.00  0.00     0.033 C 
ENDBRANCH  27  28
ENDBRANCH  26  27
ENDBRANCH  25  26
ENDBRANCH  24  25
ENDBRANCH  22  24
ENDBRANCH   1  22
BRANCH   7  30
HETATM   30  N5  UNL     1      15.693  42.627  59.090  1.00  0.00    -0.234 N 
ATOM     31  H52 UNL     1      15.583  43.211  59.919  1.00  0.00     0.174 HD
ATOM     32  H51 UNL     1      15.796  43.020  58.153  1.00  0.00     0.174 HD
ENDBRANCH   7  30
TORSDOF 11
ENDMDL
MODEL 4
REMARK VINA RESULT: -7.414379741      1.928      3.131
REMARK  11 active torsions:
REMARK  status: ('A' for Active; 'I' for Inactive)
REMARK    1  A    between atoms: C2_2  and  O1_3 
REMARK    2  A    between atoms: O1_3  and  C3_4 
REMARK    3  A    between atoms: C3_4  and  C4_5 
REMARK    4  A    between atoms: C4_5  and  C5_6 
REMARK    5  A    between atoms: C5_6  and  N1_7 
REMARK    6  A    between atoms: N1_7  and  C6_9 
REMARK    7  A    between atoms: C7_12  and  O2_13 
REMARK    8  A    between atoms: O2_13  and  C8_14 
REMARK    9  A    between atoms: C8_14  and  C9_15 
REMARK   10  A    between atoms: C13_19  and  O3_20 
REMARK   11  A    between atoms: C15_27  and  N5_28 
ROOT
HETATM    1  C6  UNL     1      14.971  40.016  59.906  1.00  0.00     0.695 A 
HETATM    2  N2  UNL     1      15.921  39.621  59.009  1.00  0.00    -0.154 N 
ATOM      3  H2  UNL     1      15.922  38.652  58.692  1.00  0.00     0.188 HD
HETATM    4  C7  UNL     1      16.872  40.474  58.520  1.00  0.00     0.252 A 
HETATM    5  N4  UNL     1      16.808  41.750  58.986  1.00  0.00    -0.154 N 
ATOM      6  H4  UNL     1      17.490  42.433  58.657  1.00  0.00     0.188 HD
HETATM    7  C15 UNL     1      15.879  42.131  59.862  1.00  0.00     0.693 A 
HETATM    8  N6  UNL     1      14.945  41.283  60.340  1.00  0.00    -0.022 N 
ATOM      9  H6  UNL     1      14.242  41.597  61.010  1.00  0.00     0.203 HD
ENDROOT
BRANCH   4  10
HETATM   10  O2  UNL     1      17.741  40.001  57.662  1.00  0.00    -0.319 OA
BRANCH  10  11
HETATM   11  C8  UNL     1      18.795  39.346  57.259  1.00  0.00     0.217 C 
BRANCH  11  12
HETATM   12  C9  UNL     1      18.605  37.841  57.148  1.00  0.00     0.147 C 
HETATM   13  C10 UNL     1      18.795  37.225  58.506  1.00  0.00     0.049 C 
HETATM   14  C11 UNL     1      19.545  37.304  56.096  1.00  0.00     0.045 C 
HETATM   15  C12 UNL     1      18.633  37.371  54.862  1.00  0.00     0.064 C 
HETATM   16  C13 UNL     1      17.360  36.838  55.439  1.00  0.00     0.321 C 
HETATM   17  N3  UNL     1      17.243  37.552  56.690  1.00  0.00    -0.038 N 
ATOM     18  H32 UNL     1      16.683  37.055  57.384  1.00  0.00     0.281 HD
ATOM     19  H31 UNL     1      16.657  38.384  56.622  1.00  0.00     0.281 HD
BRANCH  16  20
HETATM   20  O3  UNL     1      16.242  37.161  54.676  1.00  0.00    -0.364 OA
HETATM   21  C14 UNL     1      16.519  37.157  53.308  1.00  0.00     0.204 C 
ENDBRANCH  16  20
ENDBRANCH  11  12
ENDBRANCH  10  11
ENDBRANCH   4  10
BRANCH   1  22
HETATM   22  N1  UNL     1      14.142  39.136  60.288  1.00  0.00    -0.225 N 
ATOM     23  H1  UNL     1      13.390  38.877  59.649  1.00  0.00     0.177 HD
BRANCH  22  24
HETATM   24  C5  UNL     1      14.195  38.486  61.555  1.00  0.00     0.140 C 
BRANCH  24  25
HETATM   25  C4  UNL     1      13.221  37.303  61.480  1.00  0.00     0.046 C 
BRANCH  25  26
HETATM   26  C3  UNL     1      11.876  37.753  61.931  1.00  0.00     0.169 C 
BRANCH  26  27
HETATM   27  O1  UNL     1      11.578  38.987  61.430  1.00  0.00    -0.391 OA
BRANCH  27  28
HETATM   28  C2  UNL     1      10.252  39.311  61.412  1.00  0.00     0.163 C 
HETATM   29  C1  UNL     1       9.383  38.204  61.986  1.00  0.00     0.033 C 
ENDBRANCH  27  28
ENDBRANCH  26  27
ENDBRANCH  25  26
ENDBRANCH  24  25
ENDBRANCH  22  24
ENDBRANCH   1  22
BRANCH   7  30
HETATM   30  N5  UNL     1      15.818  43.356  60.311  1.00  0.00    -0.234 N 
ATOM     31  H52 UNL     1      16.171  43.500  61.257  1.00  0.00     0.174 HD
ATOM     32  H51 UNL     1      15.440  44.117  59.746  1.00  0.00     0.174 HD
ENDBRANCH   7  30
TORSDOF 11
ENDMDL
MODEL 5
REMARK VINA RESULT: -7.393729437      1.638      2.935
REMARK  11 active torsions:
REMARK  status: ('A' for Active; 'I' for Inactive)
REMARK    1  A    between atoms: C2_2  and  O1_3 
REMARK    2  A    between atoms: O1_3  and  C3_4 
REMARK    3  A    between atoms: C3_4  and  C4_5 
REMARK    4  A    between atoms: C4_5  and  C5_6 
REMARK    5  A    between atoms: C5_6  and  N1_7 
REMARK    6  A    between atoms: N1_7  and  C6_9 
REMARK    7  A    between atoms: C7_12  and  O2_13 
REMARK    8  A    between atoms: O2_13  and  C8_14 
REMARK    9  A    between atoms: C8_14  and  C9_15 
REMARK   10  A    between atoms: C13_19  and  O3_20 
REMARK   11  A    between atoms: C15_27  and  N5_28 
ROOT
HETATM    1  C6  UNL     1      14.833  39.295  60.544  1.00  0.00     0.695 A 
HETATM    2  N2  UNL     1      15.696  38.459  59.896  1.00  0.00    -0.154 N 
ATOM      3  H2  UNL     1      15.698  37.471  60.144  1.00  0.00     0.188 HD
HETATM    4  C7  UNL     1      16.558  38.897  58.928  1.00  0.00     0.252 A 
HETATM    5  N4  UNL     1      16.498  40.227  58.651  1.00  0.00    -0.154 N 
ATOM      6  H4  UNL     1      17.116  40.613  57.937  1.00  0.00     0.188 HD
HETATM    7  C15 UNL     1      15.654  41.039  59.286  1.00  0.00     0.693 A 
HETATM    8  N6  UNL     1      14.807  40.600  60.239  1.00  0.00    -0.022 N 
ATOM      9  H6  UNL     1      14.168  41.239  60.712  1.00  0.00     0.203 HD
ENDROOT
BRANCH   4  10
HETATM   10  O2  UNL     1      17.348  38.018  58.364  1.00  0.00    -0.319 OA
BRANCH  10  11
HETATM   11  C8  UNL     1      18.313  37.144  58.293  1.00  0.00     0.217 C 
BRANCH  11  12
HETATM   12  C9  UNL     1      18.046  35.977  57.354  1.00  0.00     0.147 C 
HETATM   13  C10 UNL     1      17.920  34.718  58.165  1.00  0.00     0.049 C 
HETATM   14  C11 UNL     1      19.138  35.926  56.312  1.00  0.00     0.045 C 
HETATM   15  C12 UNL     1      18.497  36.781  55.209  1.00  0.00     0.064 C 
HETATM   16  C13 UNL     1      17.101  36.243  55.230  1.00  0.00     0.321 C 
HETATM   17  N3  UNL     1      16.786  36.201  56.639  1.00  0.00    -0.038 N 
ATOM     18  H32 UNL     1      16.067  35.515  56.869  1.00  0.00     0.281 HD
ATOM     19  H31 UNL     1      16.284  37.028  56.962  1.00  0.00     0.281 HD
BRANCH  16  20
HETATM   20  O3  UNL     1      16.181  37.098  54.629  1.00  0.00    -0.364 OA
HETATM   21  C14 UNL     1      16.438  37.275  53.268  1.00  0.00     0.204 C 
ENDBRANCH  16  20
ENDBRANCH  11  12
ENDBRANCH  10  11
ENDBRANCH   4  10
BRANCH   1  22
HETATM   22  N1  UNL     1      14.081  38.774  61.423  1.00  0.00    -0.225 N 
ATOM     23  H1  UNL     1      13.833  39.339  62.236  1.00  0.00     0.177 HD
BRANCH  22  24
HETATM   24  C5  UNL     1      13.560  37.450  61.344  1.00  0.00     0.140 C 
BRANCH  24  25
HETATM   25  C4  UNL     1      12.570  37.301  62.506  1.00  0.00     0.046 C 
BRANCH  25  26
HETATM   26  C3  UNL     1      11.202  37.637  62.023  1.00  0.00     0.169 C 
BRANCH  26  27
HETATM   27  O1  UNL     1      11.141  38.926  61.581  1.00  0.00    -0.391 OA
BRANCH  27  28
HETATM   28  C2  UNL     1       9.887  39.458  61.485  1.00  0.00     0.163 C 
HETATM   29  C1  UNL     1       8.863  38.656  62.273  1.00  0.00     0.033 C 
ENDBRANCH  27  28
ENDBRANCH  26  27
ENDBRANCH  25  26
ENDBRANCH  24  25
ENDBRANCH  22  24
ENDBRANCH   1  22
BRANCH   7  30
HETATM   30  N5  UNL     1      15.597  42.317  59.020  1.00  0.00    -0.234 N 
ATOM     31  H52 UNL     1      14.685  42.756  59.147  1.00  0.00     0.174 HD
ATOM     32  H51 UNL     1      16.416  42.837  58.705  1.00  0.00     0.174 HD
ENDBRANCH   7  30
TORSDOF 11
ENDMDL
