MODEL 1
REMARK VINA RESULT: -8.999229628      0.000      0.000
REMARK  15 active torsions:
REMARK  status: ('A' for Active; 'I' for Inactive)
REMARK    1  A    between atoms: C2_2  and  C3_3 
REMARK    2  A    between atoms: C3_3  and  O1_4 
REMARK    3  A    between atoms: O1_4  and  C4_5 
REMARK    4  A    between atoms: C6_7  and  N1_8 
REMARK       I    between atoms: N1_8  and  C7_10 
REMARK    5  A    between atoms: C8_15  and  O2_16 
REMARK    6  A    between atoms: O2_16  and  C9_17 
REMARK    7  A    between atoms: C9_17  and  C10_19 
REMARK    8  A    between atoms: C10_19  and  C11_20 
REMARK    9  A    between atoms: C12_21  and  C13_22 
REMARK   10  A    between atoms: C13_22  and  C14_23 
REMARK   11  A    between atoms: C14_23  and  C15_24 
REMARK   12  A    between atoms: C15_24  and  C16_25 
REMARK   13  A    between atoms: C16_25  and  C17_26 
REMARK   14  A    between atoms: C17_26  and  O4_28 
REMARK   15  A    between atoms: N4_30  and  O5_32 
ROOT
HETATM    1  O2  UNL     1      16.277  37.542  59.415  1.00  0.00    -0.287 OA
ENDROOT
BRANCH   1   2
HETATM    2  C8  UNL     1      17.374  37.616  58.561  1.00  0.00     0.295 C 
HETATM    3  C6  UNL     1      17.698  36.324  57.864  1.00  0.00     0.144 C 
HETATM    4  C5  UNL     1      18.599  36.811  56.748  1.00  0.00     0.091 C 
HETATM    5  C4  UNL     1      18.051  38.201  56.509  1.00  0.00     0.265 C 
HETATM    6  O6  UNL     1      17.090  38.446  57.486  1.00  0.00    -0.329 OA
BRANCH   3   7
HETATM    7  N1  UNL     1      16.555  35.700  57.279  1.00  0.00    -0.355 N 
HETATM    8  C7  UNL     1      16.675  34.482  56.596  1.00  0.00     0.182 C 
HETATM    9  N2  UNL     1      16.960  33.435  57.291  1.00  0.00    -0.374 N 
HETATM   10  N3  UNL     1      16.500  34.342  55.189  1.00  0.00    -0.064 NA
ATOM     11  H22 UNL     1      17.085  33.535  58.298  1.00  0.00     0.158 HD
ATOM     12  H21 UNL     1      17.047  32.549  56.794  1.00  0.00     0.158 HD
ATOM     13  H1  UNL     1      15.641  36.146  57.358  1.00  0.00     0.162 HD
ENDBRANCH   3   7
BRANCH   5  14
HETATM   14  O1  UNL     1      17.429  38.176  55.270  1.00  0.00    -0.361 OA
BRANCH  14  15
HETATM   15  C3  UNL     1      18.130  37.494  54.305  1.00  0.00     0.170 C 
BRANCH  15  16
HETATM   16  C2  UNL     1      17.614  37.755  52.925  1.00  0.00     0.022 C 
HETATM   17  C1  UNL     1      16.317  36.988  52.754  1.00  0.00     0.007 C 
ENDBRANCH  15  16
ENDBRANCH  14  15
ENDBRANCH   5  14
ENDBRANCH   1   2
BRANCH   1  18
HETATM   18  C9  UNL     1      16.374  37.070  60.714  1.00  0.00     0.264 C 
HETATM   19  O3  UNL     1      17.190  36.133  60.916  1.00  0.00    -0.265 OA
BRANCH  18  20
HETATM   20  C10 UNL     1      15.561  37.634  61.828  1.00  0.00     0.138 C 
BRANCH  20  21
HETATM   21  C11 UNL     1      14.515  38.550  61.341  1.00  0.00    -0.021 C 
HETATM   22  C12 UNL     1      13.240  38.359  61.284  1.00  0.00    -0.024 C 
BRANCH  22  23
HETATM   23  C13 UNL     1      12.545  37.156  61.705  1.00  0.00     0.081 C 
BRANCH  23  24
HETATM   24  C14 UNL     1      11.080  37.318  61.949  1.00  0.00     0.013 C 
HETATM   25  N4  UNL     1      10.417  36.461  62.563  1.00  0.00    -0.277 N 
ATOM     26  H4  UNL     1       9.424  36.657  62.680  1.00  0.00     0.193 HD
BRANCH  24  27
HETATM   27  C15 UNL     1      10.513  38.604  61.432  1.00  0.00     0.057 C 
BRANCH  27  28
HETATM   28  C16 UNL     1       9.037  38.633  61.319  1.00  0.00     0.037 C 
BRANCH  28  29
HETATM   29  C17 UNL     1       8.292  39.372  62.376  1.00  0.00     0.117 C 
HETATM   30  C18 UNL     1       7.410  38.451  63.204  1.00  0.00     0.039 C 
BRANCH  29  31
HETATM   31  O4  UNL     1       7.424  40.326  61.816  1.00  0.00    -0.391 OA
HETATM   32  C19 UNL     1       8.130  41.442  61.376  1.00  0.00     0.202 C 
ENDBRANCH  29  31
ENDBRANCH  28  29
ENDBRANCH  27  28
ENDBRANCH  24  27
BRANCH  25  33
HETATM   33  O5  UNL     1      10.865  35.305  63.089  1.00  0.00    -0.290 OA
ATOM     34  H5  UNL     1      11.020  34.486  62.633  1.00  0.00     0.244 HD
ENDBRANCH  25  33
ENDBRANCH  23  24
ENDBRANCH  22  23
ENDBRANCH  20  21
ENDBRANCH  18  20
ENDBRANCH   1  18
TORSDOF 15
ENDMDL
MODEL 2
REMARK VINA RESULT: -8.845278163      0.532      1.022
REMARK  15 active torsions:
REMARK  status: ('A' for Active; 'I' for Inactive)
REMARK    1  A    between atoms: C2_2  and  C3_3 
REMARK    2  A    between atoms: C3_3  and  O1_4 
REMARK    3  A    between atoms: O1_4  and  C4_5 
REMARK    4  A    between atoms: C6_7  and  N1_8 
REMARK       I    between atoms: N1_8  and  C7_10 
REMARK    5  A    between atoms: C8_15  and  O2_16 
REMARK    6  A    between atoms: O2_16  and  C9_17 
REMARK    7  A    between atoms: C9_17  and  C10_19 
REMARK    8  A    between atoms: C10_19  and  C11_20 
REMARK    9  A    between atoms: C12_21  and  C13_22 
REMARK   10  A    between atoms: C13_22  and  C14_23 
REMARK   11  A    between atoms: C14_23  and  C15_24 
REMARK   12  A    between atoms: C15_24  and  C16_25 
REMARK   13  A    between atoms: C16_25  and  C17_26 
REMARK   14  A    between atoms: C17_26  and  O4_28 
REMARK   15  A    between atoms: N4_30  and  O5_32 
ROOT
HETATM    1  O2  UNL     1      15.988  37.443  59.431  1.00  0.00    -0.287 OA
ENDROOT
BRANCH   1   2
HETATM    2  C8  UNL     1      17.149  37.645  58.690  1.00  0.00     0.295 C 
HETATM    3  C6  UNL     1      17.683  36.402  58.034  1.00  0.00     0.144 C 
HETATM    4  C5  UNL     1      18.630  36.994  57.011  1.00  0.00     0.091 C 
HETATM    5  C4  UNL     1      17.957  38.316  56.713  1.00  0.00     0.265 C 
HETATM    6  O6  UNL     1      16.882  38.445  57.589  1.00  0.00    -0.329 OA
BRANCH   3   7
HETATM    7  N1  UNL     1      16.681  35.658  57.341  1.00  0.00    -0.355 N 
HETATM    8  C7  UNL     1      16.990  34.436  56.729  1.00  0.00     0.182 C 
HETATM    9  N2  UNL     1      17.278  33.441  57.496  1.00  0.00    -0.374 N 
HETATM   10  N3  UNL     1      17.005  34.238  55.318  1.00  0.00    -0.064 NA
ATOM     11  H22 UNL     1      17.267  33.583  58.506  1.00  0.00     0.158 HD
ATOM     12  H21 UNL     1      17.503  32.552  57.050  1.00  0.00     0.158 HD
ATOM     13  H1  UNL     1      15.728  36.020  57.291  1.00  0.00     0.162 HD
ENDBRANCH   3   7
BRANCH   5  14
HETATM   14  O1  UNL     1      17.467  38.230  55.418  1.00  0.00    -0.361 OA
BRANCH  14  15
HETATM   15  C3  UNL     1      18.360  37.702  54.516  1.00  0.00     0.170 C 
BRANCH  15  16
HETATM   16  C2  UNL     1      17.871  37.786  53.105  1.00  0.00     0.022 C 
HETATM   17  C1  UNL     1      16.493  37.155  53.045  1.00  0.00     0.007 C 
ENDBRANCH  15  16
ENDBRANCH  14  15
ENDBRANCH   5  14
ENDBRANCH   1   2
BRANCH   1  18
HETATM   18  C9  UNL     1      15.992  37.352  60.814  1.00  0.00     0.264 C 
HETATM   19  O3  UNL     1      16.751  36.485  61.320  1.00  0.00    -0.265 OA
BRANCH  18  20
HETATM   20  C10 UNL     1      15.147  38.229  61.672  1.00  0.00     0.138 C 
BRANCH  20  21
HETATM   21  C11 UNL     1      13.966  38.735  60.951  1.00  0.00    -0.021 C 
HETATM   22  C12 UNL     1      12.725  38.420  61.117  1.00  0.00    -0.024 C 
BRANCH  22  23
HETATM   23  C13 UNL     1      12.217  37.465  62.085  1.00  0.00     0.081 C 
BRANCH  23  24
HETATM   24  C14 UNL     1      10.730  37.329  62.127  1.00  0.00     0.013 C 
HETATM   25  N4  UNL     1      10.175  36.327  62.616  1.00  0.00    -0.277 N 
ATOM     26  H4  UNL     1       9.156  36.321  62.599  1.00  0.00     0.193 HD
BRANCH  24  27
HETATM   27  C15 UNL     1       9.993  38.510  61.576  1.00  0.00     0.057 C 
BRANCH  27  28
HETATM   28  C16 UNL     1       8.528  38.487  61.793  1.00  0.00     0.037 C 
BRANCH  28  29
HETATM   29  C17 UNL     1       7.790  39.762  61.576  1.00  0.00     0.117 C 
HETATM   30  C18 UNL     1       8.730  40.939  61.372  1.00  0.00     0.039 C 
BRANCH  29  31
HETATM   31  O4  UNL     1       7.005  40.093  62.694  1.00  0.00    -0.391 OA
HETATM   32  C19 UNL     1       6.948  39.032  63.593  1.00  0.00     0.202 C 
ENDBRANCH  29  31
ENDBRANCH  28  29
ENDBRANCH  27  28
ENDBRANCH  24  27
BRANCH  25  33
HETATM   33  O5  UNL     1      10.770  35.249  63.163  1.00  0.00    -0.290 OA
ATOM     34  H5  UNL     1      10.586  34.857  64.009  1.00  0.00     0.244 HD
ENDBRANCH  25  33
ENDBRANCH  23  24
ENDBRANCH  22  23
ENDBRANCH  20  21
ENDBRANCH  18  20
ENDBRANCH   1  18
TORSDOF 15
ENDMDL
MODEL 3
REMARK VINA RESULT: -8.712158098      1.822      2.799
REMARK  15 active torsions:
REMARK  status: ('A' for Active; 'I' for Inactive)
REMARK    1  A    between atoms: C2_2  and  C3_3 
REMARK    2  A    between atoms: C3_3  and  O1_4 
REMARK    3  A    between atoms: O1_4  and  C4_5 
REMARK    4  A    between atoms: C6_7  and  N1_8 
REMARK       I    between atoms: N1_8  and  C7_10 
REMARK    5  A    between atoms: C8_15  and  O2_16 
REMARK    6  A    between atoms: O2_16  and  C9_17 
REMARK    7  A    between atoms: C9_17  and  C10_19 
REMARK    8  A    between atoms: C10_19  and  C11_20 
REMARK    9  A    between atoms: C12_21  and  C13_22 
REMARK   10  A    between atoms: C13_22  and  C14_23 
REMARK   11  A    between atoms: C14_23  and  C15_24 
REMARK   12  A    between atoms: C15_24  and  C16_25 
REMARK   13  A    between atoms: C16_25  and  C17_26 
REMARK   14  A    between atoms: C17_26  and  O4_28 
REMARK   15  A    between atoms: N4_30  and  O5_32 
ROOT
HETATM    1  O2  UNL     1      16.743  36.392  57.419  1.00  0.00    -0.287 OA
ENDROOT
BRANCH   1   2
HETATM    2  C8  UNL     1      17.518  36.667  56.297  1.00  0.00     0.295 C 
HETATM    3  C6  UNL     1      17.807  35.466  55.440  1.00  0.00     0.144 C 
HETATM    4  C5  UNL     1      18.261  36.125  54.154  1.00  0.00     0.091 C 
HETATM    5  C4  UNL     1      17.473  37.415  54.188  1.00  0.00     0.265 C 
HETATM    6  O6  UNL     1      16.815  37.473  55.414  1.00  0.00    -0.329 OA
BRANCH   3   7
HETATM    7  N1  UNL     1      16.645  34.685  55.159  1.00  0.00    -0.355 N 
HETATM    8  C7  UNL     1      16.440  33.452  55.794  1.00  0.00     0.182 C 
HETATM    9  N2  UNL     1      16.192  33.467  57.059  1.00  0.00    -0.374 N 
HETATM   10  N3  UNL     1      16.490  32.197  55.122  1.00  0.00    -0.064 NA
ATOM     11  H22 UNL     1      16.156  34.366  57.540  1.00  0.00     0.158 HD
ATOM     12  H21 UNL     1      16.042  32.570  57.520  1.00  0.00     0.158 HD
ATOM     13  H1  UNL     1      15.957  35.028  54.489  1.00  0.00     0.162 HD
ENDBRANCH   3   7
BRANCH   5  14
HETATM   14  O1  UNL     1      16.525  37.330  53.179  1.00  0.00    -0.361 OA
BRANCH  14  15
HETATM   15  C3  UNL     1      16.971  36.695  52.044  1.00  0.00     0.170 C 
BRANCH  15  16
HETATM   16  C2  UNL     1      16.008  35.665  51.544  1.00  0.00     0.022 C 
HETATM   17  C1  UNL     1      15.230  36.269  50.391  1.00  0.00     0.007 C 
ENDBRANCH  15  16
ENDBRANCH  14  15
ENDBRANCH   5  14
ENDBRANCH   1   2
BRANCH   1  18
HETATM   18  C9  UNL     1      17.016  36.934  58.665  1.00  0.00     0.264 C 
HETATM   19  O3  UNL     1      17.004  38.190  58.751  1.00  0.00    -0.265 OA
BRANCH  18  20
HETATM   20  C10 UNL     1      17.312  36.086  59.854  1.00  0.00     0.138 C 
BRANCH  20  21
HETATM   21  C11 UNL     1      17.040  36.792  61.118  1.00  0.00    -0.021 C 
HETATM   22  C12 UNL     1      15.901  37.110  61.635  1.00  0.00    -0.024 C 
BRANCH  22  23
HETATM   23  C13 UNL     1      14.601  36.825  61.055  1.00  0.00     0.081 C 
BRANCH  23  24
HETATM   24  C14 UNL     1      13.553  37.862  61.297  1.00  0.00     0.013 C 
HETATM   25  N4  UNL     1      13.572  38.963  60.715  1.00  0.00    -0.277 N 
ATOM     26  H4  UNL     1      12.817  39.609  60.945  1.00  0.00     0.193 HD
BRANCH  24  27
HETATM   27  C15 UNL     1      12.481  37.437  62.252  1.00  0.00     0.057 C 
BRANCH  27  28
HETATM   28  C16 UNL     1      11.153  37.212  61.638  1.00  0.00     0.037 C 
BRANCH  28  29
HETATM   29  C17 UNL     1      10.104  38.238  61.897  1.00  0.00     0.117 C 
HETATM   30  C18 UNL     1       8.741  37.804  61.387  1.00  0.00     0.039 C 
BRANCH  29  31
HETATM   31  O4  UNL     1      10.393  39.442  61.231  1.00  0.00    -0.391 OA
HETATM   32  C19 UNL     1       9.319  40.323  61.309  1.00  0.00     0.202 C 
ENDBRANCH  29  31
ENDBRANCH  28  29
ENDBRANCH  27  28
ENDBRANCH  24  27
BRANCH  25  33
HETATM   33  O5  UNL     1      14.478  39.398  59.818  1.00  0.00    -0.290 OA
ATOM     34  H5  UNL     1      14.442  40.195  59.303  1.00  0.00     0.244 HD
ENDBRANCH  25  33
ENDBRANCH  23  24
ENDBRANCH  22  23
ENDBRANCH  20  21
ENDBRANCH  18  20
ENDBRANCH   1  18
TORSDOF 15
ENDMDL
MODEL 4
REMARK VINA RESULT: -8.548546669      1.611      1.746
REMARK  15 active torsions:
REMARK  status: ('A' for Active; 'I' for Inactive)
REMARK    1  A    between atoms: C2_2  and  C3_3 
REMARK    2  A    between atoms: C3_3  and  O1_4 
REMARK    3  A    between atoms: O1_4  and  C4_5 
REMARK    4  A    between atoms: C6_7  and  N1_8 
REMARK       I    between atoms: N1_8  and  C7_10 
REMARK    5  A    between atoms: C8_15  and  O2_16 
REMARK    6  A    between atoms: O2_16  and  C9_17 
REMARK    7  A    between atoms: C9_17  and  C10_19 
REMARK    8  A    between atoms: C10_19  and  C11_20 
REMARK    9  A    between atoms: C12_21  and  C13_22 
REMARK   10  A    between atoms: C13_22  and  C14_23 
REMARK   11  A    between atoms: C14_23  and  C15_24 
REMARK   12  A    between atoms: C15_24  and  C16_25 
REMARK   13  A    between atoms: C16_25  and  C17_26 
REMARK   14  A    between atoms: C17_26  and  O4_28 
REMARK   15  A    between atoms: N4_30  and  O5_32 
ROOT
HETATM    1  O2  UNL     1      16.699  36.775  58.597  1.00  0.00    -0.287 OA
ENDROOT
BRANCH   1   2
HETATM    2  C8  UNL     1      17.744  37.330  57.863  1.00  0.00     0.295 C 
HETATM    3  C6  UNL     1      18.540  36.328  57.075  1.00  0.00     0.144 C 
HETATM    4  C5  UNL     1      19.270  37.232  56.104  1.00  0.00     0.091 C 
HETATM    5  C4  UNL     1      18.281  38.367  55.954  1.00  0.00     0.265 C 
HETATM    6  O6  UNL     1      17.244  38.140  56.854  1.00  0.00    -0.329 OA
BRANCH   3   7
HETATM    7  N1  UNL     1      17.725  35.428  56.325  1.00  0.00    -0.355 N 
HETATM    8  C7  UNL     1      17.730  34.054  56.603  1.00  0.00     0.182 C 
HETATM    9  N2  UNL     1      17.220  33.671  57.722  1.00  0.00    -0.374 N 
HETATM   10  N3  UNL     1      18.265  33.070  55.723  1.00  0.00    -0.064 NA
ATOM     11  H22 UNL     1      16.837  34.376  58.353  1.00  0.00     0.158 HD
ATOM     12  H21 UNL     1      17.224  32.672  57.925  1.00  0.00     0.158 HD
ATOM     13  H1  UNL     1      17.132  35.788  55.577  1.00  0.00     0.162 HD
ENDBRANCH   3   7
BRANCH   5  14
HETATM   14  O1  UNL     1      17.776  38.287  54.665  1.00  0.00    -0.361 OA
BRANCH  14  15
HETATM   15  C3  UNL     1      18.655  37.756  53.751  1.00  0.00     0.170 C 
BRANCH  15  16
HETATM   16  C2  UNL     1      17.965  37.025  52.644  1.00  0.00     0.022 C 
HETATM   17  C1  UNL     1      16.479  37.004  52.947  1.00  0.00     0.007 C 
ENDBRANCH  15  16
ENDBRANCH  14  15
ENDBRANCH   5  14
ENDBRANCH   1   2
BRANCH   1  18
HETATM   18  C9  UNL     1      16.229  37.343  59.771  1.00  0.00     0.264 C 
HETATM   19  O3  UNL     1      15.814  38.529  59.699  1.00  0.00    -0.265 OA
BRANCH  18  20
HETATM   20  C10 UNL     1      16.210  36.599  61.062  1.00  0.00     0.138 C 
BRANCH  20  21
HETATM   21  C11 UNL     1      15.644  37.407  62.157  1.00  0.00    -0.021 C 
HETATM   22  C12 UNL     1      14.406  37.563  62.485  1.00  0.00    -0.024 C 
BRANCH  22  23
HETATM   23  C13 UNL     1      13.270  36.952  61.819  1.00  0.00     0.081 C 
BRANCH  23  24
HETATM   24  C14 UNL     1      12.096  37.850  61.606  1.00  0.00     0.013 C 
HETATM   25  N4  UNL     1      12.208  38.960  61.053  1.00  0.00    -0.277 N 
ATOM     26  H4  UNL     1      11.352  39.504  60.953  1.00  0.00     0.193 HD
BRANCH  24  27
HETATM   27  C15 UNL     1      10.794  37.275  62.075  1.00  0.00     0.057 C 
BRANCH  27  28
HETATM   28  C16 UNL     1       9.590  37.880  61.461  1.00  0.00     0.037 C 
BRANCH  28  29
HETATM   29  C17 UNL     1       9.104  39.162  62.042  1.00  0.00     0.117 C 
HETATM   30  C18 UNL     1       7.614  39.129  62.339  1.00  0.00     0.039 C 
BRANCH  29  31
HETATM   31  O4  UNL     1       9.289  40.230  61.147  1.00  0.00    -0.391 OA
HETATM   32  C19 UNL     1       8.355  41.237  61.374  1.00  0.00     0.202 C 
ENDBRANCH  29  31
ENDBRANCH  28  29
ENDBRANCH  27  28
ENDBRANCH  24  27
BRANCH  25  33
HETATM   33  O5  UNL     1      13.334  39.522  60.572  1.00  0.00    -0.290 OA
ATOM     34  H5  UNL     1      13.454  39.939  59.727  1.00  0.00     0.244 HD
ENDBRANCH  25  33
ENDBRANCH  23  24
ENDBRANCH  22  23
ENDBRANCH  20  21
ENDBRANCH  18  20
ENDBRANCH   1  18
TORSDOF 15
ENDMDL
MODEL 5
REMARK VINA RESULT: -8.540345391      2.709      8.812
REMARK  15 active torsions:
REMARK  status: ('A' for Active; 'I' for Inactive)
REMARK    1  A    between atoms: C2_2  and  C3_3 
REMARK    2  A    between atoms: C3_3  and  O1_4 
REMARK    3  A    between atoms: O1_4  and  C4_5 
REMARK    4  A    between atoms: C6_7  and  N1_8 
REMARK       I    between atoms: N1_8  and  C7_10 
REMARK    5  A    between atoms: C8_15  and  O2_16 
REMARK    6  A    between atoms: O2_16  and  C9_17 
REMARK    7  A    between atoms: C9_17  and  C10_19 
REMARK    8  A    between atoms: C10_19  and  C11_20 
REMARK    9  A    between atoms: C12_21  and  C13_22 
REMARK   10  A    between atoms: C13_22  and  C14_23 
REMARK   11  A    between atoms: C14_23  and  C15_24 
REMARK   12  A    between atoms: C15_24  and  C16_25 
REMARK   13  A    between atoms: C16_25  and  C17_26 
REMARK   14  A    between atoms: C17_26  and  O4_28 
REMARK   15  A    between atoms: N4_30  and  O5_32 
ROOT
HETATM    1  O2  UNL     1      15.650  37.072  59.398  1.00  0.00    -0.287 OA
ENDROOT
BRANCH   1   2
HETATM    2  C8  UNL     1      15.298  37.199  60.739  1.00  0.00     0.295 C 
HETATM    3  C6  UNL     1      15.294  38.616  61.241  1.00  0.00     0.144 C 
HETATM    4  C5  UNL     1      14.494  38.472  62.520  1.00  0.00     0.091 C 
HETATM    5  C4  UNL     1      13.580  37.318  62.170  1.00  0.00     0.265 C 
HETATM    6  O6  UNL     1      13.971  36.837  60.923  1.00  0.00    -0.329 OA
BRANCH   3   7
HETATM    7  N1  UNL     1      14.600  39.516  60.377  1.00  0.00    -0.355 N 
HETATM    8  C7  UNL     1      15.304  40.412  59.562  1.00  0.00     0.182 C 
HETATM    9  N2  UNL     1      15.991  39.919  58.589  1.00  0.00    -0.374 N 
HETATM   10  N3  UNL     1      15.301  41.825  59.749  1.00  0.00    -0.064 NA
ATOM     11  H22 UNL     1      15.994  38.908  58.454  1.00  0.00     0.158 HD
ATOM     12  H21 UNL     1      16.503  40.572  57.996  1.00  0.00     0.158 HD
ATOM     13  H1  UNL     1      13.581  39.507  60.353  1.00  0.00     0.162 HD
ENDBRANCH   3   7
BRANCH   5  14
HETATM   14  O1  UNL     1      12.301  37.842  62.063  1.00  0.00    -0.361 OA
BRANCH  14  15
HETATM   15  C3  UNL     1      11.306  36.893  62.059  1.00  0.00     0.170 C 
BRANCH  15  16
HETATM   16  C2  UNL     1       9.936  37.494  62.048  1.00  0.00     0.022 C 
HETATM   17  C1  UNL     1      10.040  38.893  61.471  1.00  0.00     0.007 C 
ENDBRANCH  15  16
ENDBRANCH  14  15
ENDBRANCH   5  14
ENDBRANCH   1   2
BRANCH   1  18
HETATM   18  C9  UNL     1      16.734  36.316  58.981  1.00  0.00     0.264 C 
HETATM   19  O3  UNL     1      16.909  36.217  57.739  1.00  0.00    -0.265 OA
BRANCH  18  20
HETATM   20  C10 UNL     1      17.656  35.648  59.943  1.00  0.00     0.138 C 
BRANCH  20  21
HETATM   21  C11 UNL     1      18.855  36.460  60.214  1.00  0.00    -0.021 C 
HETATM   22  C12 UNL     1      20.032  36.357  59.697  1.00  0.00    -0.024 C 
BRANCH  22  23
HETATM   23  C13 UNL     1      20.435  35.381  58.700  1.00  0.00     0.081 C 
BRANCH  23  24
HETATM   24  C14 UNL     1      20.208  35.788  57.280  1.00  0.00     0.013 C 
HETATM   25  N4  UNL     1      19.469  35.136  56.520  1.00  0.00    -0.277 N 
ATOM     26  H4  UNL     1      19.375  35.488  55.568  1.00  0.00     0.193 HD
BRANCH  24  27
HETATM   27  C15 UNL     1      20.908  37.052  56.888  1.00  0.00     0.057 C 
BRANCH  27  28
HETATM   28  C16 UNL     1      20.324  37.751  55.721  1.00  0.00     0.037 C 
BRANCH  28  29
HETATM   29  C17 UNL     1      19.392  38.879  56.002  1.00  0.00     0.117 C 
HETATM   30  C18 UNL     1      19.393  39.269  57.471  1.00  0.00     0.039 C 
BRANCH  29  31
HETATM   31  O4  UNL     1      18.064  38.529  55.703  1.00  0.00    -0.391 OA
HETATM   32  C19 UNL     1      18.001  37.761  54.544  1.00  0.00     0.202 C 
ENDBRANCH  29  31
ENDBRANCH  28  29
ENDBRANCH  27  28
ENDBRANCH  24  27
BRANCH  25  33
HETATM   33  O5  UNL     1      18.778  34.016  56.813  1.00  0.00    -0.290 OA
ATOM     34  H5  UNL     1      17.843  33.938  56.960  1.00  0.00     0.244 HD
ENDBRANCH  25  33
ENDBRANCH  23  24
ENDBRANCH  22  23
ENDBRANCH  20  21
ENDBRANCH  18  20
ENDBRANCH   1  18
TORSDOF 15
ENDMDL
