MODEL 1
REMARK VINA RESULT: -10.660696504      0.000      0.000
REMARK  4 active torsions:
REMARK  status: ('A' for Active; 'I' for Inactive)
REMARK    1  A    between atoms: C3_3  and  N1_4 
REMARK    2  A    between atoms: C10_13  and  N3_14 
REMARK       I    between atoms: N3_14  and  C11_16 
REMARK    3  A    between atoms: C11_16  and  C12_18 
REMARK    4  A    between atoms: N5_26  and  C18_27 
ROOT
HETATM    1  C1  UNL     1      41.631 -42.847  64.509  1.00  0.00     0.014 C 
HETATM    2  C2  UNL     1      41.222 -43.222  63.429  1.00  0.00    -0.096 C 
HETATM    3  C3  UNL     1      40.737 -43.654  62.116  1.00  0.00     0.243 C 
ENDROOT
BRANCH   3   4
HETATM    4  N1  UNL     1      39.383 -44.175  62.320  1.00  0.00    -0.264 N 
HETATM    5  N2  UNL     1      38.286 -43.514  62.089  1.00  0.00    -0.295 N 
HETATM    6  C4  UNL     1      37.182 -44.260  62.373  1.00  0.00     0.062 A 
ATOM      7  H2  UNL     1      38.256 -42.557  61.739  1.00  0.00     0.187 HD
HETATM    8  C5  UNL     1      35.831 -44.026  62.301  1.00  0.00     0.032 A 
HETATM    9  C9  UNL     1      37.707 -45.479  62.814  1.00  0.00     0.038 A 
HETATM   10  C6  UNL     1      34.930 -44.994  62.664  1.00  0.00     0.002 A 
HETATM   11  C7  UNL     1      35.427 -46.209  63.104  1.00  0.00     0.001 A 
HETATM   12  C8  UNL     1      36.784 -46.432  63.173  1.00  0.00     0.017 A 
HETATM   13  C10 UNL     1      39.079 -45.404  62.773  1.00  0.00     0.138 A 
BRANCH  13  14
HETATM   14  N3  UNL     1      39.925 -46.272  63.082  1.00  0.00    -0.307 N 
HETATM   15  C11 UNL     1      39.813 -47.606  63.436  1.00  0.00     0.257 C 
HETATM   16  O1  UNL     1      39.777 -48.499  62.577  1.00  0.00    -0.267 OA
ATOM     17  H3  UNL     1      40.886 -45.930  63.072  1.00  0.00     0.170 HD
BRANCH  15  18
HETATM   18  C12 UNL     1      39.739 -47.952  64.873  1.00  0.00     0.033 A 
HETATM   19  C13 UNL     1      39.390 -49.227  65.267  1.00  0.00     0.017 A 
HETATM   20  C14 UNL     1      39.316 -49.563  66.601  1.00  0.00     0.002 A 
HETATM   21  C15 UNL     1      39.604 -48.589  67.540  1.00  0.00     0.014 A 
HETATM   22  C16 UNL     1      39.959 -47.295  67.183  1.00  0.00    -0.006 A 
HETATM   23  C17 UNL     1      40.180 -46.353  68.255  1.00  0.00     0.076 A 
HETATM   24  C30 UNL     1      40.014 -47.019  65.844  1.00  0.00     0.030 A 
HETATM   25  N4  UNL     1      39.269 -46.045  69.245  1.00  0.00    -0.295 N 
HETATM   26  C29 UNL     1      41.311 -45.628  68.507  1.00  0.00     0.082 A 
HETATM   27  N5  UNL     1      39.759 -45.185  70.084  1.00  0.00    -0.268 N 
ATOM     28  H4  UNL     1      38.332 -46.442  69.309  1.00  0.00     0.187 HD
HETATM   29  C26 UNL     1      41.015 -44.900  69.668  1.00  0.00     0.140 A 
HETATM   30  N6  UNL     1      41.977 -44.098  70.147  1.00  0.00    -0.337 N 
HETATM   31  C27 UNL     1      43.189 -43.969  69.572  1.00  0.00     0.183 A 
ATOM     32  H6  UNL     1      41.782 -43.558  70.991  1.00  0.00     0.168 HD
HETATM   33  N7  UNL     1      43.447 -44.685  68.456  1.00  0.00    -0.338 N 
HETATM   34  C28 UNL     1      42.544 -45.514  67.903  1.00  0.00     0.116 A 
ATOM     35  H7  UNL     1      44.362 -44.594  68.016  1.00  0.00     0.168 HD
HETATM   36  N8  UNL     1      42.862 -46.197  66.845  1.00  0.00    -0.385 N 
ATOM     37  H82 UNL     1      43.775 -46.113  66.398  1.00  0.00     0.157 HD
ATOM     38  H81 UNL     1      42.178 -46.826  66.425  1.00  0.00     0.157 HD
BRANCH  27  39
HETATM   39  C18 UNL     1      39.162 -44.581  71.271  1.00  0.00     0.134 C 
HETATM   40  C19 UNL     1      38.199 -45.551  71.871  1.00  0.00     0.035 C 
HETATM   41  C20 UNL     1      37.000 -44.905  72.521  1.00  0.00     0.073 C 
HETATM   42  C21 UNL     1      37.505 -44.086  73.709  1.00  0.00     0.185 C 
HETATM   43  C22 UNL     1      38.215 -42.879  73.079  1.00  0.00     0.236 C 
HETATM   44  O3  UNL     1      38.342 -44.821  74.508  1.00  0.00    -0.351 OA
HETATM   45  O4  UNL     1      36.411 -43.705  74.447  1.00  0.00    -0.351 OA
HETATM   46  O2  UNL     1      37.784 -42.656  71.795  1.00  0.00    -0.384 OA
HETATM   47  C23 UNL     1      38.450 -43.342  70.812  1.00  0.00     0.195 C 
HETATM   48  C24 UNL     1      37.706 -45.064  75.702  1.00  0.00     0.198 C 
HETATM   49  C25 UNL     1      36.301 -44.575  75.530  1.00  0.00     0.198 C 
ENDBRANCH  27  39
ENDBRANCH  15  18
ENDBRANCH  13  14
ENDBRANCH   3   4
TORSDOF 4
ENDMDL
MODEL 2
REMARK VINA RESULT: -10.204877431      1.740      2.104
REMARK  4 active torsions:
REMARK  status: ('A' for Active; 'I' for Inactive)
REMARK    1  A    between atoms: C3_3  and  N1_4 
REMARK    2  A    between atoms: C10_13  and  N3_14 
REMARK       I    between atoms: N3_14  and  C11_16 
REMARK    3  A    between atoms: C11_16  and  C12_18 
REMARK    4  A    between atoms: N5_26  and  C18_27 
ROOT
HETATM    1  C1  UNL     1      39.613 -44.385  66.991  1.00  0.00     0.014 C 
HETATM    2  C2  UNL     1      40.023 -44.429  65.849  1.00  0.00    -0.096 C 
HETATM    3  C3  UNL     1      40.520 -44.458  64.471  1.00  0.00     0.243 C 
ENDROOT
BRANCH   3   4
HETATM    4  N1  UNL     1      39.677 -45.409  63.742  1.00  0.00    -0.264 N 
HETATM    5  N2  UNL     1      38.693 -45.084  62.954  1.00  0.00    -0.295 N 
HETATM    6  C4  UNL     1      38.096 -46.185  62.418  1.00  0.00     0.062 A 
ATOM      7  H2  UNL     1      38.405 -44.125  62.761  1.00  0.00     0.187 HD
HETATM    8  C5  UNL     1      37.045 -46.372  61.554  1.00  0.00     0.032 A 
HETATM    9  C9  UNL     1      38.817 -47.253  62.960  1.00  0.00     0.038 A 
HETATM   10  C6  UNL     1      36.657 -47.634  61.183  1.00  0.00     0.002 A 
HETATM   11  C7  UNL     1      37.357 -48.706  61.707  1.00  0.00     0.001 A 
HETATM   12  C8  UNL     1      38.408 -48.507  62.573  1.00  0.00     0.017 A 
HETATM   13  C10 UNL     1      39.796 -46.748  63.781  1.00  0.00     0.138 A 
BRANCH  13  14
HETATM   14  N3  UNL     1      40.654 -47.360  64.455  1.00  0.00    -0.307 N 
HETATM   15  C11 UNL     1      40.717 -48.657  64.935  1.00  0.00     0.257 C 
HETATM   16  O1  UNL     1      41.163 -49.581  64.238  1.00  0.00    -0.267 OA
ATOM     17  H3  UNL     1      41.466 -46.794  64.698  1.00  0.00     0.170 HD
BRANCH  15  18
HETATM   18  C12 UNL     1      40.240 -48.926  66.311  1.00  0.00     0.033 A 
HETATM   19  C13 UNL     1      39.695 -50.150  66.634  1.00  0.00     0.017 A 
HETATM   20  C14 UNL     1      39.247 -50.414  67.910  1.00  0.00     0.002 A 
HETATM   21  C15 UNL     1      39.361 -49.419  68.864  1.00  0.00     0.014 A 
HETATM   22  C16 UNL     1      39.905 -48.174  68.577  1.00  0.00    -0.006 A 
HETATM   23  C17 UNL     1      39.917 -47.199  69.642  1.00  0.00     0.076 A 
HETATM   24  C30 UNL     1      40.331 -47.969  67.293  1.00  0.00     0.030 A 
HETATM   25  N4  UNL     1      38.809 -46.775  70.347  1.00  0.00    -0.295 N 
HETATM   26  C29 UNL     1      41.001 -46.549  70.164  1.00  0.00     0.082 A 
HETATM   27  N5  UNL     1      39.134 -45.913  71.262  1.00  0.00    -0.268 N 
ATOM     28  H4  UNL     1      37.858 -47.098  70.172  1.00  0.00     0.187 HD
HETATM   29  C26 UNL     1      40.475 -45.744  71.184  1.00  0.00     0.140 A 
HETATM   30  N6  UNL     1      41.343 -44.993  71.879  1.00  0.00    -0.337 N 
HETATM   31  C27 UNL     1      42.670 -44.983  71.641  1.00  0.00     0.183 A 
ATOM     32  H6  UNL     1      40.980 -44.399  72.625  1.00  0.00     0.168 HD
HETATM   33  N7  UNL     1      43.148 -45.771  70.653  1.00  0.00    -0.338 N 
HETATM   34  C28 UNL     1      42.354 -46.557  69.905  1.00  0.00     0.116 A 
ATOM     35  H7  UNL     1      44.150 -45.770  70.468  1.00  0.00     0.168 HD
HETATM   36  N8  UNL     1      42.878 -47.313  68.988  1.00  0.00    -0.385 N 
ATOM     37  H82 UNL     1      43.880 -47.319  68.795  1.00  0.00     0.157 HD
ATOM     38  H81 UNL     1      42.276 -47.909  68.420  1.00  0.00     0.157 HD
BRANCH  27  39
HETATM   39  C18 UNL     1      38.301 -45.209  72.231  1.00  0.00     0.134 C 
HETATM   40  C19 UNL     1      36.994 -45.920  72.348  1.00  0.00     0.035 C 
HETATM   41  C20 UNL     1      35.821 -45.010  72.615  1.00  0.00     0.073 C 
HETATM   42  C21 UNL     1      36.033 -44.374  73.989  1.00  0.00     0.185 C 
HETATM   43  C22 UNL     1      37.175 -43.370  73.784  1.00  0.00     0.236 C 
HETATM   44  O3  UNL     1      36.334 -45.317  74.938  1.00  0.00    -0.351 OA
HETATM   45  O4  UNL     1      34.862 -43.749  74.344  1.00  0.00    -0.351 OA
HETATM   46  O2  UNL     1      37.300 -43.013  72.464  1.00  0.00    -0.384 OA
HETATM   47  C23 UNL     1      38.104 -43.819  71.700  1.00  0.00     0.195 C 
HETATM   48  C24 UNL     1      35.272 -45.422  75.804  1.00  0.00     0.198 C 
HETATM   49  C25 UNL     1      34.174 -44.591  75.216  1.00  0.00     0.198 C 
ENDBRANCH  27  39
ENDBRANCH  15  18
ENDBRANCH  13  14
ENDBRANCH   3   4
TORSDOF 4
ENDMDL
MODEL 3
REMARK VINA RESULT: -10.139257055      1.035      1.321
REMARK  4 active torsions:
REMARK  status: ('A' for Active; 'I' for Inactive)
REMARK    1  A    between atoms: C3_3  and  N1_4 
REMARK    2  A    between atoms: C10_13  and  N3_14 
REMARK       I    between atoms: N3_14  and  C11_16 
REMARK    3  A    between atoms: C11_16  and  C12_18 
REMARK    4  A    between atoms: N5_26  and  C18_27 
ROOT
HETATM    1  C1  UNL     1      40.957 -43.298  64.567  1.00  0.00     0.014 C 
HETATM    2  C2  UNL     1      40.413 -43.487  63.497  1.00  0.00    -0.096 C 
HETATM    3  C3  UNL     1      39.764 -43.693  62.200  1.00  0.00     0.243 C 
ENDROOT
BRANCH   3   4
HETATM    4  N1  UNL     1      38.487 -44.358  62.472  1.00  0.00    -0.264 N 
HETATM    5  N2  UNL     1      37.324 -43.775  62.457  1.00  0.00    -0.295 N 
HETATM    6  C4  UNL     1      36.321 -44.650  62.748  1.00  0.00     0.062 A 
ATOM      7  H2  UNL     1      37.180 -42.786  62.254  1.00  0.00     0.187 HD
HETATM    8  C5  UNL     1      34.958 -44.532  62.856  1.00  0.00     0.032 A 
HETATM    9  C9  UNL     1      36.985 -45.863  62.950  1.00  0.00     0.038 A 
HETATM   10  C6  UNL     1      34.182 -45.619  63.172  1.00  0.00     0.002 A 
HETATM   11  C7  UNL     1      34.818 -46.831  63.376  1.00  0.00     0.001 A 
HETATM   12  C8  UNL     1      36.187 -46.936  63.266  1.00  0.00     0.017 A 
HETATM   13  C10 UNL     1      38.333 -45.659  62.773  1.00  0.00     0.138 A 
BRANCH  13  14
HETATM   14  N3  UNL     1      39.273 -46.479  62.862  1.00  0.00    -0.307 N 
HETATM   15  C11 UNL     1      39.307 -47.846  63.078  1.00  0.00     0.257 C 
HETATM   16  O1  UNL     1      39.204 -48.650  62.140  1.00  0.00    -0.267 OA
ATOM     17  H3  UNL     1      40.196 -46.059  62.755  1.00  0.00     0.170 HD
BRANCH  15  18
HETATM   18  C12 UNL     1      39.471 -48.340  64.465  1.00  0.00     0.033 A 
HETATM   19  C13 UNL     1      39.411 -49.689  64.738  1.00  0.00     0.017 A 
HETATM   20  C14 UNL     1      39.562 -50.162  66.023  1.00  0.00     0.002 A 
HETATM   21  C15 UNL     1      39.779 -49.247  67.037  1.00  0.00     0.014 A 
HETATM   22  C16 UNL     1      39.847 -47.881  66.802  1.00  0.00    -0.006 A 
HETATM   23  C17 UNL     1      40.020 -47.022  67.951  1.00  0.00     0.076 A 
HETATM   24  C30 UNL     1      39.687 -47.469  65.507  1.00  0.00     0.030 A 
HETATM   25  N4  UNL     1      39.196 -46.995  69.057  1.00  0.00    -0.295 N 
HETATM   26  C29 UNL     1      41.023 -46.120  68.172  1.00  0.00     0.082 A 
HETATM   27  N5  UNL     1      39.618 -46.142  69.939  1.00  0.00    -0.268 N 
ATOM     28  H4  UNL     1      38.361 -47.572  69.167  1.00  0.00     0.187 HD
HETATM   29  C26 UNL     1      40.741 -45.579  69.435  1.00  0.00     0.140 A 
HETATM   30  N6  UNL     1      41.593 -44.656  69.907  1.00  0.00    -0.337 N 
HETATM   31  C27 UNL     1      42.682 -44.238  69.232  1.00  0.00     0.183 A 
ATOM     32  H6  UNL     1      41.405 -44.250  70.824  1.00  0.00     0.168 HD
HETATM   33  N7  UNL     1      42.928 -44.779  68.019  1.00  0.00    -0.338 N 
HETATM   34  C28 UNL     1      42.131 -45.709  67.465  1.00  0.00     0.116 A 
ATOM     35  H7  UNL     1      43.751 -44.469  67.503  1.00  0.00     0.168 HD
HETATM   36  N8  UNL     1      42.438 -46.211  66.307  1.00  0.00    -0.385 N 
ATOM     37  H82 UNL     1      43.259 -45.908  65.783  1.00  0.00     0.157 HD
ATOM     38  H81 UNL     1      41.834 -46.917  65.887  1.00  0.00     0.157 HD
BRANCH  27  39
HETATM   39  C18 UNL     1      39.069 -45.785  71.243  1.00  0.00     0.134 C 
HETATM   40  C19 UNL     1      38.076 -44.686  71.061  1.00  0.00     0.035 C 
HETATM   41  C20 UNL     1      38.022 -43.709  72.210  1.00  0.00     0.073 C 
HETATM   42  C21 UNL     1      37.526 -44.471  73.440  1.00  0.00     0.185 C 
HETATM   43  C22 UNL     1      38.701 -45.372  73.842  1.00  0.00     0.236 C 
HETATM   44  O3  UNL     1      36.392 -45.190  73.162  1.00  0.00    -0.351 OA
HETATM   45  O4  UNL     1      37.235 -43.546  74.413  1.00  0.00    -0.351 OA
HETATM   46  O2  UNL     1      39.891 -44.900  73.345  1.00  0.00    -0.384 OA
HETATM   47  C23 UNL     1      40.223 -45.323  72.084  1.00  0.00     0.195 C 
HETATM   48  C24 UNL     1      35.335 -44.613  73.825  1.00  0.00     0.198 C 
HETATM   49  C25 UNL     1      35.858 -43.337  74.408  1.00  0.00     0.198 C 
ENDBRANCH  27  39
ENDBRANCH  15  18
ENDBRANCH  13  14
ENDBRANCH   3   4
TORSDOF 4
ENDMDL
MODEL 4
REMARK VINA RESULT: -10.133639211      1.219      1.552
REMARK  4 active torsions:
REMARK  status: ('A' for Active; 'I' for Inactive)
REMARK    1  A    between atoms: C3_3  and  N1_4 
REMARK    2  A    between atoms: C10_13  and  N3_14 
REMARK       I    between atoms: N3_14  and  C11_16 
REMARK    3  A    between atoms: C11_16  and  C12_18 
REMARK    4  A    between atoms: N5_26  and  C18_27 
ROOT
HETATM    1  C1  UNL     1      42.466 -42.448  63.811  1.00  0.00     0.014 C 
HETATM    2  C2  UNL     1      42.110 -43.609  63.772  1.00  0.00    -0.096 C 
HETATM    3  C3  UNL     1      41.701 -45.014  63.714  1.00  0.00     0.243 C 
ENDROOT
BRANCH   3   4
HETATM    4  N1  UNL     1      40.266 -45.020  63.415  1.00  0.00    -0.264 N 
HETATM    5  N2  UNL     1      39.537 -43.958  63.232  1.00  0.00    -0.295 N 
HETATM    6  C4  UNL     1      38.239 -44.280  62.970  1.00  0.00     0.062 A 
ATOM      7  H2  UNL     1      39.892 -43.003  63.280  1.00  0.00     0.187 HD
HETATM    8  C5  UNL     1      37.109 -43.543  62.714  1.00  0.00     0.032 A 
HETATM    9  C9  UNL     1      38.228 -45.677  63.008  1.00  0.00     0.038 A 
HETATM   10  C6  UNL     1      35.906 -44.159  62.481  1.00  0.00     0.002 A 
HETATM   11  C7  UNL     1      35.872 -45.543  62.513  1.00  0.00     0.001 A 
HETATM   12  C8  UNL     1      37.011 -46.271  62.772  1.00  0.00     0.017 A 
HETATM   13  C10 UNL     1      39.500 -46.117  63.286  1.00  0.00     0.138 A 
BRANCH  13  14
HETATM   14  N3  UNL     1      39.920 -47.289  63.407  1.00  0.00    -0.307 N 
HETATM   15  C11 UNL     1      39.326 -48.455  63.862  1.00  0.00     0.257 C 
HETATM   16  O1  UNL     1      38.664 -49.179  63.104  1.00  0.00    -0.267 OA
ATOM     17  H3  UNL     1      40.889 -47.411  63.114  1.00  0.00     0.170 HD
BRANCH  15  18
HETATM   18  C12 UNL     1      39.499 -48.828  65.284  1.00  0.00     0.033 A 
HETATM   19  C13 UNL     1      39.584 -50.153  65.653  1.00  0.00     0.017 A 
HETATM   20  C14 UNL     1      39.744 -50.515  66.973  1.00  0.00     0.002 A 
HETATM   21  C15 UNL     1      39.820 -49.513  67.923  1.00  0.00     0.014 A 
HETATM   22  C16 UNL     1      39.739 -48.167  67.591  1.00  0.00    -0.006 A 
HETATM   23  C17 UNL     1      39.774 -47.217  68.678  1.00  0.00     0.076 A 
HETATM   24  C30 UNL     1      39.578 -47.868  66.266  1.00  0.00     0.030 A 
HETATM   25  N4  UNL     1      38.915 -47.210  69.757  1.00  0.00    -0.295 N 
HETATM   26  C29 UNL     1      40.659 -46.191  68.859  1.00  0.00     0.082 A 
HETATM   27  N5  UNL     1      39.207 -46.254  70.586  1.00  0.00    -0.268 N 
ATOM     28  H4  UNL     1      38.149 -47.870  69.888  1.00  0.00     0.187 HD
HETATM   29  C26 UNL     1      40.275 -45.601  70.071  1.00  0.00     0.140 A 
HETATM   30  N6  UNL     1      40.999 -44.554  70.497  1.00  0.00    -0.337 N 
HETATM   31  C27 UNL     1      42.056 -44.060  69.822  1.00  0.00     0.183 A 
ATOM     32  H6  UNL     1      40.735 -44.110  71.376  1.00  0.00     0.168 HD
HETATM   33  N7  UNL     1      42.403 -44.651  68.658  1.00  0.00    -0.338 N 
HETATM   34  C28 UNL     1      41.737 -45.704  68.153  1.00  0.00     0.116 A 
ATOM     35  H7  UNL     1      43.202 -44.284  68.142  1.00  0.00     0.168 HD
HETATM   36  N8  UNL     1      42.139 -46.246  67.042  1.00  0.00    -0.385 N 
ATOM     37  H82 UNL     1      42.937 -45.887  66.520  1.00  0.00     0.157 HD
ATOM     38  H81 UNL     1      41.634 -47.045  66.659  1.00  0.00     0.157 HD
BRANCH  27  39
HETATM   39  C18 UNL     1      38.577 -45.873  71.845  1.00  0.00     0.134 C 
HETATM   40  C19 UNL     1      37.575 -44.800  71.576  1.00  0.00     0.035 C 
HETATM   41  C20 UNL     1      37.436 -43.795  72.693  1.00  0.00     0.073 C 
HETATM   42  C21 UNL     1      36.884 -44.533  73.913  1.00  0.00     0.185 C 
HETATM   43  C22 UNL     1      38.051 -45.399  74.407  1.00  0.00     0.236 C 
HETATM   44  O3  UNL     1      35.782 -45.282  73.590  1.00  0.00    -0.351 OA
HETATM   45  O4  UNL     1      36.521 -43.589  74.842  1.00  0.00    -0.351 OA
HETATM   46  O2  UNL     1      39.258 -44.916  73.966  1.00  0.00    -0.384 OA
HETATM   47  C23 UNL     1      39.671 -45.366  72.739  1.00  0.00     0.195 C 
HETATM   48  C24 UNL     1      34.677 -44.709  74.175  1.00  0.00     0.198 C 
HETATM   49  C25 UNL     1      35.142 -43.407  74.752  1.00  0.00     0.198 C 
ENDBRANCH  27  39
ENDBRANCH  15  18
ENDBRANCH  13  14
ENDBRANCH   3   4
TORSDOF 4
ENDMDL
MODEL 5
REMARK VINA RESULT: -9.994041395      1.284      1.641
REMARK  4 active torsions:
REMARK  status: ('A' for Active; 'I' for Inactive)
REMARK    1  A    between atoms: C3_3  and  N1_4 
REMARK    2  A    between atoms: C10_13  and  N3_14 
REMARK       I    between atoms: N3_14  and  C11_16 
REMARK    3  A    between atoms: C11_16  and  C12_18 
REMARK    4  A    between atoms: N5_26  and  C18_27 
ROOT
HETATM    1  C1  UNL     1      41.096 -43.226  64.138  1.00  0.00     0.014 C 
HETATM    2  C2  UNL     1      40.561 -43.545  63.095  1.00  0.00    -0.096 C 
HETATM    3  C3  UNL     1      39.924 -43.909  61.827  1.00  0.00     0.243 C 
ENDROOT
BRANCH   3   4
HETATM    4  N1  UNL     1      38.603 -44.447  62.162  1.00  0.00    -0.264 N 
HETATM    5  N2  UNL     1      37.498 -43.759  62.175  1.00  0.00    -0.295 N 
HETATM    6  C4  UNL     1      36.431 -44.531  62.524  1.00  0.00     0.062 A 
ATOM      7  H2  UNL     1      37.439 -42.765  61.953  1.00  0.00     0.187 HD
HETATM    8  C5  UNL     1      35.090 -44.285  62.680  1.00  0.00     0.032 A 
HETATM    9  C9  UNL     1      36.988 -45.796  62.733  1.00  0.00     0.038 A 
HETATM   10  C6  UNL     1      34.230 -45.287  63.050  1.00  0.00     0.002 A 
HETATM   11  C7  UNL     1      34.760 -46.548  63.261  1.00  0.00     0.001 A 
HETATM   12  C8  UNL     1      36.107 -46.783  63.103  1.00  0.00     0.017 A 
HETATM   13  C10 UNL     1      38.341 -45.721  62.501  1.00  0.00     0.138 A 
BRANCH  13  14
HETATM   14  N3  UNL     1      39.205 -46.623  62.576  1.00  0.00    -0.307 N 
HETATM   15  C11 UNL     1      39.122 -47.980  62.838  1.00  0.00     0.257 C 
HETATM   16  O1  UNL     1      38.900 -48.799  61.934  1.00  0.00    -0.267 OA
ATOM     17  H3  UNL     1      40.156 -46.295  62.412  1.00  0.00     0.170 HD
BRANCH  15  18
HETATM   18  C12 UNL     1      39.307 -48.444  64.232  1.00  0.00     0.033 A 
HETATM   19  C13 UNL     1      39.206 -49.783  64.542  1.00  0.00     0.017 A 
HETATM   20  C14 UNL     1      39.376 -50.229  65.834  1.00  0.00     0.002 A 
HETATM   21  C15 UNL     1      39.653 -49.297  66.818  1.00  0.00     0.014 A 
HETATM   22  C16 UNL     1      39.763 -47.940  66.545  1.00  0.00    -0.006 A 
HETATM   23  C17 UNL     1      39.999 -47.060  67.667  1.00  0.00     0.076 A 
HETATM   24  C30 UNL     1      39.583 -47.556  65.245  1.00  0.00     0.030 A 
HETATM   25  N4  UNL     1      39.207 -46.976  68.793  1.00  0.00    -0.295 N 
HETATM   26  C29 UNL     1      41.039 -46.190  67.837  1.00  0.00     0.082 A 
HETATM   27  N5  UNL     1      39.684 -46.116  69.641  1.00  0.00    -0.268 N 
ATOM     28  H4  UNL     1      38.356 -47.518  68.940  1.00  0.00     0.187 HD
HETATM   29  C26 UNL     1      40.812 -45.608  69.092  1.00  0.00     0.140 A 
HETATM   30  N6  UNL     1      41.709 -44.705  69.518  1.00  0.00    -0.337 N 
HETATM   31  C27 UNL     1      42.793 -44.344  68.803  1.00  0.00     0.183 A 
ATOM     32  H6  UNL     1      41.562 -44.269  70.428  1.00  0.00     0.168 HD
HETATM   33  N7  UNL     1      42.986 -44.924  67.598  1.00  0.00    -0.338 N 
HETATM   34  C28 UNL     1      42.142 -45.838  67.091  1.00  0.00     0.116 A 
ATOM     35  H7  UNL     1      43.805 -44.657  67.052  1.00  0.00     0.168 HD
HETATM   36  N8  UNL     1      42.398 -46.380  65.938  1.00  0.00    -0.385 N 
ATOM     37  H82 UNL     1      43.215 -46.120  65.385  1.00  0.00     0.157 HD
ATOM     38  H81 UNL     1      41.758 -47.074  65.552  1.00  0.00     0.157 HD
BRANCH  27  39
HETATM   39  C18 UNL     1      39.184 -45.706  70.949  1.00  0.00     0.134 C 
HETATM   40  C19 UNL     1      40.340 -45.569  71.883  1.00  0.00     0.035 C 
HETATM   41  C20 UNL     1      40.023 -45.936  73.312  1.00  0.00     0.073 C 
HETATM   42  C21 UNL     1      38.994 -44.930  73.829  1.00  0.00     0.185 C 
HETATM   43  C22 UNL     1      37.690 -45.299  73.109  1.00  0.00     0.236 C 
HETATM   44  O3  UNL     1      39.381 -43.640  73.575  1.00  0.00    -0.351 OA
HETATM   45  O4  UNL     1      38.892 -45.101  75.189  1.00  0.00    -0.351 OA
HETATM   46  O2  UNL     1      37.713 -46.595  72.658  1.00  0.00    -0.384 OA
HETATM   47  C23 UNL     1      38.253 -46.788  71.413  1.00  0.00     0.195 C 
HETATM   48  C24 UNL     1      39.698 -43.035  74.768  1.00  0.00     0.198 C 
HETATM   49  C25 UNL     1      39.661 -44.116  75.804  1.00  0.00     0.198 C 
ENDBRANCH  27  39
ENDBRANCH  15  18
ENDBRANCH  13  14
ENDBRANCH   3   4
TORSDOF 4
ENDMDL
