MODEL 1
REMARK VINA RESULT: -8.864787887      0.000      0.000
REMARK  7 active torsions:
REMARK  status: ('A' for Active; 'I' for Inactive)
REMARK       I    between atoms: C1_2  and  N1_3 
REMARK       I    between atoms: C1_2  and  N5_42 
REMARK    1  A    between atoms: N1_3  and  C2_5 
REMARK    2  A    between atoms: C2_5  and  C3_6 
REMARK    3  A    between atoms: C11_17  and  C12_18 
REMARK    4  A    between atoms: C13_21  and  C14_22 
REMARK    5  A    between atoms: C17_25  and  C18_26 
REMARK    6  A    between atoms: C19_27  and  C20_28 
REMARK    7  A    between atoms: C20_28  and  O2_29 
ROOT
HETATM    1  C3  UNL     1      40.231 -48.354  65.681  1.00  0.00     0.140 C 
HETATM    2  C4  UNL     1      39.212 -49.190  65.062  1.00  0.00     0.034 C 
HETATM    3  C5  UNL     1      37.912 -48.474  64.748  1.00  0.00     0.014 C 
HETATM    4  C6  UNL     1      38.103 -47.697  63.471  1.00  0.00    -0.012 C 
HETATM    5  C7  UNL     1      36.982 -46.716  63.224  1.00  0.00     0.039 C 
HETATM    6  C8  UNL     1      36.971 -46.581  61.701  1.00  0.00     0.233 C 
HETATM    7  N2  UNL     1      37.778 -47.647  61.192  1.00  0.00    -0.074 N 
ATOM      8  H21 UNL     1      38.648 -47.317  60.776  1.00  0.00     0.277 HD
ATOM      9  H22 UNL     1      37.380 -48.078  60.357  1.00  0.00     0.277 HD
HETATM   10  C9  UNL     1      37.994 -48.587  62.249  1.00  0.00     0.241 C 
HETATM   11  C10 UNL     1      39.447 -47.053  63.489  1.00  0.00     0.051 C 
HETATM   12  C11 UNL     1      39.644 -46.291  64.755  1.00  0.00     0.200 C 
HETATM   13  O4  UNL     1      39.967 -47.005  65.866  1.00  0.00    -0.371 OA
ENDROOT
BRANCH  12  14
HETATM   14  C12 UNL     1      40.599 -45.190  64.459  1.00  0.00     0.177 A 
HETATM   15  N3  UNL     1      41.804 -45.330  63.884  1.00  0.00    -0.321 N 
HETATM   16  C13 UNL     1      42.406 -44.136  63.763  1.00  0.00     0.138 A 
ATOM     17  H3  UNL     1      42.205 -46.218  63.581  1.00  0.00     0.169 HD
HETATM   18  N4  UNL     1      41.539 -43.251  64.281  1.00  0.00    -0.242 N 
HETATM   19  O3  UNL     1      40.469 -43.905  64.689  1.00  0.00    -0.220 OA
ATOM     20  H4  UNL     1      41.683 -42.244  64.347  1.00  0.00     0.196 HD
BRANCH  16  21
HETATM   21  C14 UNL     1      43.722 -43.837  63.197  1.00  0.00     0.010 A 
HETATM   22  C15 UNL     1      44.245 -42.563  63.293  1.00  0.00     0.017 A 
HETATM   23  C16 UNL     1      45.488 -42.302  62.756  1.00  0.00     0.021 A 
HETATM   24  C17 UNL     1      46.236 -43.278  62.117  1.00  0.00     0.017 A 
HETATM   25  C26 UNL     1      45.723 -44.552  62.017  1.00  0.00     0.021 A 
HETATM   26  C27 UNL     1      44.479 -44.798  62.560  1.00  0.00     0.017 A 
BRANCH  24  27
HETATM   27  C18 UNL     1      47.530 -43.014  61.556  1.00  0.00    -0.064 C 
HETATM   28  C19 UNL     1      48.623 -42.811  61.074  1.00  0.00    -0.063 C 
BRANCH  28  29
HETATM   29  C20 UNL     1      49.957 -42.588  60.475  1.00  0.00     0.121 C 
HETATM   30  C21 UNL     1      50.552 -41.286  60.975  1.00  0.00     0.051 C 
HETATM   31  C22 UNL     1      50.118 -40.103  60.133  1.00  0.00     0.004 C 
HETATM   32  C23 UNL     1      50.704 -40.258  58.752  1.00  0.00     0.000 C 
HETATM   33  C24 UNL     1      50.972 -41.713  58.431  1.00  0.00     0.004 C 
HETATM   34  C25 UNL     1      49.880 -42.611  58.984  1.00  0.00     0.051 C 
BRANCH  29  35
HETATM   35  O2  UNL     1      50.769 -43.609  60.920  1.00  0.00    -0.378 OA
ATOM     36  H2  UNL     1      50.727 -44.298  60.268  1.00  0.00     0.211 HD
ENDBRANCH  29  35
ENDBRANCH  28  29
ENDBRANCH  24  27
ENDBRANCH  16  21
ENDBRANCH  12  14
BRANCH   1  37
HETATM   37  C2  UNL     1      40.849 -48.900  66.917  1.00  0.00     0.156 C 
BRANCH  37  38
HETATM   38  N1  UNL     1      40.408 -48.358  68.156  1.00  0.00    -0.341 N 
HETATM   39  C1  UNL     1      39.346 -48.691  69.002  1.00  0.00     0.318 C 
HETATM   40  O1  UNL     1      38.509 -49.596  68.849  1.00  0.00    -0.247 OA
HETATM   41  N5  UNL     1      39.158 -47.912  70.219  1.00  0.00    -0.330 N 
HETATM   42  C28 UNL     1      40.042 -46.826  70.537  1.00  0.00     0.153 C 
HETATM   43  C31 UNL     1      38.078 -48.244  71.104  1.00  0.00     0.153 C 
HETATM   44  C29 UNL     1      39.562 -46.194  71.823  1.00  0.00     0.187 C 
HETATM   45  O5  UNL     1      38.210 -45.901  71.679  1.00  0.00    -0.388 OA
HETATM   46  C30 UNL     1      37.458 -47.056  71.790  1.00  0.00     0.187 C 
ATOM     47  H1  UNL     1      40.974 -47.578  68.491  1.00  0.00     0.164 HD
ENDBRANCH  37  38
ENDBRANCH   1  37
TORSDOF 7
ENDMDL
MODEL 2
REMARK VINA RESULT: -8.797931209      0.656      1.058
REMARK  7 active torsions:
REMARK  status: ('A' for Active; 'I' for Inactive)
REMARK       I    between atoms: C1_2  and  N1_3 
REMARK       I    between atoms: C1_2  and  N5_42 
REMARK    1  A    between atoms: N1_3  and  C2_5 
REMARK    2  A    between atoms: C2_5  and  C3_6 
REMARK    3  A    between atoms: C11_17  and  C12_18 
REMARK    4  A    between atoms: C13_21  and  C14_22 
REMARK    5  A    between atoms: C17_25  and  C18_26 
REMARK    6  A    between atoms: C19_27  and  C20_28 
REMARK    7  A    between atoms: C20_28  and  O2_29 
ROOT
HETATM    1  C3  UNL     1      40.208 -48.347  65.650  1.00  0.00     0.140 C 
HETATM    2  C4  UNL     1      39.164 -49.166  65.050  1.00  0.00     0.034 C 
HETATM    3  C5  UNL     1      37.872 -48.427  64.754  1.00  0.00     0.014 C 
HETATM    4  C6  UNL     1      38.057 -47.658  63.471  1.00  0.00    -0.012 C 
HETATM    5  C7  UNL     1      36.950 -46.658  63.239  1.00  0.00     0.039 C 
HETATM    6  C8  UNL     1      36.918 -46.527  61.715  1.00  0.00     0.233 C 
HETATM    7  N2  UNL     1      37.697 -47.610  61.198  1.00  0.00    -0.074 N 
ATOM      8  H21 UNL     1      38.566 -47.298  60.766  1.00  0.00     0.277 HD
ATOM      9  H22 UNL     1      37.278 -48.036  60.371  1.00  0.00     0.277 HD
HETATM   10  C9  UNL     1      37.912 -48.550  62.255  1.00  0.00     0.241 C 
HETATM   11  C10 UNL     1      39.414 -47.040  63.466  1.00  0.00     0.051 C 
HETATM   12  C11 UNL     1      39.644 -46.277  64.725  1.00  0.00     0.200 C 
HETATM   13  O4  UNL     1      39.972 -46.992  65.834  1.00  0.00    -0.371 OA
ENDROOT
BRANCH  12  14
HETATM   14  C12 UNL     1      40.615 -45.195  64.410  1.00  0.00     0.177 A 
HETATM   15  N3  UNL     1      41.843 -45.368  63.894  1.00  0.00    -0.321 N 
HETATM   16  C13 UNL     1      42.454 -44.182  63.734  1.00  0.00     0.138 A 
ATOM     17  H3  UNL     1      42.253 -46.271  63.658  1.00  0.00     0.169 HD
HETATM   18  N4  UNL     1      41.568 -43.270  64.165  1.00  0.00    -0.242 N 
HETATM   19  O3  UNL     1      40.479 -43.899  64.563  1.00  0.00    -0.220 OA
ATOM     20  H4  UNL     1      41.713 -42.260  64.183  1.00  0.00     0.196 HD
BRANCH  16  21
HETATM   21  C14 UNL     1      43.793 -43.917  63.209  1.00  0.00     0.010 A 
HETATM   22  C15 UNL     1      44.296 -42.631  63.210  1.00  0.00     0.017 A 
HETATM   23  C16 UNL     1      45.562 -42.401  62.713  1.00  0.00     0.021 A 
HETATM   24  C17 UNL     1      46.352 -43.420  62.207  1.00  0.00     0.017 A 
HETATM   25  C26 UNL     1      45.859 -44.706  62.202  1.00  0.00     0.021 A 
HETATM   26  C27 UNL     1      44.592 -44.920  62.703  1.00  0.00     0.017 A 
BRANCH  24  27
HETATM   27  C18 UNL     1      47.670 -43.190  61.689  1.00  0.00    -0.064 C 
HETATM   28  C19 UNL     1      48.777 -43.001  61.232  1.00  0.00    -0.063 C 
BRANCH  28  29
HETATM   29  C20 UNL     1      50.118 -42.778  60.650  1.00  0.00     0.121 C 
HETATM   30  C21 UNL     1      50.006 -42.074  59.311  1.00  0.00     0.051 C 
HETATM   31  C22 UNL     1      49.814 -43.052  58.170  1.00  0.00     0.004 C 
HETATM   32  C23 UNL     1      51.066 -43.882  58.034  1.00  0.00     0.000 C 
HETATM   33  C24 UNL     1      51.816 -43.960  59.348  1.00  0.00     0.004 C 
HETATM   34  C25 UNL     1      50.861 -44.067  60.523  1.00  0.00     0.051 C 
BRANCH  29  35
HETATM   35  O2  UNL     1      50.788 -41.931  61.506  1.00  0.00    -0.378 OA
ATOM     36  H2  UNL     1      51.313 -41.353  60.965  1.00  0.00     0.211 HD
ENDBRANCH  29  35
ENDBRANCH  28  29
ENDBRANCH  24  27
ENDBRANCH  16  21
ENDBRANCH  12  14
BRANCH   1  37
HETATM   37  C2  UNL     1      40.835 -48.900  66.878  1.00  0.00     0.156 C 
BRANCH  37  38
HETATM   38  N1  UNL     1      40.418 -48.352  68.122  1.00  0.00    -0.341 N 
HETATM   39  C1  UNL     1      39.376 -48.687  68.993  1.00  0.00     0.318 C 
HETATM   40  O1  UNL     1      38.543 -49.598  68.864  1.00  0.00    -0.247 OA
HETATM   41  N5  UNL     1      39.209 -47.900  70.209  1.00  0.00    -0.330 N 
HETATM   42  C28 UNL     1      40.093 -46.807  70.499  1.00  0.00     0.153 C 
HETATM   43  C31 UNL     1      38.151 -48.233  71.119  1.00  0.00     0.153 C 
HETATM   44  C29 UNL     1      39.636 -46.168  71.791  1.00  0.00     0.187 C 
HETATM   45  O5  UNL     1      38.279 -45.885  71.675  1.00  0.00    -0.388 OA
HETATM   46  C30 UNL     1      37.538 -47.045  71.810  1.00  0.00     0.187 C 
ATOM     47  H1  UNL     1      40.986 -47.566  68.440  1.00  0.00     0.164 HD
ENDBRANCH  37  38
ENDBRANCH   1  37
TORSDOF 7
ENDMDL
MODEL 3
REMARK VINA RESULT: -8.155863602      2.561      5.340
REMARK  7 active torsions:
REMARK  status: ('A' for Active; 'I' for Inactive)
REMARK       I    between atoms: C1_2  and  N1_3 
REMARK       I    between atoms: C1_2  and  N5_42 
REMARK    1  A    between atoms: N1_3  and  C2_5 
REMARK    2  A    between atoms: C2_5  and  C3_6 
REMARK    3  A    between atoms: C11_17  and  C12_18 
REMARK    4  A    between atoms: C13_21  and  C14_22 
REMARK    5  A    between atoms: C17_25  and  C18_26 
REMARK    6  A    between atoms: C19_27  and  C20_28 
REMARK    7  A    between atoms: C20_28  and  O2_29 
ROOT
HETATM    1  C3  UNL     1      40.086 -48.313  65.312  1.00  0.00     0.140 C 
HETATM    2  C4  UNL     1      40.103 -49.115  66.528  1.00  0.00     0.034 C 
HETATM    3  C5  UNL     1      41.472 -49.639  66.921  1.00  0.00     0.014 C 
HETATM    4  C6  UNL     1      42.221 -48.523  67.602  1.00  0.00    -0.012 C 
HETATM    5  C7  UNL     1      43.689 -48.836  67.768  1.00  0.00     0.039 C 
HETATM    6  C8  UNL     1      44.081 -48.014  68.996  1.00  0.00     0.233 C 
HETATM    7  N2  UNL     1      42.860 -47.590  69.608  1.00  0.00    -0.074 N 
ATOM      8  H21 UNL     1      42.708 -46.585  69.530  1.00  0.00     0.277 HD
ATOM      9  H22 UNL     1      42.890 -47.645  70.626  1.00  0.00     0.277 HD
HETATM   10  C9  UNL     1      41.790 -48.355  69.045  1.00  0.00     0.241 C 
HETATM   11  C10 UNL     1      41.974 -47.251  66.866  1.00  0.00     0.051 C 
HETATM   12  C11 UNL     1      42.246 -47.428  65.412  1.00  0.00     0.200 C 
HETATM   13  O4  UNL     1      41.288 -48.046  64.672  1.00  0.00    -0.371 OA
ENDROOT
BRANCH  12  14
HETATM   14  C12 UNL     1      42.645 -46.099  64.876  1.00  0.00     0.177 A 
HETATM   15  N3  UNL     1      43.818 -45.809  64.290  1.00  0.00    -0.321 N 
HETATM   16  C13 UNL     1      43.850 -44.518  63.922  1.00  0.00     0.138 A 
ATOM     17  H3  UNL     1      44.577 -46.475  64.145  1.00  0.00     0.169 HD
HETATM   18  N4  UNL     1      42.662 -44.016  64.297  1.00  0.00    -0.242 N 
HETATM   19  O3  UNL     1      41.961 -44.980  64.863  1.00  0.00    -0.220 OA
ATOM     20  H4  UNL     1      42.353 -43.053  64.166  1.00  0.00     0.196 HD
BRANCH  16  21
HETATM   21  C14 UNL     1      44.932 -43.791  63.258  1.00  0.00     0.010 A 
HETATM   22  C15 UNL     1      44.927 -42.410  63.232  1.00  0.00     0.017 A 
HETATM   23  C16 UNL     1      45.957 -41.743  62.604  1.00  0.00     0.021 A 
HETATM   24  C17 UNL     1      47.004 -42.413  61.992  1.00  0.00     0.017 A 
HETATM   25  C26 UNL     1      47.019 -43.790  62.013  1.00  0.00     0.021 A 
HETATM   26  C27 UNL     1      45.982 -44.443  62.645  1.00  0.00     0.017 A 
BRANCH  24  27
HETATM   27  C18 UNL     1      48.081 -41.726  61.336  1.00  0.00    -0.064 C 
HETATM   28  C19 UNL     1      49.003 -41.162  60.789  1.00  0.00    -0.063 C 
BRANCH  28  29
HETATM   29  C20 UNL     1      50.145 -40.492  60.130  1.00  0.00     0.121 C 
HETATM   30  C21 UNL     1      51.345 -40.454  61.057  1.00  0.00     0.051 C 
HETATM   31  C22 UNL     1      51.322 -39.241  61.965  1.00  0.00     0.004 C 
HETATM   32  C23 UNL     1      51.486 -38.005  61.118  1.00  0.00     0.000 C 
HETATM   33  C24 UNL     1      51.007 -38.245  59.701  1.00  0.00     0.004 C 
HETATM   34  C25 UNL     1      49.767 -39.120  59.679  1.00  0.00     0.051 C 
BRANCH  29  35
HETATM   35  O2  UNL     1      50.489 -41.267  59.043  1.00  0.00    -0.378 OA
ATOM     36  H2  UNL     1      50.743 -40.670  58.350  1.00  0.00     0.211 HD
ENDBRANCH  29  35
ENDBRANCH  28  29
ENDBRANCH  24  27
ENDBRANCH  16  21
ENDBRANCH  12  14
BRANCH   1  37
HETATM   37  C2  UNL     1      39.073 -48.702  64.297  1.00  0.00     0.156 C 
BRANCH  37  38
HETATM   38  N1  UNL     1      38.263 -47.664  63.759  1.00  0.00    -0.341 N 
HETATM   39  C1  UNL     1      38.581 -46.447  63.147  1.00  0.00     0.318 C 
HETATM   40  O1  UNL     1      39.710 -45.985  62.920  1.00  0.00    -0.247 OA
HETATM   41  N5  UNL     1      37.490 -45.587  62.708  1.00  0.00    -0.330 N 
HETATM   42  C28 UNL     1      36.123 -45.980  62.905  1.00  0.00     0.153 C 
HETATM   43  C31 UNL     1      37.795 -44.338  62.071  1.00  0.00     0.153 C 
HETATM   44  C29 UNL     1      35.238 -44.866  62.392  1.00  0.00     0.187 C 
HETATM   45  O5  UNL     1      35.657 -43.679  62.982  1.00  0.00    -0.388 OA
HETATM   46  C30 UNL     1      36.821 -43.234  62.383  1.00  0.00     0.187 C 
ATOM     47  H1  UNL     1      37.261 -47.841  63.833  1.00  0.00     0.164 HD
ENDBRANCH  37  38
ENDBRANCH   1  37
TORSDOF 7
ENDMDL
MODEL 4
REMARK VINA RESULT: -8.117538188      1.137      1.420
REMARK  7 active torsions:
REMARK  status: ('A' for Active; 'I' for Inactive)
REMARK       I    between atoms: C1_2  and  N1_3 
REMARK       I    between atoms: C1_2  and  N5_42 
REMARK    1  A    between atoms: N1_3  and  C2_5 
REMARK    2  A    between atoms: C2_5  and  C3_6 
REMARK    3  A    between atoms: C11_17  and  C12_18 
REMARK    4  A    between atoms: C13_21  and  C14_22 
REMARK    5  A    between atoms: C17_25  and  C18_26 
REMARK    6  A    between atoms: C19_27  and  C20_28 
REMARK    7  A    between atoms: C20_28  and  O2_29 
ROOT
HETATM    1  C3  UNL     1      40.592 -48.008  65.379  1.00  0.00     0.140 C 
HETATM    2  C4  UNL     1      39.525 -48.958  65.097  1.00  0.00     0.034 C 
HETATM    3  C5  UNL     1      38.179 -48.326  64.797  1.00  0.00     0.014 C 
HETATM    4  C6  UNL     1      38.191 -47.856  63.365  1.00  0.00    -0.012 C 
HETATM    5  C7  UNL     1      37.023 -46.952  63.050  1.00  0.00     0.039 C 
HETATM    6  C8  UNL     1      36.820 -47.162  61.548  1.00  0.00     0.233 C 
HETATM    7  N2  UNL     1      37.584 -48.318  61.193  1.00  0.00    -0.074 N 
ATOM      8  H21 UNL     1      38.387 -48.094  60.607  1.00  0.00     0.277 HD
ATOM      9  H22 UNL     1      37.097 -48.924  60.533  1.00  0.00     0.277 HD
HETATM   10  C9  UNL     1      37.952 -48.997  62.397  1.00  0.00     0.241 C 
HETATM   11  C10 UNL     1      39.510 -47.230  63.070  1.00  0.00     0.051 C 
HETATM   12  C11 UNL     1      39.843 -46.204  64.097  1.00  0.00     0.200 C 
HETATM   13  O4  UNL     1      40.319 -46.650  65.290  1.00  0.00    -0.371 OA
ENDROOT
BRANCH  12  14
HETATM   14  C12 UNL     1      40.727 -45.201  63.445  1.00  0.00     0.177 A 
HETATM   15  N3  UNL     1      42.062 -45.132  63.571  1.00  0.00    -0.321 N 
HETATM   16  C13 UNL     1      42.547 -44.108  62.848  1.00  0.00     0.138 A 
ATOM     17  H3  UNL     1      42.627 -45.766  64.135  1.00  0.00     0.169 HD
HETATM   18  N4  UNL     1      41.473 -43.546  62.271  1.00  0.00    -0.242 N 
HETATM   19  O3  UNL     1      40.399 -44.216  62.643  1.00  0.00    -0.220 OA
ATOM     20  H4  UNL     1      41.485 -42.736  61.650  1.00  0.00     0.196 HD
BRANCH  16  21
HETATM   21  C14 UNL     1      43.938 -43.678  62.707  1.00  0.00     0.010 A 
HETATM   22  C15 UNL     1      44.333 -42.443  63.182  1.00  0.00     0.017 A 
HETATM   23  C16 UNL     1      45.650 -42.056  63.042  1.00  0.00     0.021 A 
HETATM   24  C17 UNL     1      46.596 -42.867  62.436  1.00  0.00     0.017 A 
HETATM   25  C26 UNL     1      46.212 -44.100  61.960  1.00  0.00     0.021 A 
HETATM   26  C27 UNL     1      44.892 -44.473  62.108  1.00  0.00     0.017 A 
BRANCH  24  27
HETATM   27  C18 UNL     1      47.968 -42.472  62.287  1.00  0.00    -0.064 C 
HETATM   28  C19 UNL     1      49.132 -42.154  62.175  1.00  0.00    -0.063 C 
BRANCH  28  29
HETATM   29  C20 UNL     1      50.559 -41.784  62.056  1.00  0.00     0.121 C 
HETATM   30  C21 UNL     1      51.086 -41.267  63.381  1.00  0.00     0.051 C 
HETATM   31  C22 UNL     1      50.845 -39.780  63.547  1.00  0.00     0.004 C 
HETATM   32  C23 UNL     1      51.672 -39.044  62.523  1.00  0.00     0.000 C 
HETATM   33  C24 UNL     1      51.957 -39.919  61.319  1.00  0.00     0.004 C 
HETATM   34  C25 UNL     1      50.758 -40.781  60.968  1.00  0.00     0.051 C 
BRANCH  29  35
HETATM   35  O2  UNL     1      51.248 -42.941  61.763  1.00  0.00    -0.378 OA
ATOM     36  H2  UNL     1      51.489 -43.335  62.592  1.00  0.00     0.211 HD
ENDBRANCH  29  35
ENDBRANCH  28  29
ENDBRANCH  24  27
ENDBRANCH  16  21
ENDBRANCH  12  14
BRANCH   1  37
HETATM   37  C2  UNL     1      41.372 -48.264  66.618  1.00  0.00     0.156 C 
BRANCH  37  38
HETATM   38  N1  UNL     1      40.800 -47.830  67.845  1.00  0.00    -0.341 N 
HETATM   39  C1  UNL     1      39.864 -48.415  68.705  1.00  0.00     0.318 C 
HETATM   40  O1  UNL     1      39.302 -49.514  68.577  1.00  0.00    -0.247 OA
HETATM   41  N5  UNL     1      39.473 -47.685  69.904  1.00  0.00    -0.330 N 
HETATM   42  C28 UNL     1      40.033 -46.394  70.190  1.00  0.00     0.153 C 
HETATM   43  C31 UNL     1      38.520 -48.272  70.802  1.00  0.00     0.153 C 
HETATM   44  C29 UNL     1      39.398 -45.882  71.463  1.00  0.00     0.187 C 
HETATM   45  O5  UNL     1      38.018 -45.966  71.319  1.00  0.00    -0.388 OA
HETATM   46  C30 UNL     1      37.603 -47.278  71.462  1.00  0.00     0.187 C 
ATOM     47  H1  UNL     1      41.136 -46.919  68.159  1.00  0.00     0.164 HD
ENDBRANCH  37  38
ENDBRANCH   1  37
TORSDOF 7
ENDMDL
MODEL 5
REMARK VINA RESULT: -8.089040891      1.023      1.445
REMARK  7 active torsions:
REMARK  status: ('A' for Active; 'I' for Inactive)
REMARK       I    between atoms: C1_2  and  N1_3 
REMARK       I    between atoms: C1_2  and  N5_42 
REMARK    1  A    between atoms: N1_3  and  C2_5 
REMARK    2  A    between atoms: C2_5  and  C3_6 
REMARK    3  A    between atoms: C11_17  and  C12_18 
REMARK    4  A    between atoms: C13_21  and  C14_22 
REMARK    5  A    between atoms: C17_25  and  C18_26 
REMARK    6  A    between atoms: C19_27  and  C20_28 
REMARK    7  A    between atoms: C20_28  and  O2_29 
ROOT
HETATM    1  C3  UNL     1      40.413 -48.011  65.519  1.00  0.00     0.140 C 
HETATM    2  C4  UNL     1      39.431 -48.995  65.083  1.00  0.00     0.034 C 
HETATM    3  C5  UNL     1      38.074 -48.418  64.726  1.00  0.00     0.014 C 
HETATM    4  C6  UNL     1      38.164 -47.838  63.338  1.00  0.00    -0.012 C 
HETATM    5  C7  UNL     1      36.969 -46.979  62.998  1.00  0.00     0.039 C 
HETATM    6  C8  UNL     1      36.892 -47.082  61.474  1.00  0.00     0.233 C 
HETATM    7  N2  UNL     1      37.751 -48.161  61.096  1.00  0.00    -0.074 N 
ATOM      8  H21 UNL     1      38.580 -47.847  60.593  1.00  0.00     0.277 HD
ATOM      9  H22 UNL     1      37.353 -48.740  60.356  1.00  0.00     0.277 HD
HETATM   10  C9  UNL     1      38.070 -48.911  62.272  1.00  0.00     0.241 C 
HETATM   11  C10 UNL     1      39.460 -47.117  63.194  1.00  0.00     0.051 C 
HETATM   12  C11 UNL     1      39.651 -46.157  64.318  1.00  0.00     0.200 C 
HETATM   13  O4  UNL     1      40.063 -46.669  65.509  1.00  0.00    -0.371 OA
ENDROOT
BRANCH  12  14
HETATM   14  C12 UNL     1      40.516 -45.058  63.814  1.00  0.00     0.177 A 
HETATM   15  N3  UNL     1      41.837 -45.140  63.588  1.00  0.00    -0.321 N 
HETATM   16  C13 UNL     1      42.308 -43.966  63.135  1.00  0.00     0.138 A 
ATOM     17  H3  UNL     1      42.403 -45.975  63.740  1.00  0.00     0.169 HD
HETATM   18  N4  UNL     1      41.239 -43.155  63.087  1.00  0.00    -0.242 N 
HETATM   19  O3  UNL     1      40.182 -43.830  63.497  1.00  0.00    -0.220 OA
ATOM     20  H4  UNL     1      41.243 -42.180  62.785  1.00  0.00     0.196 HD
BRANCH  16  21
HETATM   21  C14 UNL     1      43.682 -43.621  62.770  1.00  0.00     0.010 A 
HETATM   22  C15 UNL     1      44.473 -44.538  62.106  1.00  0.00     0.017 A 
HETATM   23  C16 UNL     1      45.765 -44.193  61.768  1.00  0.00     0.021 A 
HETATM   24  C17 UNL     1      46.302 -42.953  62.073  1.00  0.00     0.017 A 
HETATM   25  C26 UNL     1      45.520 -42.032  62.734  1.00  0.00     0.021 A 
HETATM   26  C27 UNL     1      44.230 -42.391  63.066  1.00  0.00     0.017 A 
BRANCH  24  27
HETATM   27  C18 UNL     1      47.645 -42.587  61.724  1.00  0.00    -0.064 C 
HETATM   28  C19 UNL     1      48.773 -42.273  61.410  1.00  0.00    -0.063 C 
BRANCH  28  29
HETATM   29  C20 UNL     1      50.140 -41.887  61.002  1.00  0.00     0.121 C 
HETATM   30  C21 UNL     1      50.357 -40.400  61.211  1.00  0.00     0.051 C 
HETATM   31  C22 UNL     1      49.907 -39.587  60.015  1.00  0.00     0.004 C 
HETATM   32  C23 UNL     1      50.803 -39.918  58.847  1.00  0.00     0.000 C 
HETATM   33  C24 UNL     1      51.402 -41.301  58.991  1.00  0.00     0.004 C 
HETATM   34  C25 UNL     1      50.401 -42.277  59.584  1.00  0.00     0.051 C 
BRANCH  29  35
HETATM   35  O2  UNL     1      51.009 -42.551  61.840  1.00  0.00    -0.378 OA
ATOM     36  H2  UNL     1      51.843 -42.601  61.388  1.00  0.00     0.211 HD
ENDBRANCH  29  35
ENDBRANCH  28  29
ENDBRANCH  24  27
ENDBRANCH  16  21
ENDBRANCH  12  14
BRANCH   1  37
HETATM   37  C2  UNL     1      41.112 -48.319  66.793  1.00  0.00     0.156 C 
BRANCH  37  38
HETATM   38  N1  UNL     1      40.409 -48.052  68.000  1.00  0.00    -0.341 N 
HETATM   39  C1  UNL     1      40.310 -46.905  68.794  1.00  0.00     0.318 C 
HETATM   40  O1  UNL     1      40.842 -45.800  68.600  1.00  0.00    -0.247 OA
HETATM   41  N5  UNL     1      39.499 -46.966  70.003  1.00  0.00    -0.330 N 
HETATM   42  C28 UNL     1      38.822 -48.179  70.368  1.00  0.00     0.153 C 
HETATM   43  C31 UNL     1      39.379 -45.798  70.827  1.00  0.00     0.153 C 
HETATM   44  C29 UNL     1      38.112 -47.939  71.681  1.00  0.00     0.187 C 
HETATM   45  O5  UNL     1      39.036 -47.422  72.582  1.00  0.00    -0.388 OA
HETATM   46  C30 UNL     1      39.283 -46.091  72.300  1.00  0.00     0.187 C 
ATOM     47  H1  UNL     1      39.876 -48.846  68.353  1.00  0.00     0.164 HD
ENDBRANCH  37  38
ENDBRANCH   1  37
TORSDOF 7
ENDMDL
