MODEL 1
REMARK VINA RESULT: -8.201101260      0.000      0.000
REMARK  8 active torsions:
REMARK  status: ('A' for Active; 'I' for Inactive)
REMARK    1  A    between atoms: N1_4  and  C4_5 
REMARK    2  A    between atoms: C4_5  and  C5_6 
REMARK    3  A    between atoms: C6_9  and  N3_10 
REMARK    4  A    between atoms: N5_16  and  N6_18 
REMARK    5  A    between atoms: N6_18  and  C8_20 
REMARK    6  A    between atoms: C9_25  and  C10_26 
REMARK    7  A    between atoms: C10_26  and  N9_27 
REMARK    8  A    between atoms: C10_26  and  O1_31 
ROOT
HETATM    1  C5  UNL     1      41.233  33.319  64.736  1.00  0.00     0.090 A 
HETATM    2  N2  UNL     1      40.692  34.510  64.918  1.00  0.00    -0.188 N 
ATOM      3  H2  UNL     1      40.707  34.879  65.869  1.00  0.00     0.184 HD
HETATM    4  C6  UNL     1      40.127  35.280  63.984  1.00  0.00     0.678 A 
HETATM    5  N4  UNL     1      39.995  35.009  62.696  1.00  0.00    -0.169 N 
ATOM      6  H4  UNL     1      39.535  35.716  62.121  1.00  0.00     0.186 HD
HETATM    7  C7  UNL     1      40.410  33.891  62.068  1.00  0.00     0.180 A 
HETATM    8  N5  UNL     1      40.273  33.654  60.826  1.00  0.00    -0.265 N 
ATOM      9  H5  UNL     1      40.623  32.773  60.450  1.00  0.00     0.189 HD
HETATM   10  S1  UNL     1      41.170  32.765  63.113  1.00  0.00    -0.036 SA
ENDROOT
BRANCH   8  11
HETATM   11  N6  UNL     1      39.658  34.561  59.963  1.00  0.00    -0.129 N 
ATOM     12  H6  UNL     1      38.722  34.917  60.157  1.00  0.00     0.205 HD
BRANCH  11  13
HETATM   13  C8  UNL     1      40.311  34.941  58.900  1.00  0.00     0.713 A 
HETATM   14  N7  UNL     1      40.566  36.198  58.502  1.00  0.00    -0.129 N 
HETATM   15  N8  UNL     1      41.255  36.117  57.377  1.00  0.00    -0.271 N 
ATOM     16  H7  UNL     1      40.281  37.054  58.979  1.00  0.00     0.205 HD
HETATM   17  C9  UNL     1      41.448  34.831  57.043  1.00  0.00     0.169 A 
ATOM     18  H8  UNL     1      41.592  36.917  56.841  1.00  0.00     0.189 HD
HETATM   19  N10 UNL     1      40.853  34.106  58.003  1.00  0.00    -0.172 N 
ATOM     20  H10 UNL     1      40.819  33.087  58.043  1.00  0.00     0.185 HD
BRANCH  17  21
HETATM   21  C10 UNL     1      42.178  34.293  55.843  1.00  0.00     0.386 C 
BRANCH  21  22
HETATM   22  N9  UNL     1      43.001  33.155  56.182  1.00  0.00    -0.046 N 
ATOM     23  H93 UNL     1      43.837  33.115  55.598  1.00  0.00     0.277 HD
ATOM     24  H92 UNL     1      43.447  33.277  57.091  1.00  0.00     0.277 HD
ATOM     25  H91 UNL     1      42.477  32.281  56.138  1.00  0.00     0.277 HD
ENDBRANCH  21  22
BRANCH  21  26
HETATM   26  O1  UNL     1      43.003  35.295  55.376  1.00  0.00    -0.364 OA
ATOM     27  H1  UNL     1      43.854  34.909  55.208  1.00  0.00     0.212 HD
ENDBRANCH  21  26
ENDBRANCH  17  21
ENDBRANCH  11  13
ENDBRANCH   8  11
BRANCH   4  28
HETATM   28  N3  UNL     1      39.662  36.418  64.415  1.00  0.00    -0.234 N 
ATOM     29  H32 UNL     1      39.834  36.662  65.390  1.00  0.00     0.174 HD
ATOM     30  H31 UNL     1      39.159  36.970  63.721  1.00  0.00     0.174 HD
ENDBRANCH   4  28
BRANCH   1  31
HETATM   31  C4  UNL     1      41.852  32.495  65.803  1.00  0.00     0.215 C 
BRANCH  31  32
HETATM   32  N1  UNL     1      40.922  32.048  66.791  1.00  0.00    -0.281 N 
HETATM   33  C3  UNL     1      40.890  32.254  68.121  1.00  0.00     0.138 A 
HETATM   34  C2  UNL     1      39.787  31.612  68.646  1.00  0.00     0.040 A 
HETATM   35  C1  UNL     1      39.430  31.620  70.078  1.00  0.00     0.071 C 
HETATM   36  N12 UNL     1      39.178  31.032  67.618  1.00  0.00    -0.289 N 
HETATM   37  N11 UNL     1      39.860  31.299  66.534  1.00  0.00    -0.240 N 
ATOM     38  H12 UNL     1      38.325  30.474  67.666  1.00  0.00     0.188 HD
ATOM     39  H11 UNL     1      39.605  30.970  65.603  1.00  0.00     0.208 HD
ENDBRANCH  31  32
ENDBRANCH   1  31
TORSDOF 8
ENDMDL
MODEL 2
REMARK VINA RESULT: -7.862388551      1.192      1.263
REMARK  8 active torsions:
REMARK  status: ('A' for Active; 'I' for Inactive)
REMARK    1  A    between atoms: N1_4  and  C4_5 
REMARK    2  A    between atoms: C4_5  and  C5_6 
REMARK    3  A    between atoms: C6_9  and  N3_10 
REMARK    4  A    between atoms: N5_16  and  N6_18 
REMARK    5  A    between atoms: N6_18  and  C8_20 
REMARK    6  A    between atoms: C9_25  and  C10_26 
REMARK    7  A    between atoms: C10_26  and  N9_27 
REMARK    8  A    between atoms: C10_26  and  O1_31 
ROOT
HETATM    1  C5  UNL     1      41.732  33.179  64.769  1.00  0.00     0.090 A 
HETATM    2  N2  UNL     1      40.783  34.075  64.967  1.00  0.00    -0.188 N 
ATOM      3  H2  UNL     1      40.221  33.967  65.812  1.00  0.00     0.184 HD
HETATM    4  C6  UNL     1      40.485  35.109  64.176  1.00  0.00     0.678 A 
HETATM    5  N4  UNL     1      41.075  35.443  63.039  1.00  0.00    -0.169 N 
ATOM      6  H4  UNL     1      40.717  36.269  62.561  1.00  0.00     0.186 HD
HETATM    7  C7  UNL     1      42.102  34.798  62.453  1.00  0.00     0.180 A 
HETATM    8  N5  UNL     1      42.654  35.139  61.360  1.00  0.00    -0.265 N 
ATOM      9  H5  UNL     1      43.428  34.580  61.001  1.00  0.00     0.189 HD
HETATM   10  S1  UNL     1      42.634  33.425  63.331  1.00  0.00    -0.036 SA
ENDROOT
BRANCH   8  11
HETATM   11  N6  UNL     1      42.233  36.255  60.635  1.00  0.00    -0.129 N 
ATOM     12  H6  UNL     1      42.321  37.194  61.023  1.00  0.00     0.205 HD
BRANCH  11  13
HETATM   13  C8  UNL     1      41.725  36.065  59.449  1.00  0.00     0.713 A 
HETATM   14  N7  UNL     1      40.520  36.455  59.003  1.00  0.00    -0.129 N 
HETATM   15  N8  UNL     1      40.422  36.055  57.748  1.00  0.00    -0.271 N 
ATOM     16  H7  UNL     1      39.813  36.964  59.534  1.00  0.00     0.205 HD
HETATM   17  C9  UNL     1      41.542  35.413  57.376  1.00  0.00     0.169 A 
ATOM     18  H8  UNL     1      39.613  36.211  57.147  1.00  0.00     0.189 HD
HETATM   19  N10 UNL     1      42.349  35.426  58.450  1.00  0.00    -0.172 N 
ATOM     20  H10 UNL     1      43.282  35.017  58.497  1.00  0.00     0.185 HD
BRANCH  17  21
HETATM   21  C10 UNL     1      41.849  34.799  56.039  1.00  0.00     0.386 C 
BRANCH  21  22
HETATM   22  N9  UNL     1      42.730  33.660  56.160  1.00  0.00    -0.046 N 
ATOM     23  H93 UNL     1      42.627  33.026  55.368  1.00  0.00     0.277 HD
ATOM     24  H92 UNL     1      43.705  33.929  56.024  1.00  0.00     0.277 HD
ATOM     25  H91 UNL     1      42.600  33.172  57.047  1.00  0.00     0.277 HD
ENDBRANCH  21  22
BRANCH  21  26
HETATM   26  O1  UNL     1      42.489  35.757  55.280  1.00  0.00    -0.364 OA
ATOM     27  H1  UNL     1      43.232  35.340  54.861  1.00  0.00     0.212 HD
ENDBRANCH  21  26
ENDBRANCH  17  21
ENDBRANCH  11  13
ENDBRANCH   8  11
BRANCH   4  28
HETATM   28  N3  UNL     1      39.501  35.855  64.590  1.00  0.00    -0.234 N 
ATOM     29  H32 UNL     1      39.728  36.654  65.181  1.00  0.00     0.174 HD
ATOM     30  H31 UNL     1      38.576  35.562  64.278  1.00  0.00     0.174 HD
ENDBRANCH   4  28
BRANCH   1  31
HETATM   31  C4  UNL     1      42.031  32.044  65.676  1.00  0.00     0.215 C 
BRANCH  31  32
HETATM   32  N1  UNL     1      41.004  31.794  66.637  1.00  0.00    -0.281 N 
HETATM   33  C3  UNL     1      40.968  32.030  67.962  1.00  0.00     0.138 A 
HETATM   34  C2  UNL     1      39.750  31.610  68.457  1.00  0.00     0.040 A 
HETATM   35  C1  UNL     1      39.354  31.714  69.874  1.00  0.00     0.071 C 
HETATM   36  N12 UNL     1      39.078  31.129  67.417  1.00  0.00    -0.289 N 
HETATM   37  N11 UNL     1      39.832  31.245  66.353  1.00  0.00    -0.240 N 
ATOM     38  H12 UNL     1      38.137  30.737  67.442  1.00  0.00     0.188 HD
ATOM     39  H11 UNL     1      39.552  30.949  65.419  1.00  0.00     0.208 HD
ENDBRANCH  31  32
ENDBRANCH   1  31
TORSDOF 8
ENDMDL
MODEL 3
REMARK VINA RESULT: -7.699961565      2.202      2.649
REMARK  8 active torsions:
REMARK  status: ('A' for Active; 'I' for Inactive)
REMARK    1  A    between atoms: N1_4  and  C4_5 
REMARK    2  A    between atoms: C4_5  and  C5_6 
REMARK    3  A    between atoms: C6_9  and  N3_10 
REMARK    4  A    between atoms: N5_16  and  N6_18 
REMARK    5  A    between atoms: N6_18  and  C8_20 
REMARK    6  A    between atoms: C9_25  and  C10_26 
REMARK    7  A    between atoms: C10_26  and  N9_27 
REMARK    8  A    between atoms: C10_26  and  O1_31 
ROOT
HETATM    1  C5  UNL     1      42.196  35.359  65.813  1.00  0.00     0.090 A 
HETATM    2  N2  UNL     1      40.993  35.860  65.601  1.00  0.00    -0.188 N 
ATOM      3  H2  UNL     1      40.334  35.814  66.379  1.00  0.00     0.184 HD
HETATM    4  C6  UNL     1      40.550  36.421  64.472  1.00  0.00     0.678 A 
HETATM    5  N4  UNL     1      41.222  36.587  63.345  1.00  0.00    -0.169 N 
ATOM      6  H4  UNL     1      40.727  37.038  62.576  1.00  0.00     0.186 HD
HETATM    7  C7  UNL     1      42.498  36.219  63.113  1.00  0.00     0.180 A 
HETATM    8  N5  UNL     1      43.123  36.391  62.020  1.00  0.00    -0.265 N 
ATOM      9  H5  UNL     1      44.090  36.074  61.949  1.00  0.00     0.189 HD
HETATM   10  S1  UNL     1      43.246  35.471  64.462  1.00  0.00    -0.036 SA
ENDROOT
BRANCH   8  11
HETATM   11  N6  UNL     1      42.528  36.999  60.914  1.00  0.00    -0.129 N 
ATOM     12  H6  UNL     1      42.316  37.997  60.917  1.00  0.00     0.205 HD
BRANCH  11  13
HETATM   13  C8  UNL     1      42.250  36.259  59.878  1.00  0.00     0.713 A 
HETATM   14  N7  UNL     1      42.932  35.194  59.425  1.00  0.00    -0.129 N 
HETATM   15  N8  UNL     1      42.295  34.750  58.356  1.00  0.00    -0.271 N 
ATOM     16  H7  UNL     1      43.783  34.803  59.831  1.00  0.00     0.205 HD
HETATM   17  C9  UNL     1      41.214  35.509  58.110  1.00  0.00     0.169 A 
ATOM     18  H8  UNL     1      42.582  33.947  57.798  1.00  0.00     0.189 HD
HETATM   19  N10 UNL     1      41.197  36.449  59.070  1.00  0.00    -0.172 N 
ATOM     20  H10 UNL     1      40.499  37.186  59.167  1.00  0.00     0.185 HD
BRANCH  17  21
HETATM   21  C10 UNL     1      40.216  35.355  56.997  1.00  0.00     0.386 C 
BRANCH  21  22
HETATM   22  N9  UNL     1      39.597  36.614  56.653  1.00  0.00    -0.046 N 
ATOM     23  H93 UNL     1      38.836  36.483  55.986  1.00  0.00     0.277 HD
ATOM     24  H92 UNL     1      39.061  36.990  57.435  1.00  0.00     0.277 HD
ATOM     25  H91 UNL     1      40.278  37.291  56.310  1.00  0.00     0.277 HD
ENDBRANCH  21  22
BRANCH  21  26
HETATM   26  O1  UNL     1      39.230  34.499  57.439  1.00  0.00    -0.364 OA
ATOM     27  H1  UNL     1      39.481  34.197  58.304  1.00  0.00     0.212 HD
ENDBRANCH  21  26
ENDBRANCH  17  21
ENDBRANCH  11  13
ENDBRANCH   8  11
BRANCH   4  28
HETATM   28  N3  UNL     1      39.318  36.842  64.512  1.00  0.00    -0.234 N 
ATOM     29  H32 UNL     1      39.156  37.844  64.414  1.00  0.00     0.174 HD
ATOM     30  H31 UNL     1      38.617  36.113  64.640  1.00  0.00     0.174 HD
ENDBRANCH   4  28
BRANCH   1  31
HETATM   31  C4  UNL     1      42.648  34.744  67.085  1.00  0.00     0.215 C 
BRANCH  31  32
HETATM   32  N1  UNL     1      41.782  33.711  67.560  1.00  0.00    -0.281 N 
HETATM   33  C3  UNL     1      41.360  33.425  68.806  1.00  0.00     0.138 A 
HETATM   34  C2  UNL     1      40.530  32.323  68.754  1.00  0.00     0.040 A 
HETATM   35  C1  UNL     1      39.879  31.724  69.934  1.00  0.00     0.071 C 
HETATM   36  N12 UNL     1      40.472  31.969  67.475  1.00  0.00    -0.289 N 
HETATM   37  N11 UNL     1      41.215  32.797  66.787  1.00  0.00    -0.240 N 
ATOM     38  H12 UNL     1      39.938  31.186  67.096  1.00  0.00     0.188 HD
ATOM     39  H11 UNL     1      41.343  32.745  65.776  1.00  0.00     0.208 HD
ENDBRANCH  31  32
ENDBRANCH   1  31
TORSDOF 8
ENDMDL
MODEL 4
REMARK VINA RESULT: -7.579238606      1.040      1.109
REMARK  8 active torsions:
REMARK  status: ('A' for Active; 'I' for Inactive)
REMARK    1  A    between atoms: N1_4  and  C4_5 
REMARK    2  A    between atoms: C4_5  and  C5_6 
REMARK    3  A    between atoms: C6_9  and  N3_10 
REMARK    4  A    between atoms: N5_16  and  N6_18 
REMARK    5  A    between atoms: N6_18  and  C8_20 
REMARK    6  A    between atoms: C9_25  and  C10_26 
REMARK    7  A    between atoms: C10_26  and  N9_27 
REMARK    8  A    between atoms: C10_26  and  O1_31 
ROOT
HETATM    1  C5  UNL     1      41.239  33.361  64.953  1.00  0.00     0.090 A 
HETATM    2  N2  UNL     1      40.891  34.630  65.056  1.00  0.00    -0.188 N 
ATOM      3  H2  UNL     1      41.045  35.075  65.961  1.00  0.00     0.184 HD
HETATM    4  C6  UNL     1      40.358  35.391  64.096  1.00  0.00     0.678 A 
HETATM    5  N4  UNL     1      40.072  35.031  62.855  1.00  0.00    -0.169 N 
ATOM      6  H4  UNL     1      39.666  35.745  62.251  1.00  0.00     0.186 HD
HETATM    7  C7  UNL     1      40.265  33.812  62.313  1.00  0.00     0.180 A 
HETATM    8  N5  UNL     1      39.982  33.490  61.116  1.00  0.00    -0.265 N 
ATOM      9  H5  UNL     1      40.168  32.537  60.804  1.00  0.00     0.189 HD
HETATM   10  S1  UNL     1      40.950  32.682  63.404  1.00  0.00    -0.036 SA
ENDROOT
BRANCH   8  11
HETATM   11  N6  UNL     1      39.426  34.399  60.216  1.00  0.00    -0.129 N 
ATOM     12  H6  UNL     1      38.436  34.640  60.261  1.00  0.00     0.205 HD
BRANCH  11  13
HETATM   13  C8  UNL     1      40.205  34.932  59.316  1.00  0.00     0.713 A 
HETATM   14  N7  UNL     1      41.193  35.821  59.512  1.00  0.00    -0.129 N 
HETATM   15  N8  UNL     1      41.717  36.085  58.327  1.00  0.00    -0.271 N 
ATOM     16  H7  UNL     1      41.484  36.217  60.406  1.00  0.00     0.205 HD
HETATM   17  C9  UNL     1      41.085  35.384  57.372  1.00  0.00     0.169 A 
ATOM     18  H8  UNL     1      42.491  36.729  58.163  1.00  0.00     0.189 HD
HETATM   19  N10 UNL     1      40.141  34.667  58.004  1.00  0.00    -0.172 N 
ATOM     20  H10 UNL     1      39.484  34.026  57.559  1.00  0.00     0.185 HD
BRANCH  17  21
HETATM   21  C10 UNL     1      41.360  35.387  55.895  1.00  0.00     0.386 C 
BRANCH  21  22
HETATM   22  N9  UNL     1      40.482  36.289  55.186  1.00  0.00    -0.046 N 
ATOM     23  H93 UNL     1      39.658  35.802  54.833  1.00  0.00     0.277 HD
ATOM     24  H92 UNL     1      40.023  36.939  55.824  1.00  0.00     0.277 HD
ATOM     25  H91 UNL     1      40.969  36.783  54.438  1.00  0.00     0.277 HD
ENDBRANCH  21  22
BRANCH  21  26
HETATM   26  O1  UNL     1      41.131  34.110  55.428  1.00  0.00    -0.364 OA
ATOM     27  H1  UNL     1      40.964  34.172  54.495  1.00  0.00     0.212 HD
ENDBRANCH  21  26
ENDBRANCH  17  21
ENDBRANCH  11  13
ENDBRANCH   8  11
BRANCH   4  28
HETATM   28  N3  UNL     1      40.101  36.619  64.445  1.00  0.00    -0.234 N 
ATOM     29  H32 UNL     1      40.001  37.313  63.704  1.00  0.00     0.174 HD
ATOM     30  H31 UNL     1      40.022  36.775  65.450  1.00  0.00     0.174 HD
ENDBRANCH   4  28
BRANCH   1  31
HETATM   31  C4  UNL     1      41.829  32.550  66.046  1.00  0.00     0.215 C 
BRANCH  31  32
HETATM   32  N1  UNL     1      40.867  32.073  66.988  1.00  0.00    -0.281 N 
HETATM   33  C3  UNL     1      40.747  32.300  68.310  1.00  0.00     0.138 A 
HETATM   34  C2  UNL     1      39.649  31.612  68.784  1.00  0.00     0.040 A 
HETATM   35  C1  UNL     1      39.208  31.627  70.192  1.00  0.00     0.071 C 
HETATM   36  N12 UNL     1      39.130  30.984  67.734  1.00  0.00    -0.289 N 
HETATM   37  N11 UNL     1      39.860  31.267  66.686  1.00  0.00    -0.240 N 
ATOM     38  H12 UNL     1      38.304  30.385  67.744  1.00  0.00     0.188 HD
ATOM     39  H11 UNL     1      39.676  30.910  65.748  1.00  0.00     0.208 HD
ENDBRANCH  31  32
ENDBRANCH   1  31
TORSDOF 8
ENDMDL
MODEL 5
REMARK VINA RESULT: -7.525024442      4.709      6.490
REMARK  8 active torsions:
REMARK  status: ('A' for Active; 'I' for Inactive)
REMARK    1  A    between atoms: N1_4  and  C4_5 
REMARK    2  A    between atoms: C4_5  and  C5_6 
REMARK    3  A    between atoms: C6_9  and  N3_10 
REMARK    4  A    between atoms: N5_16  and  N6_18 
REMARK    5  A    between atoms: N6_18  and  C8_20 
REMARK    6  A    between atoms: C9_25  and  C10_26 
REMARK    7  A    between atoms: C10_26  and  N9_27 
REMARK    8  A    between atoms: C10_26  and  O1_31 
ROOT
HETATM    1  C5  UNL     1      44.820  36.458  63.507  1.00  0.00     0.090 A 
HETATM    2  N2  UNL     1      43.670  36.897  63.985  1.00  0.00    -0.188 N 
ATOM      3  H2  UNL     1      43.719  37.600  64.723  1.00  0.00     0.184 HD
HETATM    4  C6  UNL     1      42.449  36.514  63.601  1.00  0.00     0.678 A 
HETATM    5  N4  UNL     1      42.145  35.625  62.670  1.00  0.00    -0.169 N 
ATOM      6  H4  UNL     1      41.154  35.453  62.504  1.00  0.00     0.186 HD
HETATM    7  C7  UNL     1      43.018  34.924  61.920  1.00  0.00     0.180 A 
HETATM    8  N5  UNL     1      42.701  34.074  61.029  1.00  0.00    -0.265 N 
ATOM      9  H5  UNL     1      43.442  33.596  60.516  1.00  0.00     0.189 HD
HETATM   10  S1  UNL     1      44.657  35.280  62.270  1.00  0.00    -0.036 SA
ENDROOT
BRANCH   8  11
HETATM   11  N6  UNL     1      41.372  33.774  60.731  1.00  0.00    -0.129 N 
ATOM     12  H6  UNL     1      40.774  33.310  61.415  1.00  0.00     0.205 HD
BRANCH  11  13
HETATM   13  C8  UNL     1      40.913  34.102  59.555  1.00  0.00     0.713 A 
HETATM   14  N7  UNL     1      39.629  34.215  59.179  1.00  0.00    -0.129 N 
HETATM   15  N8  UNL     1      39.627  34.568  57.906  1.00  0.00    -0.271 N 
ATOM     16  H7  UNL     1      38.810  34.059  59.767  1.00  0.00     0.205 HD
HETATM   17  C9  UNL     1      40.886  34.683  57.453  1.00  0.00     0.169 A 
ATOM     18  H8  UNL     1      38.789  34.730  57.347  1.00  0.00     0.189 HD
HETATM   19  N10 UNL     1      41.681  34.388  58.495  1.00  0.00    -0.172 N 
ATOM     20  H10 UNL     1      42.701  34.384  58.481  1.00  0.00     0.185 HD
BRANCH  17  21
HETATM   21  C10 UNL     1      41.335  35.062  56.069  1.00  0.00     0.386 C 
BRANCH  21  22
HETATM   22  N9  UNL     1      40.539  36.136  55.521  1.00  0.00    -0.046 N 
ATOM     23  H93 UNL     1      40.086  35.855  54.652  1.00  0.00     0.277 HD
ATOM     24  H92 UNL     1      39.708  36.307  56.087  1.00  0.00     0.277 HD
ATOM     25  H91 UNL     1      41.086  36.988  55.396  1.00  0.00     0.277 HD
ENDBRANCH  21  22
BRANCH  21  26
HETATM   26  O1  UNL     1      41.173  33.954  55.263  1.00  0.00    -0.364 OA
ATOM     27  H1  UNL     1      41.811  34.015  54.562  1.00  0.00     0.212 HD
ENDBRANCH  21  26
ENDBRANCH  17  21
ENDBRANCH  11  13
ENDBRANCH   8  11
BRANCH   4  28
HETATM   28  N3  UNL     1      41.466  37.096  64.228  1.00  0.00    -0.234 N 
ATOM     29  H32 UNL     1      41.589  37.296  65.220  1.00  0.00     0.174 HD
ATOM     30  H31 UNL     1      40.649  37.301  63.653  1.00  0.00     0.174 HD
ENDBRANCH   4  28
BRANCH   1  31
HETATM   31  C4  UNL     1      46.157  36.911  63.962  1.00  0.00     0.215 C 
BRANCH  31  32
HETATM   32  N1  UNL     1      46.435  38.277  63.647  1.00  0.00    -0.281 N 
HETATM   33  C3  UNL     1      46.521  38.903  62.458  1.00  0.00     0.138 A 
HETATM   34  C2  UNL     1      46.814  40.234  62.674  1.00  0.00     0.040 A 
HETATM   35  C1  UNL     1      46.982  41.228  61.597  1.00  0.00     0.071 C 
HETATM   36  N12 UNL     1      46.898  40.381  63.991  1.00  0.00    -0.289 N 
HETATM   37  N11 UNL     1      46.672  39.219  64.549  1.00  0.00    -0.240 N 
ATOM     38  H12 UNL     1      47.103  41.250  64.484  1.00  0.00     0.188 HD
ATOM     39  H11 UNL     1      46.678  39.056  65.555  1.00  0.00     0.208 HD
ENDBRANCH  31  32
ENDBRANCH   1  31
TORSDOF 8
ENDMDL
