MODEL 1
REMARK VINA RESULT: -7.451625289      0.000      0.000
REMARK  8 active torsions:
REMARK  status: ('A' for Active; 'I' for Inactive)
REMARK    1  A    between atoms: C2_2  and  O1_4 
REMARK    2  A    between atoms: C2_2  and  C4_6 
REMARK    3  A    between atoms: C5_11  and  N3_12 
REMARK    4  A    between atoms: N3_12  and  N4_13 
REMARK    5  A    between atoms: N4_13  and  C6_15 
REMARK    6  A    between atoms: C7_18  and  N6_19 
REMARK    7  A    between atoms: C12_27  and  N8_28 
REMARK    8  A    between atoms: N10_33  and  N11_34 
ROOT
HETATM    1  C6  UNL     1      41.801  34.445  56.394  1.00  0.00     0.736 A 
HETATM    2  N5  UNL     1      42.141  34.462  57.712  1.00  0.00    -0.019 N 
ATOM      3  H5  UNL     1      42.883  33.841  58.032  1.00  0.00     0.203 HD
HETATM    4  C7  UNL     1      41.545  35.256  58.601  1.00  0.00     0.709 A 
HETATM    5  N7  UNL     1      40.561  36.058  58.094  1.00  0.00    -0.022 N 
ATOM      6  H7  UNL     1      40.071  36.685  58.733  1.00  0.00     0.203 HD
HETATM    7  C12 UNL     1      40.205  36.062  56.805  1.00  0.00     0.705 A 
HETATM    8  N9  UNL     1      40.846  35.234  55.945  1.00  0.00    -0.019 N 
ATOM      9  H9  UNL     1      40.591  35.221  54.958  1.00  0.00     0.203 HD
ENDROOT
BRANCH   1  10
HETATM   10  N4  UNL     1      42.446  33.657  55.609  1.00  0.00    -0.060 N 
ATOM     11  H4  UNL     1      42.307  33.766  54.604  1.00  0.00     0.221 HD
BRANCH  10  12
HETATM   12  N3  UNL     1      43.268  32.725  56.013  1.00  0.00    -0.269 NA
BRANCH  12  13
HETATM   13  C5  UNL     1      44.127  31.757  56.443  1.00  0.00     0.319 A 
HETATM   14  N2  UNL     1      44.194  30.455  56.007  1.00  0.00    -0.255 N 
HETATM   15  N1  UNL     1      45.107  29.805  56.657  1.00  0.00    -0.281 N 
ATOM     16  H2  UNL     1      43.606  30.056  55.275  1.00  0.00     0.191 HD
HETATM   17  C4  UNL     1      45.685  30.636  57.544  1.00  0.00     0.156 A 
ATOM     18  H1  UNL     1      45.349  28.824  56.519  1.00  0.00     0.188 HD
HETATM   19  N10 UNL     1      45.093  31.814  57.413  1.00  0.00    -0.200 N 
BRANCH  17  20
HETATM   20  C2  UNL     1      46.776  30.284  58.478  1.00  0.00     0.112 C 
HETATM   21  C1  UNL     1      46.754  28.853  58.934  1.00  0.00     0.054 C 
HETATM   22  C3  UNL     1      48.132  30.672  57.950  1.00  0.00     0.054 C 
BRANCH  20  23
HETATM   23  O1  UNL     1      46.601  31.056  59.640  1.00  0.00    -0.383 OA
ATOM     24  H1  UNL     1      47.017  31.890  59.459  1.00  0.00     0.211 HD
ENDBRANCH  20  23
ENDBRANCH  17  20
BRANCH  19  25
HETATM   25  N11 UNL     1      45.353  32.971  58.116  1.00  0.00    -0.333 N 
ATOM     26 2H11 UNL     1      46.186  33.533  57.941  1.00  0.00     0.177 HD
ATOM     27 1H11 UNL     1      44.788  33.394  58.851  1.00  0.00     0.177 HD
ENDBRANCH  19  25
ENDBRANCH  12  13
ENDBRANCH  10  12
ENDBRANCH   1  10
BRANCH   4  28
HETATM   28  N6  UNL     1      41.843  35.328  59.980  1.00  0.00    -0.213 N 
HETATM   29  C8  UNL     1      41.509  34.191  60.827  1.00  0.00     0.167 C 
HETATM   30  C9  UNL     1      41.020  34.729  62.163  1.00  0.00     0.188 C 
HETATM   31  O2  UNL     1      42.000  35.547  62.736  1.00  0.00    -0.388 OA
HETATM   32  C10 UNL     1      42.197  36.687  62.008  1.00  0.00     0.188 C 
HETATM   33  C11 UNL     1      42.468  36.472  60.550  1.00  0.00     0.167 C 
ENDBRANCH   4  28
BRANCH   7  34
HETATM   34  N8  UNL     1      39.278  36.821  56.348  1.00  0.00    -0.234 N 
ATOM     35  H82 UNL     1      39.501  37.452  55.578  1.00  0.00     0.174 HD
ATOM     36  H81 UNL     1      38.330  36.816  56.724  1.00  0.00     0.174 HD
ENDBRANCH   7  34
TORSDOF 8
ENDMDL
MODEL 2
REMARK VINA RESULT: -7.289815420      4.374      6.950
REMARK  8 active torsions:
REMARK  status: ('A' for Active; 'I' for Inactive)
REMARK    1  A    between atoms: C2_2  and  O1_4 
REMARK    2  A    between atoms: C2_2  and  C4_6 
REMARK    3  A    between atoms: C5_11  and  N3_12 
REMARK    4  A    between atoms: N3_12  and  N4_13 
REMARK    5  A    between atoms: N4_13  and  C6_15 
REMARK    6  A    between atoms: C7_18  and  N6_19 
REMARK    7  A    between atoms: C12_27  and  N8_28 
REMARK    8  A    between atoms: N10_33  and  N11_34 
ROOT
HETATM    1  C6  UNL     1      40.566  33.983  63.228  1.00  0.00     0.736 A 
HETATM    2  N5  UNL     1      41.358  33.582  64.259  1.00  0.00    -0.019 N 
ATOM      3  H5  UNL     1      41.844  32.689  64.181  1.00  0.00     0.203 HD
HETATM    4  C7  UNL     1      41.527  34.305  65.365  1.00  0.00     0.709 A 
HETATM    5  N7  UNL     1      40.842  35.488  65.394  1.00  0.00    -0.022 N 
ATOM      6  H7  UNL     1      40.935  36.081  66.219  1.00  0.00     0.203 HD
HETATM    7  C12 UNL     1      40.056  35.908  64.397  1.00  0.00     0.705 A 
HETATM    8  N9  UNL     1      39.922  35.132  63.295  1.00  0.00    -0.019 N 
ATOM      9  H9  UNL     1      39.327  35.433  62.523  1.00  0.00     0.203 HD
ENDROOT
BRANCH   1  10
HETATM   10  N4  UNL     1      40.480  33.225  62.193  1.00  0.00    -0.060 N 
ATOM     11  H4  UNL     1      40.473  32.216  62.341  1.00  0.00     0.221 HD
BRANCH  10  12
HETATM   12  N3  UNL     1      40.403  33.662  60.964  1.00  0.00    -0.269 NA
BRANCH  12  13
HETATM   13  C5  UNL     1      40.324  34.128  59.685  1.00  0.00     0.319 A 
HETATM   14  N2  UNL     1      39.237  34.063  58.845  1.00  0.00    -0.255 N 
HETATM   15  N1  UNL     1      39.525  34.574  57.690  1.00  0.00    -0.281 N 
ATOM     16  H2  UNL     1      38.330  33.669  59.097  1.00  0.00     0.191 HD
HETATM   17  C4  UNL     1      40.802  34.998  57.709  1.00  0.00     0.156 A 
ATOM     18  H1  UNL     1      38.888  34.643  56.897  1.00  0.00     0.188 HD
HETATM   19  N10 UNL     1      41.283  34.729  58.913  1.00  0.00    -0.200 N 
BRANCH  17  20
HETATM   20  C2  UNL     1      41.516  35.645  56.587  1.00  0.00     0.112 C 
HETATM   21  C1  UNL     1      42.579  34.787  55.961  1.00  0.00     0.054 C 
HETATM   22  C3  UNL     1      40.576  36.198  55.549  1.00  0.00     0.054 C 
BRANCH  20  23
HETATM   23  O1  UNL     1      42.190  36.765  57.106  1.00  0.00    -0.383 OA
ATOM     24  H1  UNL     1      42.343  37.338  56.363  1.00  0.00     0.211 HD
ENDBRANCH  20  23
ENDBRANCH  17  20
BRANCH  19  25
HETATM   25  N11 UNL     1      42.550  34.982  59.392  1.00  0.00    -0.333 N 
ATOM     26 2H11 UNL     1      43.258  35.449  58.824  1.00  0.00     0.177 HD
ATOM     27 1H11 UNL     1      42.926  34.757  60.312  1.00  0.00     0.177 HD
ENDBRANCH  19  25
ENDBRANCH  12  13
ENDBRANCH  10  12
ENDBRANCH   1  10
BRANCH   4  28
HETATM   28  N6  UNL     1      42.330  33.954  66.473  1.00  0.00    -0.213 N 
HETATM   29  C8  UNL     1      41.703  33.291  67.608  1.00  0.00     0.167 C 
HETATM   30  C9  UNL     1      42.346  33.826  68.878  1.00  0.00     0.188 C 
HETATM   31  O2  UNL     1      43.729  33.614  68.838  1.00  0.00    -0.388 OA
HETATM   32  C10 UNL     1      44.328  34.360  67.861  1.00  0.00     0.188 C 
HETATM   33  C11 UNL     1      43.728  34.219  66.496  1.00  0.00     0.167 C 
ENDBRANCH   4  28
BRANCH   7  34
HETATM   34  N8  UNL     1      39.420  37.021  64.443  1.00  0.00    -0.234 N 
ATOM     35  H82 UNL     1      39.836  37.799  64.955  1.00  0.00     0.174 HD
ATOM     36  H81 UNL     1      38.518  37.156  63.986  1.00  0.00     0.174 HD
ENDBRANCH   7  34
TORSDOF 8
ENDMDL
MODEL 3
REMARK VINA RESULT: -7.274570462      0.841      1.300
REMARK  8 active torsions:
REMARK  status: ('A' for Active; 'I' for Inactive)
REMARK    1  A    between atoms: C2_2  and  O1_4 
REMARK    2  A    between atoms: C2_2  and  C4_6 
REMARK    3  A    between atoms: C5_11  and  N3_12 
REMARK    4  A    between atoms: N3_12  and  N4_13 
REMARK    5  A    between atoms: N4_13  and  C6_15 
REMARK    6  A    between atoms: C7_18  and  N6_19 
REMARK    7  A    between atoms: C12_27  and  N8_28 
REMARK    8  A    between atoms: N10_33  and  N11_34 
ROOT
HETATM    1  C6  UNL     1      41.703  34.319  56.391  1.00  0.00     0.736 A 
HETATM    2  N5  UNL     1      41.730  34.024  57.719  1.00  0.00    -0.019 N 
ATOM      3  H5  UNL     1      42.343  33.274  58.040  1.00  0.00     0.203 HD
HETATM    4  C7  UNL     1      40.992  34.673  58.618  1.00  0.00     0.709 A 
HETATM    5  N7  UNL     1      40.197  35.663  58.111  1.00  0.00    -0.022 N 
ATOM      6  H7  UNL     1      39.610  36.192  58.757  1.00  0.00     0.203 HD
HETATM    7  C12 UNL     1      40.150  35.975  56.811  1.00  0.00     0.705 A 
HETATM    8  N9  UNL     1      40.923  35.282  55.941  1.00  0.00    -0.019 N 
ATOM      9  H9  UNL     1      40.902  35.503  54.946  1.00  0.00     0.203 HD
ENDROOT
BRANCH   1  10
HETATM   10  N4  UNL     1      42.466  33.649  55.602  1.00  0.00    -0.060 N 
ATOM     11  H4  UNL     1      42.420  33.855  54.604  1.00  0.00     0.221 HD
BRANCH  10  12
HETATM   12  N3  UNL     1      43.298  32.720  55.995  1.00  0.00    -0.269 NA
BRANCH  12  13
HETATM   13  C5  UNL     1      44.164  31.754  56.413  1.00  0.00     0.319 A 
HETATM   14  N2  UNL     1      44.257  30.465  55.944  1.00  0.00    -0.255 N 
HETATM   15  N1  UNL     1      45.169  29.811  56.591  1.00  0.00    -0.281 N 
ATOM     16  H2  UNL     1      43.688  30.077  55.191  1.00  0.00     0.191 HD
HETATM   17  C4  UNL     1      45.719  30.627  57.510  1.00  0.00     0.156 A 
ATOM     18  H1  UNL     1      45.428  28.838  56.430  1.00  0.00     0.188 HD
HETATM   19  N10 UNL     1      45.112  31.799  57.401  1.00  0.00    -0.200 N 
BRANCH  17  20
HETATM   20  C2  UNL     1      46.800  30.265  58.452  1.00  0.00     0.112 C 
HETATM   21  C1  UNL     1      46.767  28.832  58.901  1.00  0.00     0.054 C 
HETATM   22  C3  UNL     1      48.163  30.650  57.940  1.00  0.00     0.054 C 
BRANCH  20  23
HETATM   23  O1  UNL     1      46.617  31.032  59.617  1.00  0.00    -0.383 OA
ATOM     24  H1  UNL     1      47.088  31.843  59.466  1.00  0.00     0.211 HD
ENDBRANCH  20  23
ENDBRANCH  17  20
BRANCH  19  25
HETATM   25  N11 UNL     1      45.342  32.939  58.139  1.00  0.00    -0.333 N 
ATOM     26 2H11 UNL     1      45.358  32.929  59.158  1.00  0.00     0.177 HD
ATOM     27 1H11 UNL     1      45.519  33.882  57.792  1.00  0.00     0.177 HD
ENDBRANCH  19  25
ENDBRANCH  12  13
ENDBRANCH  10  12
ENDBRANCH   1  10
BRANCH   4  28
HETATM   28  N6  UNL     1      40.967  34.424  60.008  1.00  0.00    -0.213 N 
HETATM   29  C8  UNL     1      42.048  34.948  60.832  1.00  0.00     0.167 C 
HETATM   30  C9  UNL     1      42.367  33.914  61.900  1.00  0.00     0.188 C 
HETATM   31  O2  UNL     1      41.219  33.632  62.650  1.00  0.00    -0.388 OA
HETATM   32  C10 UNL     1      40.266  33.003  61.899  1.00  0.00     0.188 C 
HETATM   33  C11 UNL     1      39.910  33.691  60.617  1.00  0.00     0.167 C 
ENDBRANCH   4  28
BRANCH   7  34
HETATM   34  N8  UNL     1      39.397  36.907  56.353  1.00  0.00    -0.234 N 
ATOM     35  H82 UNL     1      39.707  37.874  56.449  1.00  0.00     0.174 HD
ATOM     36  H81 UNL     1      38.505  36.716  55.897  1.00  0.00     0.174 HD
ENDBRANCH   7  34
TORSDOF 8
ENDMDL
MODEL 4
REMARK VINA RESULT: -7.270220359      4.833      7.187
REMARK  8 active torsions:
REMARK  status: ('A' for Active; 'I' for Inactive)
REMARK    1  A    between atoms: C2_2  and  O1_4 
REMARK    2  A    between atoms: C2_2  and  C4_6 
REMARK    3  A    between atoms: C5_11  and  N3_12 
REMARK    4  A    between atoms: N3_12  and  N4_13 
REMARK    5  A    between atoms: N4_13  and  C6_15 
REMARK    6  A    between atoms: C7_18  and  N6_19 
REMARK    7  A    between atoms: C12_27  and  N8_28 
REMARK    8  A    between atoms: N10_33  and  N11_34 
ROOT
HETATM    1  C6  UNL     1      42.182  36.124  63.220  1.00  0.00     0.736 A 
HETATM    2  N5  UNL     1      42.510  35.307  64.257  1.00  0.00    -0.019 N 
ATOM      3  H5  UNL     1      43.408  34.824  64.233  1.00  0.00     0.203 HD
HETATM    4  C7  UNL     1      41.708  35.110  65.303  1.00  0.00     0.709 A 
HETATM    5  N7  UNL     1      40.523  35.791  65.261  1.00  0.00    -0.022 N 
ATOM      6  H7  UNL     1      39.871  35.676  66.038  1.00  0.00     0.203 HD
HETATM    7  C12 UNL     1      40.174  36.600  64.255  1.00  0.00     0.705 A 
HETATM    8  N9  UNL     1      41.030  36.763  63.217  1.00  0.00    -0.019 N 
ATOM      9  H9  UNL     1      40.783  37.375  62.439  1.00  0.00     0.203 HD
ENDROOT
BRANCH   1  10
HETATM   10  N4  UNL     1      43.030  36.264  62.263  1.00  0.00    -0.060 N 
ATOM     11  H4  UNL     1      44.011  36.394  62.510  1.00  0.00     0.221 HD
BRANCH  10  12
HETATM   12  N3  UNL     1      42.717  36.250  60.994  1.00  0.00    -0.269 NA
BRANCH  12  13
HETATM   13  C5  UNL     1      42.382  36.232  59.673  1.00  0.00     0.319 A 
HETATM   14  N2  UNL     1      43.063  36.827  58.637  1.00  0.00    -0.255 N 
HETATM   15  N1  UNL     1      42.443  36.635  57.516  1.00  0.00    -0.281 N 
ATOM     16  H2  UNL     1      43.936  37.347  58.737  1.00  0.00     0.191 HD
HETATM   17  C4  UNL     1      41.334  35.910  57.752  1.00  0.00     0.156 A 
ATOM     18  H1  UNL     1      42.746  36.976  56.604  1.00  0.00     0.188 HD
HETATM   19  N10 UNL     1      41.298  35.667  59.053  1.00  0.00    -0.200 N 
BRANCH  17  20
HETATM   20  C2  UNL     1      40.352  35.474  56.735  1.00  0.00     0.112 C 
HETATM   21  C1  UNL     1      39.533  36.591  56.155  1.00  0.00     0.054 C 
HETATM   22  C3  UNL     1      40.979  34.632  55.655  1.00  0.00     0.054 C 
BRANCH  20  23
HETATM   23  O1  UNL     1      39.433  34.623  57.376  1.00  0.00    -0.383 OA
ATOM     24  H1  UNL     1      39.635  34.679  58.302  1.00  0.00     0.211 HD
ENDBRANCH  20  23
ENDBRANCH  17  20
BRANCH  19  25
HETATM   25  N11 UNL     1      40.344  34.963  59.754  1.00  0.00    -0.333 N 
ATOM     26 2H11 UNL     1      40.488  33.994  60.038  1.00  0.00     0.177 HD
ATOM     27 1H11 UNL     1      39.430  35.290  60.066  1.00  0.00     0.177 HD
ENDBRANCH  19  25
ENDBRANCH  12  13
ENDBRANCH  10  12
ENDBRANCH   1  10
BRANCH   4  28
HETATM   28  N6  UNL     1      41.979  34.280  66.413  1.00  0.00    -0.213 N 
HETATM   29  C8  UNL     1      41.911  32.835  66.238  1.00  0.00     0.167 C 
HETATM   30  C9  UNL     1      41.310  32.237  67.500  1.00  0.00     0.188 C 
HETATM   31  O2  UNL     1      42.078  32.600  68.612  1.00  0.00    -0.388 OA
HETATM   32  C10 UNL     1      42.012  33.943  68.856  1.00  0.00     0.188 C 
HETATM   33  C11 UNL     1      42.327  34.819  67.683  1.00  0.00     0.167 C 
ENDBRANCH   4  28
BRANCH   7  34
HETATM   34  N8  UNL     1      39.057  37.231  64.232  1.00  0.00    -0.234 N 
ATOM     35  H82 UNL     1      38.759  37.660  63.357  1.00  0.00     0.174 HD
ATOM     36  H81 UNL     1      38.460  37.316  65.055  1.00  0.00     0.174 HD
ENDBRANCH   7  34
TORSDOF 8
ENDMDL
MODEL 5
REMARK VINA RESULT: -7.233763964      4.023      5.580
REMARK  8 active torsions:
REMARK  status: ('A' for Active; 'I' for Inactive)
REMARK    1  A    between atoms: C2_2  and  O1_4 
REMARK    2  A    between atoms: C2_2  and  C4_6 
REMARK    3  A    between atoms: C5_11  and  N3_12 
REMARK    4  A    between atoms: N3_12  and  N4_13 
REMARK    5  A    between atoms: N4_13  and  C6_15 
REMARK    6  A    between atoms: C7_18  and  N6_19 
REMARK    7  A    between atoms: C12_27  and  N8_28 
REMARK    8  A    between atoms: N10_33  and  N11_34 
ROOT
HETATM    1  C6  UNL     1      44.895  31.487  56.551  1.00  0.00     0.736 A 
HETATM    2  N5  UNL     1      44.036  32.526  56.368  1.00  0.00    -0.019 N 
ATOM      3  H5  UNL     1      43.921  32.903  55.427  1.00  0.00     0.203 HD
HETATM    4  C7  UNL     1      43.340  33.072  57.364  1.00  0.00     0.709 A 
HETATM    5  N7  UNL     1      43.550  32.512  58.593  1.00  0.00    -0.022 N 
ATOM      6  H7  UNL     1      43.041  32.893  59.392  1.00  0.00     0.203 HD
HETATM    7  C12 UNL     1      44.388  31.491  58.803  1.00  0.00     0.705 A 
HETATM    8  N9  UNL     1      45.070  30.975  57.753  1.00  0.00    -0.019 N 
ATOM      9  H9  UNL     1      45.715  30.197  57.892  1.00  0.00     0.203 HD
ENDROOT
BRANCH   1  10
HETATM   10  N4  UNL     1      45.510  31.016  55.524  1.00  0.00    -0.060 N 
ATOM     11  H4  UNL     1      45.131  30.177  55.085  1.00  0.00     0.221 HD
BRANCH  10  12
HETATM   12  N3  UNL     1      46.589  31.541  55.007  1.00  0.00    -0.269 NA
BRANCH  12  13
HETATM   13  C5  UNL     1      47.710  32.096  54.465  1.00  0.00     0.319 A 
HETATM   14  N2  UNL     1      48.700  31.448  53.764  1.00  0.00    -0.255 N 
HETATM   15  N1  UNL     1      49.633  32.280  53.423  1.00  0.00    -0.281 N 
ATOM     16  H2  UNL     1      48.699  30.452  53.542  1.00  0.00     0.191 HD
HETATM   17  C4  UNL     1      49.310  33.505  53.876  1.00  0.00     0.156 A 
ATOM     18  H1  UNL     1      50.475  32.044  52.898  1.00  0.00     0.188 HD
HETATM   19  N10 UNL     1      48.150  33.394  54.504  1.00  0.00    -0.200 N 
BRANCH  17  20
HETATM   20  C2  UNL     1      50.112  34.735  53.694  1.00  0.00     0.112 C 
HETATM   21  C1  UNL     1      51.589  34.490  53.568  1.00  0.00     0.054 C 
HETATM   22  C3  UNL     1      49.600  35.594  52.569  1.00  0.00     0.054 C 
BRANCH  20  23
HETATM   23  O1  UNL     1      49.954  35.516  54.853  1.00  0.00    -0.383 OA
ATOM     24  H1  UNL     1      50.679  36.130  54.848  1.00  0.00     0.211 HD
ENDBRANCH  20  23
ENDBRANCH  17  20
BRANCH  19  25
HETATM   25  N11 UNL     1      47.431  34.388  55.131  1.00  0.00    -0.333 N 
ATOM     26 2H11 UNL     1      47.885  35.114  55.685  1.00  0.00     0.177 HD
ATOM     27 1H11 UNL     1      46.421  34.525  55.126  1.00  0.00     0.177 HD
ENDBRANCH  19  25
ENDBRANCH  12  13
ENDBRANCH  10  12
ENDBRANCH   1  10
BRANCH   4  28
HETATM   28  N6  UNL     1      42.433  34.148  57.250  1.00  0.00    -0.213 N 
HETATM   29  C8  UNL     1      41.438  34.338  58.298  1.00  0.00     0.167 C 
HETATM   30  C9  UNL     1      40.144  34.790  57.641  1.00  0.00     0.188 C 
HETATM   31  O2  UNL     1      40.366  35.959  56.904  1.00  0.00    -0.388 OA
HETATM   32  C10 UNL     1      41.183  35.734  55.832  1.00  0.00     0.188 C 
HETATM   33  C11 UNL     1      42.479  35.052  56.152  1.00  0.00     0.167 C 
ENDBRANCH   4  28
BRANCH   7  34
HETATM   34  N8  UNL     1      44.573  30.979  59.965  1.00  0.00    -0.234 N 
ATOM     35  H82 UNL     1      44.547  29.964  60.059  1.00  0.00     0.174 HD
ATOM     36  H81 UNL     1      44.746  31.548  60.794  1.00  0.00     0.174 HD
ENDBRANCH   7  34
TORSDOF 8
ENDMDL
