MODEL 1
REMARK VINA RESULT: -7.995720860      0.000      0.000
REMARK  7 active torsions:
REMARK  status: ('A' for Active; 'I' for Inactive)
REMARK    1  A    between atoms: C2_2  and  O1_3 
REMARK    2  A    between atoms: O1_3  and  C3_4 
REMARK    3  A    between atoms: C5_8  and  N2_9 
REMARK    4  A    between atoms: C11_23  and  C12_24 
REMARK    5  A    between atoms: C12_24  and  O2_25 
REMARK    6  A    between atoms: C12_24  and  N8_27 
REMARK       I    between atoms: N8_27  and  C13_29 
REMARK       I    between atoms: C13_29  and  N10_33 
REMARK    7  A    between atoms: N10_33  and  N11_35 
ROOT
HETATM    1  C3  UNL     1      45.282  31.998  58.606  1.00  0.00     0.174 A 
HETATM    2  N1  UNL     1      44.027  31.836  59.148  1.00  0.00    -0.341 N 
ATOM      3  H1  UNL     1      43.843  31.094  59.824  1.00  0.00     0.167 HD
HETATM    4  C4  UNL     1      43.056  32.672  58.771  1.00  0.00     0.139 A 
HETATM    5  C5  UNL     1      43.286  33.679  57.860  1.00  0.00     0.128 A 
HETATM    6  N7  UNL     1      44.514  33.792  57.367  1.00  0.00    -0.334 N 
ATOM      7  H7  UNL     1      44.688  34.537  56.692  1.00  0.00     0.168 HD
HETATM    8  C11 UNL     1      45.566  32.977  57.701  1.00  0.00     0.137 A 
ENDROOT
BRANCH   8   9
HETATM    9  C12 UNL     1      46.867  33.195  57.098  1.00  0.00     0.186 C 
BRANCH   9  10
HETATM   10  O2  UNL     1      47.795  33.568  57.930  1.00  0.00    -0.344 OA
ATOM     11  H2  UNL     1      48.660  33.655  57.546  1.00  0.00     0.219 HD
ENDBRANCH   9  10
BRANCH   9  12
HETATM   12  N8  UNL     1      47.270  33.068  55.788  1.00  0.00    -0.167 N 
HETATM   13  C13 UNL     1      47.182  31.798  55.113  1.00  0.00     0.692 C 
HETATM   14  N9  UNL     1      47.563  31.682  53.882  1.00  0.00    -0.233 N 
HETATM   15  N10 UNL     1      46.686  30.630  55.738  1.00  0.00    -0.139 N 
ATOM     16  H92 UNL     1      47.920  32.524  53.431  1.00  0.00     0.174 HD
ATOM     17  H91 UNL     1      47.500  30.782  53.404  1.00  0.00     0.174 HD
ATOM     18  H10 UNL     1      47.281  30.148  56.413  1.00  0.00     0.205 HD
ATOM     19  H8  UNL     1      47.635  33.881  55.290  1.00  0.00     0.186 HD
BRANCH  15  20
HETATM   20  N11 UNL     1      45.411  30.104  55.471  1.00  0.00    -0.331 N 
ATOM     21 2H11 UNL     1      44.831  30.597  54.793  1.00  0.00     0.177 HD
ATOM     22 1H11 UNL     1      45.053  29.262  55.923  1.00  0.00     0.177 HD
ENDBRANCH  15  20
ENDBRANCH   9  12
ENDBRANCH   8   9
BRANCH   1  23
HETATM   23  O1  UNL     1      46.287  31.120  59.008  1.00  0.00    -0.334 OA
BRANCH  23  24
HETATM   24  C2  UNL     1      45.947  29.858  59.539  1.00  0.00     0.173 C 
HETATM   25  C1  UNL     1      46.865  28.783  59.048  1.00  0.00     0.034 C 
ENDBRANCH  23  24
ENDBRANCH   1  23
BRANCH   5  26
HETATM   26  N2  UNL     1      42.211  34.542  57.495  1.00  0.00    -0.279 N 
HETATM   27  C6  UNL     1      41.708  34.495  56.150  1.00  0.00     0.200 A 
HETATM   28  N3  UNL     1      42.335  33.567  55.253  1.00  0.00    -0.063 NA
HETATM   29  N4  UNL     1      40.739  35.248  55.754  1.00  0.00    -0.304 N 
HETATM   30  C7  UNL     1      40.135  36.163  56.669  1.00  0.00     0.192 A 
ATOM     31  H4  UNL     1      40.405  35.190  54.792  1.00  0.00     0.171 HD
HETATM   32  N5  UNL     1      39.073  36.962  56.169  1.00  0.00    -0.063 NA
HETATM   33  N6  UNL     1      40.562  36.226  57.868  1.00  0.00    -0.338 N 
HETATM   34  C8  UNL     1      41.625  35.456  58.450  1.00  0.00     0.109 A 
ATOM     35  H6  UNL     1      40.097  36.895  58.481  1.00  0.00     0.164 HD
HETATM   36  C9  UNL     1      42.650  36.449  58.982  1.00  0.00     0.063 C 
HETATM   37  C10 UNL     1      41.004  34.673  59.615  1.00  0.00     0.063 C 
ENDBRANCH   5  26
TORSDOF 7
ENDMDL
MODEL 2
REMARK VINA RESULT: -7.731076717      1.187      1.831
REMARK  7 active torsions:
REMARK  status: ('A' for Active; 'I' for Inactive)
REMARK    1  A    between atoms: C2_2  and  O1_3 
REMARK    2  A    between atoms: O1_3  and  C3_4 
REMARK    3  A    between atoms: C5_8  and  N2_9 
REMARK    4  A    between atoms: C11_23  and  C12_24 
REMARK    5  A    between atoms: C12_24  and  O2_25 
REMARK    6  A    between atoms: C12_24  and  N8_27 
REMARK       I    between atoms: N8_27  and  C13_29 
REMARK       I    between atoms: C13_29  and  N10_33 
REMARK    7  A    between atoms: N10_33  and  N11_35 
ROOT
HETATM    1  C3  UNL     1      45.777  32.155  58.199  1.00  0.00     0.174 A 
HETATM    2  N1  UNL     1      44.562  31.946  58.811  1.00  0.00    -0.341 N 
ATOM      3  H1  UNL     1      44.441  31.192  59.487  1.00  0.00     0.167 HD
HETATM    4  C4  UNL     1      43.543  32.753  58.500  1.00  0.00     0.139 A 
HETATM    5  C5  UNL     1      43.688  33.776  57.590  1.00  0.00     0.128 A 
HETATM    6  N7  UNL     1      44.881  33.935  57.027  1.00  0.00    -0.334 N 
ATOM      7  H7  UNL     1      44.990  34.691  56.353  1.00  0.00     0.168 HD
HETATM    8  C11 UNL     1      45.976  33.152  57.291  1.00  0.00     0.137 A 
ENDROOT
BRANCH   8   9
HETATM    9  C12 UNL     1      47.231  33.418  56.615  1.00  0.00     0.186 C 
BRANCH   9  10
HETATM   10  O2  UNL     1      47.817  34.523  56.976  1.00  0.00    -0.344 OA
ATOM     11  H2  UNL     1      47.255  35.289  56.969  1.00  0.00     0.219 HD
ENDBRANCH   9  10
BRANCH   9  12
HETATM   12  N8  UNL     1      47.898  32.686  55.658  1.00  0.00    -0.167 N 
HETATM   13  C13 UNL     1      48.446  33.331  54.492  1.00  0.00     0.692 C 
HETATM   14  N9  UNL     1      49.070  32.641  53.594  1.00  0.00    -0.233 N 
HETATM   15  N10 UNL     1      48.337  34.723  54.262  1.00  0.00    -0.139 N 
ATOM     16  H92 UNL     1      49.148  31.637  53.759  1.00  0.00     0.174 HD
ATOM     17  H91 UNL     1      49.459  33.097  52.768  1.00  0.00     0.174 HD
ATOM     18  H10 UNL     1      47.438  35.099  53.958  1.00  0.00     0.205 HD
ATOM     19  H8  UNL     1      48.005  31.679  55.776  1.00  0.00     0.186 HD
BRANCH  15  20
HETATM   20  N11 UNL     1      49.412  35.611  54.434  1.00  0.00    -0.331 N 
ATOM     21 2H11 UNL     1      50.054  35.729  53.651  1.00  0.00     0.177 HD
ATOM     22 1H11 UNL     1      49.569  36.130  55.298  1.00  0.00     0.177 HD
ENDBRANCH  15  20
ENDBRANCH   9  12
ENDBRANCH   8   9
BRANCH   1  23
HETATM   23  O1  UNL     1      46.832  31.306  58.531  1.00  0.00    -0.334 OA
BRANCH  23  24
HETATM   24  C2  UNL     1      46.846  29.980  58.050  1.00  0.00     0.173 C 
HETATM   25  C1  UNL     1      47.001  28.988  59.159  1.00  0.00     0.034 C 
ENDBRANCH  23  24
ENDBRANCH   1  23
BRANCH   5  26
HETATM   26  N2  UNL     1      42.566  34.606  57.297  1.00  0.00    -0.279 N 
HETATM   27  C6  UNL     1      41.873  34.427  56.052  1.00  0.00     0.200 A 
HETATM   28  N3  UNL     1      42.368  33.405  55.173  1.00  0.00    -0.063 NA
HETATM   29  N4  UNL     1      40.852  35.143  55.725  1.00  0.00    -0.304 N 
HETATM   30  C7  UNL     1      40.382  36.153  56.618  1.00  0.00     0.192 A 
ATOM     31  H4  UNL     1      40.383  34.989  54.833  1.00  0.00     0.171 HD
HETATM   32  N5  UNL     1      39.254  36.906  56.198  1.00  0.00    -0.063 NA
HETATM   33  N6  UNL     1      40.978  36.335  57.731  1.00  0.00    -0.338 N 
HETATM   34  C8  UNL     1      42.120  35.620  58.228  1.00  0.00     0.109 A 
ATOM     35  H6  UNL     1      40.604  37.068  58.332  1.00  0.00     0.164 HD
HETATM   36  C9  UNL     1      43.205  36.652  58.500  1.00  0.00     0.063 C 
HETATM   37  C10 UNL     1      41.679  34.966  59.545  1.00  0.00     0.063 C 
ENDBRANCH   5  26
TORSDOF 7
ENDMDL
MODEL 3
REMARK VINA RESULT: -7.687464476      9.301     11.519
REMARK  7 active torsions:
REMARK  status: ('A' for Active; 'I' for Inactive)
REMARK    1  A    between atoms: C2_2  and  O1_3 
REMARK    2  A    between atoms: O1_3  and  C3_4 
REMARK    3  A    between atoms: C5_8  and  N2_9 
REMARK    4  A    between atoms: C11_23  and  C12_24 
REMARK    5  A    between atoms: C12_24  and  O2_25 
REMARK    6  A    between atoms: C12_24  and  N8_27 
REMARK       I    between atoms: N8_27  and  C13_29 
REMARK       I    between atoms: C13_29  and  N10_33 
REMARK    7  A    between atoms: N10_33  and  N11_35 
ROOT
HETATM    1  C3  UNL     1      43.187  32.345  69.793  1.00  0.00     0.174 A 
HETATM    2  N1  UNL     1      44.163  33.068  69.144  1.00  0.00    -0.341 N 
ATOM      3  H1  UNL     1      45.105  33.137  69.530  1.00  0.00     0.167 HD
HETATM    4  C4  UNL     1      43.849  33.678  67.998  1.00  0.00     0.139 A 
HETATM    5  C5  UNL     1      42.583  33.597  67.462  1.00  0.00     0.128 A 
HETATM    6  N7  UNL     1      41.678  32.887  68.128  1.00  0.00    -0.334 N 
ATOM      7  H7  UNL     1      40.740  32.825  67.734  1.00  0.00     0.168 HD
HETATM    8  C11 UNL     1      41.918  32.232  69.309  1.00  0.00     0.137 A 
ENDROOT
BRANCH   8   9
HETATM    9  C12 UNL     1      40.852  31.485  69.948  1.00  0.00     0.186 C 
BRANCH   9  10
HETATM   10  O2  UNL     1      40.216  32.137  70.878  1.00  0.00    -0.344 OA
ATOM     11  H2  UNL     1      39.580  32.764  70.556  1.00  0.00     0.219 HD
ENDBRANCH   9  10
BRANCH   9  12
HETATM   12  N8  UNL     1      40.410  30.201  69.725  1.00  0.00    -0.167 N 
HETATM   13  C13 UNL     1      39.316  29.948  68.823  1.00  0.00     0.692 C 
HETATM   14  N9  UNL     1      38.901  28.741  68.615  1.00  0.00    -0.233 N 
HETATM   15  N10 UNL     1      38.643  30.979  68.125  1.00  0.00    -0.139 N 
ATOM     16  H92 UNL     1      39.386  27.997  69.119  1.00  0.00     0.174 HD
ATOM     17  H91 UNL     1      38.126  28.562  67.976  1.00  0.00     0.174 HD
ATOM     18  H10 UNL     1      37.988  31.569  68.639  1.00  0.00     0.205 HD
ATOM     19  H8  UNL     1      40.861  29.420  70.203  1.00  0.00     0.186 HD
BRANCH  15  20
HETATM   20  N11 UNL     1      38.837  31.227  66.756  1.00  0.00    -0.331 N 
ATOM     21 2H11 UNL     1      39.684  30.857  66.326  1.00  0.00     0.177 HD
ATOM     22 1H11 UNL     1      38.173  31.753  66.188  1.00  0.00     0.177 HD
ENDBRANCH  15  20
ENDBRANCH   9  12
ENDBRANCH   8   9
BRANCH   1  23
HETATM   23  O1  UNL     1      43.527  31.714  70.988  1.00  0.00    -0.334 OA
BRANCH  23  24
HETATM   24  C2  UNL     1      44.495  30.687  70.990  1.00  0.00     0.173 C 
HETATM   25  C1  UNL     1      43.909  29.370  70.590  1.00  0.00     0.034 C 
ENDBRANCH  23  24
ENDBRANCH   1  23
BRANCH   5  26
HETATM   26  N2  UNL     1      42.305  34.268  66.235  1.00  0.00    -0.279 N 
HETATM   27  C6  UNL     1      41.842  35.627  66.275  1.00  0.00     0.200 A 
HETATM   28  N3  UNL     1      41.688  36.224  67.571  1.00  0.00    -0.063 NA
HETATM   29  N4  UNL     1      41.572  36.292  65.204  1.00  0.00    -0.304 N 
HETATM   30  C7  UNL     1      41.733  35.672  63.927  1.00  0.00     0.192 A 
ATOM     31  H4  UNL     1      41.246  37.255  65.267  1.00  0.00     0.171 HD
HETATM   32  N5  UNL     1      41.419  36.458  62.788  1.00  0.00    -0.063 NA
HETATM   33  N6  UNL     1      42.142  34.466  63.862  1.00  0.00    -0.338 N 
HETATM   34  C8  UNL     1      42.480  33.606  64.961  1.00  0.00     0.109 A 
ATOM     35  H6  UNL     1      42.241  34.069  62.928  1.00  0.00     0.164 HD
HETATM   36  C9  UNL     1      41.599  32.370  64.843  1.00  0.00     0.063 C 
HETATM   37  C10 UNL     1      43.952  33.217  64.769  1.00  0.00     0.063 C 
ENDBRANCH   5  26
TORSDOF 7
ENDMDL
MODEL 4
REMARK VINA RESULT: -7.502410006      2.173      6.979
REMARK  7 active torsions:
REMARK  status: ('A' for Active; 'I' for Inactive)
REMARK    1  A    between atoms: C2_2  and  O1_3 
REMARK    2  A    between atoms: O1_3  and  C3_4 
REMARK    3  A    between atoms: C5_8  and  N2_9 
REMARK    4  A    between atoms: C11_23  and  C12_24 
REMARK    5  A    between atoms: C12_24  and  O2_25 
REMARK    6  A    between atoms: C12_24  and  N8_27 
REMARK       I    between atoms: N8_27  and  C13_29 
REMARK       I    between atoms: C13_29  and  N10_33 
REMARK    7  A    between atoms: N10_33  and  N11_35 
ROOT
HETATM    1  C3  UNL     1      43.205  33.782  58.534  1.00  0.00     0.174 A 
HETATM    2  N1  UNL     1      44.194  33.230  59.318  1.00  0.00    -0.341 N 
ATOM      3  H1  UNL     1      44.075  33.152  60.328  1.00  0.00     0.167 HD
HETATM    4  C4  UNL     1      45.312  32.800  58.726  1.00  0.00     0.139 A 
HETATM    5  C5  UNL     1      45.489  32.898  57.364  1.00  0.00     0.128 A 
HETATM    6  N7  UNL     1      44.504  33.438  56.653  1.00  0.00    -0.334 N 
ATOM      7  H7  UNL     1      44.633  33.512  55.645  1.00  0.00     0.168 HD
HETATM    8  C11 UNL     1      43.327  33.903  57.182  1.00  0.00     0.137 A 
ENDROOT
BRANCH   8   9
HETATM    9  C12 UNL     1      42.321  34.474  56.308  1.00  0.00     0.186 C 
BRANCH   9  10
HETATM   10  O2  UNL     1      42.017  33.739  55.278  1.00  0.00    -0.344 OA
ATOM     11  H2  UNL     1      42.268  34.109  54.439  1.00  0.00     0.219 HD
ENDBRANCH   9  10
BRANCH   9  12
HETATM   12  N8  UNL     1      41.639  35.667  56.399  1.00  0.00    -0.167 N 
HETATM   13  C13 UNL     1      40.273  35.698  56.857  1.00  0.00     0.692 C 
HETATM   14  N9  UNL     1      39.635  36.820  56.940  1.00  0.00    -0.233 N 
HETATM   15  N10 UNL     1      39.563  34.533  57.234  1.00  0.00    -0.139 N 
ATOM     16  H92 UNL     1      40.146  37.659  56.668  1.00  0.00     0.174 HD
ATOM     17  H91 UNL     1      38.668  36.842  57.265  1.00  0.00     0.174 HD
ATOM     18  H10 UNL     1      39.227  33.908  56.501  1.00  0.00     0.205 HD
ATOM     19  H8  UNL     1      42.105  36.536  56.139  1.00  0.00     0.186 HD
BRANCH  15  20
HETATM   20  N11 UNL     1      39.302  34.199  58.573  1.00  0.00    -0.331 N 
ATOM     21 2H11 UNL     1      39.643  33.299  58.909  1.00  0.00     0.177 HD
ATOM     22 1H11 UNL     1      38.792  34.814  59.208  1.00  0.00     0.177 HD
ENDBRANCH  15  20
ENDBRANCH   9  12
ENDBRANCH   8   9
BRANCH   1  23
HETATM   23  O1  UNL     1      42.043  34.227  59.163  1.00  0.00    -0.334 OA
BRANCH  23  24
HETATM   24  C2  UNL     1      42.134  35.022  60.325  1.00  0.00     0.173 C 
HETATM   25  C1  UNL     1      42.133  36.482  59.999  1.00  0.00     0.034 C 
ENDBRANCH  23  24
ENDBRANCH   1  23
BRANCH   5  26
HETATM   26  N2  UNL     1      46.703  32.422  56.787  1.00  0.00    -0.279 N 
HETATM   27  C6  UNL     1      47.808  33.328  56.645  1.00  0.00     0.200 A 
HETATM   28  N3  UNL     1      47.609  34.674  57.102  1.00  0.00    -0.063 NA
HETATM   29  N4  UNL     1      48.933  32.963  56.132  1.00  0.00    -0.304 N 
HETATM   30  C7  UNL     1      49.103  31.617  55.685  1.00  0.00     0.192 A 
ATOM     31  H4  UNL     1      49.698  33.631  56.046  1.00  0.00     0.171 HD
HETATM   32  N5  UNL     1      50.366  31.280  55.130  1.00  0.00    -0.063 NA
HETATM   33  N6  UNL     1      48.138  30.792  55.798  1.00  0.00    -0.338 N 
HETATM   34  C8  UNL     1      46.836  31.051  56.345  1.00  0.00     0.109 A 
ATOM     35  H6  UNL     1      48.310  29.844  55.464  1.00  0.00     0.164 HD
HETATM   36  C9  UNL     1      45.824  30.707  55.260  1.00  0.00     0.063 C 
HETATM   37  C10 UNL     1      46.670  30.096  57.535  1.00  0.00     0.063 C 
ENDBRANCH   5  26
TORSDOF 7
ENDMDL
MODEL 5
REMARK VINA RESULT: -7.431570514      4.478      6.878
REMARK  7 active torsions:
REMARK  status: ('A' for Active; 'I' for Inactive)
REMARK    1  A    between atoms: C2_2  and  O1_3 
REMARK    2  A    between atoms: O1_3  and  C3_4 
REMARK    3  A    between atoms: C5_8  and  N2_9 
REMARK    4  A    between atoms: C11_23  and  C12_24 
REMARK    5  A    between atoms: C12_24  and  O2_25 
REMARK    6  A    between atoms: C12_24  and  N8_27 
REMARK       I    between atoms: N8_27  and  C13_29 
REMARK       I    between atoms: C13_29  and  N10_33 
REMARK    7  A    between atoms: N10_33  and  N11_35 
ROOT
HETATM    1  C3  UNL     1      42.616  33.904  59.575  1.00  0.00     0.174 A 
HETATM    2  N1  UNL     1      42.937  32.998  60.561  1.00  0.00    -0.341 N 
ATOM      3  H1  UNL     1      43.296  32.073  60.322  1.00  0.00     0.167 HD
HETATM    4  C4  UNL     1      42.767  33.356  61.837  1.00  0.00     0.139 A 
HETATM    5  C5  UNL     1      42.283  34.599  62.178  1.00  0.00     0.128 A 
HETATM    6  N7  UNL     1      41.989  35.436  61.188  1.00  0.00    -0.334 N 
ATOM      7  H7  UNL     1      41.630  36.357  61.438  1.00  0.00     0.168 HD
HETATM    8  C11 UNL     1      42.134  35.148  59.856  1.00  0.00     0.137 A 
ENDROOT
BRANCH   8   9
HETATM    9  C12 UNL     1      41.780  36.142  58.860  1.00  0.00     0.186 C 
BRANCH   9  10
HETATM   10  O2  UNL     1      42.763  36.907  58.485  1.00  0.00    -0.344 OA
ATOM     11  H2  UNL     1      43.321  36.533  57.813  1.00  0.00     0.219 HD
ENDBRANCH   9  10
BRANCH   9  12
HETATM   12  N8  UNL     1      40.571  36.400  58.254  1.00  0.00    -0.167 N 
HETATM   13  C13 UNL     1      40.378  36.116  56.855  1.00  0.00     0.692 C 
HETATM   14  N9  UNL     1      39.242  36.361  56.287  1.00  0.00    -0.233 N 
HETATM   15  N10 UNL     1      41.393  35.567  56.035  1.00  0.00    -0.139 N 
ATOM     16  H92 UNL     1      38.510  36.757  56.877  1.00  0.00     0.174 HD
ATOM     17  H91 UNL     1      39.104  36.159  55.296  1.00  0.00     0.174 HD
ATOM     18  H10 UNL     1      42.156  36.173  55.732  1.00  0.00     0.205 HD
ATOM     19  H8  UNL     1      39.806  36.796  58.800  1.00  0.00     0.186 HD
BRANCH  15  20
HETATM   20  N11 UNL     1      41.396  34.225  55.620  1.00  0.00    -0.331 N 
ATOM     21 2H11 UNL     1      40.816  33.570  56.144  1.00  0.00     0.177 HD
ATOM     22 1H11 UNL     1      41.947  33.891  54.829  1.00  0.00     0.177 HD
ENDBRANCH  15  20
ENDBRANCH   9  12
ENDBRANCH   8   9
BRANCH   1  23
HETATM   23  O1  UNL     1      42.798  33.519  58.248  1.00  0.00    -0.334 OA
BRANCH  23  24
HETATM   24  C2  UNL     1      44.084  33.166  57.788  1.00  0.00     0.173 C 
HETATM   25  C1  UNL     1      44.757  34.306  57.091  1.00  0.00     0.034 C 
ENDBRANCH  23  24
ENDBRANCH   1  23
BRANCH   5  26
HETATM   26  N2  UNL     1      42.123  34.926  63.556  1.00  0.00    -0.279 N 
HETATM   27  C6  UNL     1      43.153  35.677  64.217  1.00  0.00     0.200 A 
HETATM   28  N3  UNL     1      44.293  36.051  63.430  1.00  0.00    -0.063 NA
HETATM   29  N4  UNL     1      43.071  36.006  65.461  1.00  0.00    -0.304 N 
HETATM   30  C7  UNL     1      41.926  35.619  66.221  1.00  0.00     0.192 A 
ATOM     31  H4  UNL     1      43.821  36.540  65.901  1.00  0.00     0.171 HD
HETATM   32  N5  UNL     1      41.898  36.013  67.585  1.00  0.00    -0.063 NA
HETATM   33  N6  UNL     1      40.996  34.952  65.660  1.00  0.00    -0.338 N 
HETATM   34  C8  UNL     1      40.947  34.516  64.292  1.00  0.00     0.109 A 
ATOM     35  H6  UNL     1      40.200  34.700  66.245  1.00  0.00     0.164 HD
HETATM   36  C9  UNL     1      40.797  33.001  64.316  1.00  0.00     0.063 C 
HETATM   37  C10 UNL     1      39.693  35.155  63.680  1.00  0.00     0.063 C 
ENDBRANCH   5  26
TORSDOF 7
ENDMDL
