MODEL 1
REMARK VINA RESULT: -5.947861461      0.000      0.000
REMARK  9 active torsions:
REMARK  status: ('A' for Active; 'I' for Inactive)
REMARK    1  A    between atoms: O1_2  and  C2_3 
REMARK    2  A    between atoms: C2_3  and  O2_4 
REMARK    3  A    between atoms: C7_14  and  C8_15 
REMARK    4  A    between atoms: C8_15  and  O3_16 
REMARK    5  A    between atoms: C9_18  and  O4_19 
REMARK    6  A    between atoms: C9_18  and  C10_21 
REMARK       I    between atoms: C10_21  and  N4_23 
REMARK    7  A    between atoms: N4_23  and  C11_25 
REMARK    8  A    between atoms: C11_25  and  N5_26 
REMARK    9  A    between atoms: C11_25  and  O6_30 
ROOT
HETATM    1  C2  UNL     1      43.356  36.545  63.912  1.00  0.00     0.294 C 
HETATM    2  N1  UNL     1      43.098  37.048  62.543  1.00  0.00    -0.306 N 
ATOM      3  H1  UNL     1      43.624  37.831  62.157  1.00  0.00     0.167 HD
HETATM    4  C4  UNL     1      42.186  36.455  61.863  1.00  0.00     0.192 C 
HETATM    5  N2  UNL     1      41.910  36.926  60.513  1.00  0.00    -0.063 NA
HETATM    6  N3  UNL     1      41.393  35.365  62.290  1.00  0.00    -0.331 N 
HETATM    7  C5  UNL     1      40.589  34.428  61.505  1.00  0.00     0.200 C 
HETATM    8  S1  UNL     1      40.706  32.925  62.528  1.00  0.00    -0.146 SA
HETATM    9  C6  UNL     1      41.813  33.655  63.822  1.00  0.00     0.113 C 
HETATM   10  C7  UNL     1      41.305  35.077  63.699  1.00  0.00     0.113 C 
HETATM   11  C9  UNL     1      41.999  36.090  64.502  1.00  0.00     0.244 C 
ENDROOT
BRANCH  11  12
HETATM   12  O4  UNL     1      41.207  37.257  64.494  1.00  0.00    -0.372 OA
ATOM     13  H4  UNL     1      40.946  37.368  65.400  1.00  0.00     0.211 HD
ENDBRANCH  11  12
BRANCH  11  14
HETATM   14  C10 UNL     1      42.228  35.727  65.904  1.00  0.00     0.266 C 
HETATM   15  O5  UNL     1      41.457  36.081  66.837  1.00  0.00    -0.270 OA
HETATM   16  N4  UNL     1      43.361  34.930  66.317  1.00  0.00    -0.310 N 
ATOM     17  H4  UNL     1      44.017  34.616  65.602  1.00  0.00     0.166 HD
BRANCH  16  18
HETATM   18  C11 UNL     1      43.610  34.557  67.677  1.00  0.00     0.426 C 
BRANCH  18  19
HETATM   19  N5  UNL     1      43.784  33.127  67.846  1.00  0.00    -0.035 N 
ATOM     20  H53 UNL     1      43.172  32.608  67.218  1.00  0.00     0.279 HD
ATOM     21  H52 UNL     1      44.689  32.825  67.485  1.00  0.00     0.279 HD
ATOM     22  H51 UNL     1      43.658  32.824  68.812  1.00  0.00     0.279 HD
ENDBRANCH  18  19
BRANCH  18  23
HETATM   23  O6  UNL     1      44.777  35.161  68.184  1.00  0.00    -0.355 OA
ATOM     24  H6  UNL     1      44.579  35.829  68.831  1.00  0.00     0.213 HD
ENDBRANCH  18  23
ENDBRANCH  16  18
ENDBRANCH  11  14
BRANCH   1  25
HETATM   25  O1  UNL     1      43.751  37.554  64.713  1.00  0.00    -0.340 OA
HETATM   26  C1  UNL     1      44.532  38.570  64.398  1.00  0.00     0.207 C 
ENDBRANCH   1  25
BRANCH   1  27
HETATM   27  O2  UNL     1      44.129  35.452  63.890  1.00  0.00    -0.340 OA
HETATM   28  C3  UNL     1      45.281  35.315  63.233  1.00  0.00     0.207 C 
ENDBRANCH   1  27
BRANCH  10  29
HETATM   29  C8  UNL     1      39.861  35.033  64.173  1.00  0.00     0.200 C 
BRANCH  29  30
HETATM   30  O3  UNL     1      39.164  36.070  63.565  1.00  0.00    -0.398 OA
ATOM     31  H3  UNL     1      38.370  36.233  64.061  1.00  0.00     0.209 HD
ENDBRANCH  29  30
ENDBRANCH  10  29
TORSDOF 9
ENDMDL
MODEL 2
REMARK VINA RESULT: -5.854187407      4.267      6.538
REMARK  9 active torsions:
REMARK  status: ('A' for Active; 'I' for Inactive)
REMARK    1  A    between atoms: O1_2  and  C2_3 
REMARK    2  A    between atoms: C2_3  and  O2_4 
REMARK    3  A    between atoms: C7_14  and  C8_15 
REMARK    4  A    between atoms: C8_15  and  O3_16 
REMARK    5  A    between atoms: C9_18  and  O4_19 
REMARK    6  A    between atoms: C9_18  and  C10_21 
REMARK       I    between atoms: C10_21  and  N4_23 
REMARK    7  A    between atoms: N4_23  and  C11_25 
REMARK    8  A    between atoms: C11_25  and  N5_26 
REMARK    9  A    between atoms: C11_25  and  O6_30 
ROOT
HETATM    1  C2  UNL     1      43.858  31.836  69.330  1.00  0.00     0.294 C 
HETATM    2  N1  UNL     1      45.265  32.296  69.329  1.00  0.00    -0.306 N 
ATOM      3  H1  UNL     1      45.916  32.018  70.062  1.00  0.00     0.167 HD
HETATM    4  C4  UNL     1      45.631  33.062  68.366  1.00  0.00     0.192 C 
HETATM    5  N2  UNL     1      47.010  33.531  68.338  1.00  0.00    -0.063 NA
HETATM    6  N3  UNL     1      44.822  33.516  67.299  1.00  0.00    -0.331 N 
HETATM    7  C5  UNL     1      45.208  34.093  66.011  1.00  0.00     0.200 C 
HETATM    8  S1  UNL     1      43.840  33.527  64.950  1.00  0.00    -0.146 SA
HETATM    9  C6  UNL     1      42.952  32.573  66.267  1.00  0.00     0.113 C 
HETATM   10  C7  UNL     1      43.389  33.441  67.430  1.00  0.00     0.113 C 
HETATM   11  C9  UNL     1      42.992  32.989  68.768  1.00  0.00     0.244 C 
ENDROOT
BRANCH  11  12
HETATM   12  O4  UNL     1      43.212  34.057  69.663  1.00  0.00    -0.372 OA
ATOM     13  H4  UNL     1      42.363  34.206  70.061  1.00  0.00     0.211 HD
ENDBRANCH  11  12
BRANCH  11  14
HETATM   14  C10 UNL     1      41.587  32.590  68.901  1.00  0.00     0.266 C 
HETATM   15  O5  UNL     1      40.660  33.414  69.124  1.00  0.00    -0.270 OA
HETATM   16  N4  UNL     1      41.165  31.213  68.783  1.00  0.00    -0.310 N 
ATOM     17  H4  UNL     1      41.875  30.503  68.603  1.00  0.00     0.166 HD
BRANCH  16  18
HETATM   18  C11 UNL     1      39.801  30.792  68.906  1.00  0.00     0.426 C 
BRANCH  18  19
HETATM   19  N5  UNL     1      39.227  31.112  70.198  1.00  0.00    -0.035 N 
ATOM     20  H53 UNL     1      39.054  30.266  70.740  1.00  0.00     0.279 HD
ATOM     21  H52 UNL     1      39.917  31.559  70.803  1.00  0.00     0.279 HD
ATOM     22  H51 UNL     1      38.382  31.680  70.127  1.00  0.00     0.279 HD
ENDBRANCH  18  19
BRANCH  18  23
HETATM   23  O6  UNL     1      38.973  31.401  67.943  1.00  0.00    -0.355 OA
ATOM     24  H6  UNL     1      38.145  30.944  67.845  1.00  0.00     0.213 HD
ENDBRANCH  18  23
ENDBRANCH  16  18
ENDBRANCH  11  14
BRANCH   1  25
HETATM   25  O1  UNL     1      43.422  31.670  70.593  1.00  0.00    -0.340 OA
HETATM   26  C1  UNL     1      44.101  31.198  71.622  1.00  0.00     0.207 C 
ENDBRANCH   1  25
BRANCH   1  27
HETATM   27  O2  UNL     1      43.684  30.807  68.490  1.00  0.00    -0.340 OA
HETATM   28  C3  UNL     1      44.480  29.744  68.372  1.00  0.00     0.207 C 
ENDBRANCH   1  27
BRANCH  10  29
HETATM   29  C8  UNL     1      42.734  34.792  67.194  1.00  0.00     0.200 C 
BRANCH  29  30
HETATM   30  O3  UNL     1      43.575  35.784  67.685  1.00  0.00    -0.398 OA
ATOM     31  H3  UNL     1      43.658  36.464  67.027  1.00  0.00     0.209 HD
ENDBRANCH  29  30
ENDBRANCH  10  29
TORSDOF 9
ENDMDL
MODEL 3
REMARK VINA RESULT: -5.849233243      2.617      5.392
REMARK  9 active torsions:
REMARK  status: ('A' for Active; 'I' for Inactive)
REMARK    1  A    between atoms: O1_2  and  C2_3 
REMARK    2  A    between atoms: C2_3  and  O2_4 
REMARK    3  A    between atoms: C7_14  and  C8_15 
REMARK    4  A    between atoms: C8_15  and  O3_16 
REMARK    5  A    between atoms: C9_18  and  O4_19 
REMARK    6  A    between atoms: C9_18  and  C10_21 
REMARK       I    between atoms: C10_21  and  N4_23 
REMARK    7  A    between atoms: N4_23  and  C11_25 
REMARK    8  A    between atoms: C11_25  and  N5_26 
REMARK    9  A    between atoms: C11_25  and  O6_30 
ROOT
HETATM    1  C2  UNL     1      42.221  33.285  63.180  1.00  0.00     0.294 C 
HETATM    2  N1  UNL     1      42.620  32.815  64.526  1.00  0.00    -0.306 N 
ATOM      3  H1  UNL     1      42.907  31.850  64.688  1.00  0.00     0.167 HD
HETATM    4  C4  UNL     1      42.589  33.673  65.480  1.00  0.00     0.192 C 
HETATM    5  N2  UNL     1      42.977  33.239  66.815  1.00  0.00    -0.063 NA
HETATM    6  N3  UNL     1      42.208  35.030  65.377  1.00  0.00    -0.331 N 
HETATM    7  C5  UNL     1      42.452  36.143  66.296  1.00  0.00     0.200 C 
HETATM    8  S1  UNL     1      42.547  37.541  65.133  1.00  0.00    -0.146 SA
HETATM    9  C6  UNL     1      42.312  36.535  63.596  1.00  0.00     0.113 C 
HETATM   10  C7  UNL     1      41.453  35.458  64.227  1.00  0.00     0.113 C 
HETATM   11  C9  UNL     1      41.091  34.325  63.368  1.00  0.00     0.244 C 
ENDROOT
BRANCH  11  12
HETATM   12  O4  UNL     1      40.063  33.609  64.017  1.00  0.00    -0.372 OA
ATOM     13  H4  UNL     1      39.263  34.009  63.700  1.00  0.00     0.211 HD
ENDBRANCH  11  12
BRANCH  11  14
HETATM   14  C10 UNL     1      40.597  34.685  62.035  1.00  0.00     0.266 C 
HETATM   15  O5  UNL     1      39.376  34.875  61.786  1.00  0.00    -0.270 OA
HETATM   16  N4  UNL     1      41.483  34.851  60.905  1.00  0.00    -0.310 N 
ATOM     17  H4  UNL     1      42.483  34.710  61.051  1.00  0.00     0.166 HD
BRANCH  16  18
HETATM   18  C11 UNL     1      41.032  35.204  59.593  1.00  0.00     0.426 C 
BRANCH  18  19
HETATM   19  N5  UNL     1      39.982  34.332  59.105  1.00  0.00    -0.035 N 
ATOM     20  H53 UNL     1      39.963  33.455  59.626  1.00  0.00     0.279 HD
ATOM     21  H52 UNL     1      39.061  34.694  59.354  1.00  0.00     0.279 HD
ATOM     22  H51 UNL     1      40.047  34.157  58.101  1.00  0.00     0.279 HD
ENDBRANCH  18  19
BRANCH  18  23
HETATM   23  O6  UNL     1      40.512  36.513  59.548  1.00  0.00    -0.355 OA
ATOM     24  H6  UNL     1      40.273  36.770  58.666  1.00  0.00     0.213 HD
ENDBRANCH  18  23
ENDBRANCH  16  18
ENDBRANCH  11  14
BRANCH   1  25
HETATM   25  O1  UNL     1      41.647  32.283  62.486  1.00  0.00    -0.340 OA
HETATM   26  C1  UNL     1      41.986  31.007  62.489  1.00  0.00     0.207 C 
ENDBRANCH   1  25
BRANCH   1  27
HETATM   27  O2  UNL     1      43.223  33.940  62.578  1.00  0.00    -0.340 OA
HETATM   28  C3  UNL     1      44.488  33.531  62.487  1.00  0.00     0.207 C 
ENDBRANCH   1  27
BRANCH  10  29
HETATM   29  C8  UNL     1      40.164  36.153  64.630  1.00  0.00     0.200 C 
BRANCH  29  30
HETATM   30  O3  UNL     1      39.705  36.898  63.551  1.00  0.00    -0.398 OA
ATOM     31  H3  UNL     1      39.451  37.759  63.863  1.00  0.00     0.209 HD
ENDBRANCH  29  30
ENDBRANCH  10  29
TORSDOF 9
ENDMDL
MODEL 4
REMARK VINA RESULT: -5.819826487      3.390      4.957
REMARK  9 active torsions:
REMARK  status: ('A' for Active; 'I' for Inactive)
REMARK    1  A    between atoms: O1_2  and  C2_3 
REMARK    2  A    between atoms: C2_3  and  O2_4 
REMARK    3  A    between atoms: C7_14  and  C8_15 
REMARK    4  A    between atoms: C8_15  and  O3_16 
REMARK    5  A    between atoms: C9_18  and  O4_19 
REMARK    6  A    between atoms: C9_18  and  C10_21 
REMARK       I    between atoms: C10_21  and  N4_23 
REMARK    7  A    between atoms: N4_23  and  C11_25 
REMARK    8  A    between atoms: C11_25  and  N5_26 
REMARK    9  A    between atoms: C11_25  and  O6_30 
ROOT
HETATM    1  C2  UNL     1      42.662  33.308  61.370  1.00  0.00     0.294 C 
HETATM    2  N1  UNL     1      43.609  32.759  60.373  1.00  0.00    -0.306 N 
ATOM      3  H1  UNL     1      44.336  32.095  60.639  1.00  0.00     0.167 HD
HETATM    4  C4  UNL     1      43.476  33.154  59.159  1.00  0.00     0.192 C 
HETATM    5  N2  UNL     1      44.393  32.631  58.155  1.00  0.00    -0.063 NA
HETATM    6  N3  UNL     1      42.513  34.067  58.673  1.00  0.00    -0.331 N 
HETATM    7  C5  UNL     1      42.070  34.319  57.300  1.00  0.00     0.200 C 
HETATM    8  S1  UNL     1      40.338  34.809  57.577  1.00  0.00    -0.146 SA
HETATM    9  C6  UNL     1      40.363  34.589  59.417  1.00  0.00     0.113 C 
HETATM   10  C7  UNL     1      41.828  34.923  59.608  1.00  0.00     0.113 C 
HETATM   11  C9  UNL     1      42.360  34.771  60.967  1.00  0.00     0.244 C 
ENDROOT
BRANCH  11  12
HETATM   12  O4  UNL     1      43.618  35.409  61.007  1.00  0.00    -0.372 OA
ATOM     13  H4  UNL     1      43.874  35.478  60.094  1.00  0.00     0.211 HD
ENDBRANCH  11  12
BRANCH  11  14
HETATM   14  C10 UNL     1      41.538  35.360  62.029  1.00  0.00     0.266 C 
HETATM   15  O5  UNL     1      41.625  36.571  62.369  1.00  0.00    -0.270 OA
HETATM   16  N4  UNL     1      40.562  34.588  62.764  1.00  0.00    -0.310 N 
ATOM     17  H4  UNL     1      40.451  33.601  62.529  1.00  0.00     0.166 HD
BRANCH  16  18
HETATM   18  C11 UNL     1      39.744  35.134  63.803  1.00  0.00     0.426 C 
BRANCH  18  19
HETATM   19  N5  UNL     1      40.512  35.581  64.949  1.00  0.00    -0.035 N 
ATOM     20  H53 UNL     1      40.045  35.332  65.821  1.00  0.00     0.279 HD
ATOM     21  H52 UNL     1      41.365  35.031  65.054  1.00  0.00     0.279 HD
ATOM     22  H51 UNL     1      40.722  36.579  64.920  1.00  0.00     0.279 HD
ENDBRANCH  18  19
BRANCH  18  23
HETATM   23  O6  UNL     1      39.005  36.249  63.362  1.00  0.00    -0.355 OA
ATOM     24  H6  UNL     1      39.329  37.061  63.735  1.00  0.00     0.213 HD
ENDBRANCH  18  23
ENDBRANCH  16  18
ENDBRANCH  11  14
BRANCH   1  25
HETATM   25  O1  UNL     1      43.257  33.404  62.574  1.00  0.00    -0.340 OA
HETATM   26  C1  UNL     1      44.217  32.639  63.060  1.00  0.00     0.207 C 
ENDBRANCH   1  25
BRANCH   1  27
HETATM   27  O2  UNL     1      41.486  32.668  61.326  1.00  0.00    -0.340 OA
HETATM   28  C3  UNL     1      41.310  31.349  61.247  1.00  0.00     0.207 C 
ENDBRANCH   1  27
BRANCH  10  29
HETATM   29  C8  UNL     1      41.963  36.388  59.228  1.00  0.00     0.200 C 
BRANCH  29  30
HETATM   30  O3  UNL     1      40.845  37.071  59.694  1.00  0.00    -0.398 OA
ATOM     31  H3  UNL     1      40.180  36.437  59.935  1.00  0.00     0.209 HD
ENDBRANCH  29  30
ENDBRANCH  10  29
TORSDOF 9
ENDMDL
MODEL 5
REMARK VINA RESULT: -5.786306686      5.244      7.692
REMARK  9 active torsions:
REMARK  status: ('A' for Active; 'I' for Inactive)
REMARK    1  A    between atoms: O1_2  and  C2_3 
REMARK    2  A    between atoms: C2_3  and  O2_4 
REMARK    3  A    between atoms: C7_14  and  C8_15 
REMARK    4  A    between atoms: C8_15  and  O3_16 
REMARK    5  A    between atoms: C9_18  and  O4_19 
REMARK    6  A    between atoms: C9_18  and  C10_21 
REMARK       I    between atoms: C10_21  and  N4_23 
REMARK    7  A    between atoms: N4_23  and  C11_25 
REMARK    8  A    between atoms: C11_25  and  N5_26 
REMARK    9  A    between atoms: C11_25  and  O6_30 
ROOT
HETATM    1  C2  UNL     1      42.108  34.385  58.710  1.00  0.00     0.294 C 
HETATM    2  N1  UNL     1      41.595  35.410  59.647  1.00  0.00    -0.306 N 
ATOM      3  H1  UNL     1      40.601  35.633  59.699  1.00  0.00     0.167 HD
HETATM    4  C4  UNL     1      42.453  36.007  60.391  1.00  0.00     0.192 C 
HETATM    5  N2  UNL     1      41.978  37.021  61.323  1.00  0.00    -0.063 NA
HETATM    6  N3  UNL     1      43.849  35.787  60.406  1.00  0.00    -0.331 N 
HETATM    7  C5  UNL     1      44.844  36.153  61.416  1.00  0.00     0.200 C 
HETATM    8  S1  UNL     1      46.052  34.804  61.222  1.00  0.00    -0.146 SA
HETATM    9  C6  UNL     1      45.122  33.895  59.903  1.00  0.00     0.113 C 
HETATM   10  C7  UNL     1      44.462  35.113  59.289  1.00  0.00     0.113 C 
HETATM   11  C9  UNL     1      43.495  34.861  58.216  1.00  0.00     0.244 C 
ENDROOT
BRANCH  11  12
HETATM   12  O4  UNL     1      43.233  36.092  57.579  1.00  0.00    -0.372 OA
ATOM     13  H4  UNL     1      42.695  35.859  56.831  1.00  0.00     0.211 HD
ENDBRANCH  11  12
BRANCH  11  14
HETATM   14  C10 UNL     1      43.941  33.921  57.182  1.00  0.00     0.266 C 
HETATM   15  O5  UNL     1      44.230  34.281  56.009  1.00  0.00    -0.270 OA
HETATM   16  N4  UNL     1      44.082  32.506  57.439  1.00  0.00    -0.310 N 
ATOM     17  H4  UNL     1      43.860  32.160  58.373  1.00  0.00     0.166 HD
BRANCH  16  18
HETATM   18  C11 UNL     1      44.516  31.564  56.452  1.00  0.00     0.426 C 
BRANCH  18  19
HETATM   19  N5  UNL     1      44.647  30.219  56.976  1.00  0.00    -0.035 N 
ATOM     20  H53 UNL     1      44.858  29.555  56.231  1.00  0.00     0.279 HD
ATOM     21  H52 UNL     1      45.500  30.123  57.529  1.00  0.00     0.279 HD
ATOM     22  H51 UNL     1      43.831  29.920  57.510  1.00  0.00     0.279 HD
ENDBRANCH  18  19
BRANCH  18  23
HETATM   23  O6  UNL     1      43.619  31.482  55.369  1.00  0.00    -0.355 OA
ATOM     24  H6  UNL     1      43.899  32.014  54.633  1.00  0.00     0.213 HD
ENDBRANCH  18  23
ENDBRANCH  16  18
ENDBRANCH  11  14
BRANCH   1  25
HETATM   25  O1  UNL     1      41.348  34.345  57.599  1.00  0.00    -0.340 OA
HETATM   26  C1  UNL     1      40.086  34.714  57.476  1.00  0.00     0.207 C 
ENDBRANCH   1  25
BRANCH   1  27
HETATM   27  O2  UNL     1      42.325  33.221  59.337  1.00  0.00    -0.340 OA
HETATM   28  C3  UNL     1      41.556  32.680  60.282  1.00  0.00     0.207 C 
ENDBRANCH   1  27
BRANCH  10  29
HETATM   29  C8  UNL     1      45.597  35.932  58.696  1.00  0.00     0.200 C 
BRANCH  29  30
HETATM   30  O3  UNL     1      46.284  35.141  57.784  1.00  0.00    -0.398 OA
ATOM     31  H3  UNL     1      46.751  35.710  57.181  1.00  0.00     0.209 HD
ENDBRANCH  29  30
ENDBRANCH  10  29
TORSDOF 9
ENDMDL
