MODEL 1
REMARK VINA RESULT: -8.440938418      0.000      0.000
REMARK  6 active torsions:
REMARK  status: ('A' for Active; 'I' for Inactive)
REMARK    1  A    between atoms: C5_6  and  S1_7 
REMARK    2  A    between atoms: C7_12  and  O4_13 
REMARK    3  A    between atoms: O4_13  and  N2_14 
REMARK    4  A    between atoms: N2_14  and  C8_16 
REMARK       I    between atoms: N4_19  and  C9_20 
REMARK    5  A    between atoms: C10_23  and  N6_24 
REMARK    6  A    between atoms: N7_27  and  N8_28 
ROOT
HETATM    1  C8  UNL     1      42.645  35.289  59.219  1.00  0.00     0.753 A 
HETATM    2  N3  UNL     1      42.859  34.472  58.157  1.00  0.00    -0.103 N 
ATOM      3  H3  UNL     1      43.619  33.796  58.079  1.00  0.00     0.207 HD
HETATM    4  N4  UNL     1      41.942  34.683  57.248  1.00  0.00    -0.018 N 
HETATM    5  C9  UNL     1      41.817  34.030  55.992  1.00  0.00     0.369 C 
HETATM    6  N5  UNL     1      42.765  33.041  55.651  1.00  0.00    -0.037 NA
HETATM    7  O5  UNL     1      40.877  34.329  55.198  1.00  0.00    -0.248 OA
HETATM    8  C10 UNL     1      41.094  35.654  57.697  1.00  0.00     0.737 A 
HETATM    9  N7  UNL     1      41.552  36.006  58.910  1.00  0.00     0.088 N 
ENDROOT
BRANCH   1  10
HETATM   10  N2  UNL     1      43.339  35.365  60.301  1.00  0.00    -0.087 N 
ATOM     11  H2  UNL     1      43.578  34.528  60.831  1.00  0.00     0.214 HD
BRANCH  10  12
HETATM   12  O4  UNL     1      43.748  36.606  60.720  1.00  0.00    -0.223 OA
BRANCH  12  13
HETATM   13  C7  UNL     1      43.527  36.947  62.064  1.00  0.00     0.107 A 
HETATM   14  C2  UNL     1      44.340  37.867  62.674  1.00  0.00    -0.024 A 
HETATM   15  C1  UNL     1      45.449  38.492  61.901  1.00  0.00     0.051 C 
HETATM   16  C3  UNL     1      44.120  38.198  63.994  1.00  0.00     0.037 A 
HETATM   17  C4  UNL     1      43.085  37.616  64.716  1.00  0.00     0.071 A 
HETATM   18  N1  UNL     1      42.835  37.940  66.077  1.00  0.00    -0.101 NA
HETATM   19  C5  UNL     1      42.259  36.691  64.117  1.00  0.00     0.107 A 
HETATM   20  C6  UNL     1      42.495  36.372  62.797  1.00  0.00     0.068 A 
BRANCH  19  21
HETATM   21  S1  UNL     1      40.954  35.956  65.028  1.00  0.00     0.139 S 
HETATM   22  O1  UNL     1      41.335  35.804  66.471  1.00  0.00    -0.591 OA
HETATM   23  O2  UNL     1      39.751  36.843  64.865  1.00  0.00    -0.591 OA
HETATM   24  O3  UNL     1      40.614  34.446  64.370  1.00  0.00    -0.591 OA
ENDBRANCH  19  21
ENDBRANCH  12  13
ENDBRANCH  10  12
ENDBRANCH   1  10
BRANCH   9  25
HETATM   25  N8  UNL     1      40.976  36.983  59.742  1.00  0.00    -0.309 N 
ATOM     26  H82 UNL     1      41.479  37.531  60.440  1.00  0.00     0.178 HD
ATOM     27  H81 UNL     1      39.990  37.244  59.732  1.00  0.00     0.178 HD
ENDBRANCH   9  25
BRANCH   8  28
HETATM   28  N6  UNL     1      40.076  36.097  57.034  1.00  0.00    -0.230 N 
ATOM     29  H62 UNL     1      39.134  36.322  57.353  1.00  0.00     0.174 HD
ATOM     30  H61 UNL     1      40.084  36.294  56.033  1.00  0.00     0.174 HD
ENDBRANCH   8  28
TORSDOF 6
ENDMDL
MODEL 2
REMARK VINA RESULT: -8.289995522      3.279      8.019
REMARK  6 active torsions:
REMARK  status: ('A' for Active; 'I' for Inactive)
REMARK    1  A    between atoms: C5_6  and  S1_7 
REMARK    2  A    between atoms: C7_12  and  O4_13 
REMARK    3  A    between atoms: O4_13  and  N2_14 
REMARK    4  A    between atoms: N2_14  and  C8_16 
REMARK       I    between atoms: N4_19  and  C9_20 
REMARK    5  A    between atoms: C10_23  and  N6_24 
REMARK    6  A    between atoms: N7_27  and  N8_28 
ROOT
HETATM    1  C8  UNL     1      42.695  34.577  63.215  1.00  0.00     0.753 A 
HETATM    2  N3  UNL     1      42.804  35.723  63.935  1.00  0.00    -0.103 N 
ATOM      3  H3  UNL     1      43.199  36.598  63.590  1.00  0.00     0.207 HD
HETATM    4  N4  UNL     1      42.325  35.533  65.138  1.00  0.00    -0.018 N 
HETATM    5  C9  UNL     1      42.258  36.486  66.190  1.00  0.00     0.369 C 
HETATM    6  N5  UNL     1      42.751  37.787  65.952  1.00  0.00    -0.037 NA
HETATM    7  O5  UNL     1      41.766  36.173  67.315  1.00  0.00    -0.248 OA
HETATM    8  C10 UNL     1      41.884  34.245  65.237  1.00  0.00     0.737 A 
HETATM    9  N7  UNL     1      42.125  33.684  64.040  1.00  0.00     0.088 N 
ENDROOT
BRANCH   1  10
HETATM   10  N2  UNL     1      43.059  34.381  61.995  1.00  0.00    -0.087 N 
ATOM     11  H2  UNL     1      43.808  34.931  61.576  1.00  0.00     0.214 HD
BRANCH  10  12
HETATM   12  O4  UNL     1      42.408  33.410  61.276  1.00  0.00    -0.223 OA
BRANCH  12  13
HETATM   13  C7  UNL     1      41.806  33.789  60.066  1.00  0.00     0.107 A 
HETATM   14  C2  UNL     1      40.458  34.037  60.027  1.00  0.00    -0.024 A 
HETATM   15  C1  UNL     1      39.651  33.900  61.273  1.00  0.00     0.051 C 
HETATM   16  C3  UNL     1      39.869  34.409  58.837  1.00  0.00     0.037 A 
HETATM   17  C4  UNL     1      40.621  34.538  57.676  1.00  0.00     0.071 A 
HETATM   18  N1  UNL     1      40.040  34.920  56.437  1.00  0.00    -0.101 NA
HETATM   19  C5  UNL     1      41.976  34.293  57.698  1.00  0.00     0.107 A 
HETATM   20  C6  UNL     1      42.546  33.922  58.897  1.00  0.00     0.068 A 
BRANCH  19  21
HETATM   21  S1  UNL     1      42.924  34.455  56.233  1.00  0.00     0.139 S 
HETATM   22  O1  UNL     1      42.709  35.802  55.609  1.00  0.00    -0.591 OA
HETATM   23  O2  UNL     1      44.363  34.247  56.616  1.00  0.00    -0.591 OA
HETATM   24  O3  UNL     1      42.467  33.250  55.152  1.00  0.00    -0.591 OA
ENDBRANCH  19  21
ENDBRANCH  12  13
ENDBRANCH  10  12
ENDBRANCH   1  10
BRANCH   9  25
HETATM   25  N8  UNL     1      41.828  32.354  63.694  1.00  0.00    -0.309 N 
ATOM     26  H82 UNL     1      42.515  31.610  63.575  1.00  0.00     0.178 HD
ATOM     27  H81 UNL     1      40.887  31.996  63.526  1.00  0.00     0.178 HD
ENDBRANCH   9  25
BRANCH   8  28
HETATM   28  N6  UNL     1      41.353  33.736  66.301  1.00  0.00    -0.230 N 
ATOM     29  H62 UNL     1      41.529  33.943  67.283  1.00  0.00     0.174 HD
ATOM     30  H61 UNL     1      40.638  33.010  66.294  1.00  0.00     0.174 HD
ENDBRANCH   8  28
TORSDOF 6
ENDMDL
MODEL 3
REMARK VINA RESULT: -8.264996587      2.428      3.205
REMARK  6 active torsions:
REMARK  status: ('A' for Active; 'I' for Inactive)
REMARK    1  A    between atoms: C5_6  and  S1_7 
REMARK    2  A    between atoms: C7_12  and  O4_13 
REMARK    3  A    between atoms: O4_13  and  N2_14 
REMARK    4  A    between atoms: N2_14  and  C8_16 
REMARK       I    between atoms: N4_19  and  C9_20 
REMARK    5  A    between atoms: C10_23  and  N6_24 
REMARK    6  A    between atoms: N7_27  and  N8_28 
ROOT
HETATM    1  C8  UNL     1      42.160  35.050  59.373  1.00  0.00     0.753 A 
HETATM    2  N3  UNL     1      42.867  34.159  58.633  1.00  0.00    -0.103 N 
ATOM      3  H3  UNL     1      43.630  33.579  58.982  1.00  0.00     0.207 HD
HETATM    4  N4  UNL     1      42.420  34.158  57.402  1.00  0.00    -0.018 N 
HETATM    5  C9  UNL     1      42.895  33.366  56.323  1.00  0.00     0.369 C 
HETATM    6  N5  UNL     1      43.962  32.473  56.561  1.00  0.00    -0.037 NA
HETATM    7  O5  UNL     1      42.371  33.460  55.173  1.00  0.00    -0.248 OA
HETATM    8  C10 UNL     1      41.397  35.057  57.306  1.00  0.00     0.737 A 
HETATM    9  N7  UNL     1      41.261  35.588  58.532  1.00  0.00     0.088 N 
ENDROOT
BRANCH   1  10
HETATM   10  N2  UNL     1      42.312  35.326  60.622  1.00  0.00    -0.087 N 
ATOM     11  H2  UNL     1      43.237  35.506  61.010  1.00  0.00     0.214 HD
BRANCH  10  12
HETATM   12  O4  UNL     1      41.193  35.372  61.415  1.00  0.00    -0.223 OA
BRANCH  12  13
HETATM   13  C7  UNL     1      41.284  34.825  62.704  1.00  0.00     0.107 A 
HETATM   14  C2  UNL     1      40.791  33.568  62.945  1.00  0.00    -0.024 A 
HETATM   15  C1  UNL     1      40.163  32.802  61.832  1.00  0.00     0.051 C 
HETATM   16  C3  UNL     1      40.882  33.034  64.213  1.00  0.00     0.037 A 
HETATM   17  C4  UNL     1      41.469  33.748  65.250  1.00  0.00     0.071 A 
HETATM   18  N1  UNL     1      41.576  33.222  66.566  1.00  0.00    -0.101 NA
HETATM   19  C5  UNL     1      41.970  35.011  65.024  1.00  0.00     0.107 A 
HETATM   20  C6  UNL     1      41.869  35.528  63.751  1.00  0.00     0.068 A 
BRANCH  19  21
HETATM   21  S1  UNL     1      42.708  35.912  66.333  1.00  0.00     0.139 S 
HETATM   22  O1  UNL     1      43.904  35.181  66.871  1.00  0.00    -0.591 OA
HETATM   23  O2  UNL     1      43.087  37.258  65.781  1.00  0.00    -0.591 OA
HETATM   24  O3  UNL     1      41.575  36.122  67.558  1.00  0.00    -0.591 OA
ENDBRANCH  19  21
ENDBRANCH  12  13
ENDBRANCH  10  12
ENDBRANCH   1  10
BRANCH   9  25
HETATM   25  N8  UNL     1      40.318  36.568  58.891  1.00  0.00    -0.309 N 
ATOM     26  H82 UNL     1      40.179  36.932  59.833  1.00  0.00     0.178 HD
ATOM     27  H81 UNL     1      39.673  37.016  58.240  1.00  0.00     0.178 HD
ENDBRANCH   9  25
BRANCH   8  28
HETATM   28  N6  UNL     1      40.738  35.297  56.219  1.00  0.00    -0.230 N 
ATOM     29  H62 UNL     1      40.817  34.868  55.298  1.00  0.00     0.174 HD
ATOM     30  H61 UNL     1      40.000  35.996  56.138  1.00  0.00     0.174 HD
ENDBRANCH   8  28
TORSDOF 6
ENDMDL
MODEL 4
REMARK VINA RESULT: -8.256975320      2.953      7.733
REMARK  6 active torsions:
REMARK  status: ('A' for Active; 'I' for Inactive)
REMARK    1  A    between atoms: C5_6  and  S1_7 
REMARK    2  A    between atoms: C7_12  and  O4_13 
REMARK    3  A    between atoms: O4_13  and  N2_14 
REMARK    4  A    between atoms: N2_14  and  C8_16 
REMARK       I    between atoms: N4_19  and  C9_20 
REMARK    5  A    between atoms: C10_23  and  N6_24 
REMARK    6  A    between atoms: N7_27  and  N8_28 
ROOT
HETATM    1  C8  UNL     1      43.251  35.704  62.992  1.00  0.00     0.753 A 
HETATM    2  N3  UNL     1      42.734  35.037  64.054  1.00  0.00    -0.103 N 
ATOM      3  H3  UNL     1      42.580  34.029  64.097  1.00  0.00     0.207 HD
HETATM    4  N4  UNL     1      42.462  35.883  65.015  1.00  0.00    -0.018 N 
HETATM    5  C9  UNL     1      41.908  35.580  66.288  1.00  0.00     0.369 C 
HETATM    6  N5  UNL     1      41.605  34.234  66.587  1.00  0.00    -0.037 NA
HETATM    7  O5  UNL     1      41.693  36.498  67.135  1.00  0.00    -0.248 OA
HETATM    8  C10 UNL     1      42.799  37.139  64.602  1.00  0.00     0.737 A 
HETATM    9  N7  UNL     1      43.281  36.997  63.356  1.00  0.00     0.088 N 
ENDROOT
BRANCH   1  10
HETATM   10  N2  UNL     1      43.637  35.209  61.868  1.00  0.00    -0.087 N 
ATOM     11  H2  UNL     1      44.403  35.631  61.344  1.00  0.00     0.214 HD
BRANCH  10  12
HETATM   12  O4  UNL     1      42.986  34.097  61.394  1.00  0.00    -0.223 OA
BRANCH  12  13
HETATM   13  C7  UNL     1      42.225  34.237  60.223  1.00  0.00     0.107 A 
HETATM   14  C2  UNL     1      40.856  34.272  60.304  1.00  0.00    -0.024 A 
HETATM   15  C1  UNL     1      40.197  34.160  61.635  1.00  0.00     0.051 C 
HETATM   16  C3  UNL     1      40.111  34.409  59.152  1.00  0.00     0.037 A 
HETATM   17  C4  UNL     1      40.725  34.514  57.910  1.00  0.00     0.071 A 
HETATM   18  N1  UNL     1      39.983  34.656  56.707  1.00  0.00    -0.101 NA
HETATM   19  C5  UNL     1      42.099  34.481  57.813  1.00  0.00     0.107 A 
HETATM   20  C6  UNL     1      42.827  34.343  58.975  1.00  0.00     0.068 A 
BRANCH  19  21
HETATM   21  S1  UNL     1      42.873  34.612  56.246  1.00  0.00     0.139 S 
HETATM   22  O1  UNL     1      42.534  35.921  55.594  1.00  0.00    -0.591 OA
HETATM   23  O2  UNL     1      44.354  34.479  56.476  1.00  0.00    -0.591 OA
HETATM   24  O3  UNL     1      42.354  33.344  55.273  1.00  0.00    -0.591 OA
ENDBRANCH  19  21
ENDBRANCH  12  13
ENDBRANCH  10  12
ENDBRANCH   1  10
BRANCH   9  25
HETATM   25  N8  UNL     1      43.750  38.045  62.544  1.00  0.00    -0.309 N 
ATOM     26  H82 UNL     1      43.458  38.218  61.582  1.00  0.00     0.178 HD
ATOM     27  H81 UNL     1      44.435  38.742  62.836  1.00  0.00     0.178 HD
ENDBRANCH   9  25
BRANCH   8  28
HETATM   28  N6  UNL     1      42.655  38.206  65.320  1.00  0.00    -0.230 N 
ATOM     29  H62 UNL     1      42.841  38.358  66.311  1.00  0.00     0.174 HD
ATOM     30  H61 UNL     1      42.313  39.097  64.962  1.00  0.00     0.174 HD
ENDBRANCH   8  28
TORSDOF 6
ENDMDL
MODEL 5
REMARK VINA RESULT: -8.233781590      3.388      7.837
REMARK  6 active torsions:
REMARK  status: ('A' for Active; 'I' for Inactive)
REMARK    1  A    between atoms: C5_6  and  S1_7 
REMARK    2  A    between atoms: C7_12  and  O4_13 
REMARK    3  A    between atoms: O4_13  and  N2_14 
REMARK    4  A    between atoms: N2_14  and  C8_16 
REMARK       I    between atoms: N4_19  and  C9_20 
REMARK    5  A    between atoms: C10_23  and  N6_24 
REMARK    6  A    between atoms: N7_27  and  N8_28 
ROOT
HETATM    1  C8  UNL     1      41.589  35.048  63.118  1.00  0.00     0.753 A 
HETATM    2  N3  UNL     1      41.978  36.090  63.895  1.00  0.00    -0.103 N 
ATOM      3  H3  UNL     1      42.295  36.996  63.549  1.00  0.00     0.207 HD
HETATM    4  N4  UNL     1      41.886  35.756  65.157  1.00  0.00    -0.018 N 
HETATM    5  C9  UNL     1      42.200  36.566  66.281  1.00  0.00     0.369 C 
HETATM    6  N5  UNL     1      42.667  37.879  66.054  1.00  0.00    -0.037 NA
HETATM    7  O5  UNL     1      42.065  36.120  67.458  1.00  0.00    -0.248 OA
HETATM    8  C10 UNL     1      41.427  34.473  65.239  1.00  0.00     0.737 A 
HETATM    9  N7  UNL     1      41.254  34.066  63.970  1.00  0.00     0.088 N 
ENDROOT
BRANCH   1  10
HETATM   10  N2  UNL     1      41.545  35.004  61.831  1.00  0.00    -0.087 N 
ATOM     11  H2  UNL     1      41.222  35.805  61.290  1.00  0.00     0.214 HD
BRANCH  10  12
HETATM   12  O4  UNL     1      41.946  33.848  61.210  1.00  0.00    -0.223 OA
BRANCH  12  13
HETATM   13  C7  UNL     1      42.686  33.969  60.024  1.00  0.00     0.107 A 
HETATM   14  C2  UNL     1      44.057  33.945  60.073  1.00  0.00    -0.024 A 
HETATM   15  C1  UNL     1      44.740  33.791  61.388  1.00  0.00     0.051 C 
HETATM   16  C3  UNL     1      44.781  34.064  58.906  1.00  0.00     0.037 A 
HETATM   17  C4  UNL     1      44.144  34.205  57.679  1.00  0.00     0.071 A 
HETATM   18  N1  UNL     1      44.865  34.330  56.461  1.00  0.00    -0.101 NA
HETATM   19  C5  UNL     1      42.768  34.231  57.613  1.00  0.00     0.107 A 
HETATM   20  C6  UNL     1      42.062  34.111  58.790  1.00  0.00     0.068 A 
BRANCH  19  21
HETATM   21  S1  UNL     1      41.965  34.412  56.066  1.00  0.00     0.139 S 
HETATM   22  O1  UNL     1      42.351  33.300  55.135  1.00  0.00    -0.591 OA
HETATM   23  O2  UNL     1      40.486  34.415  56.337  1.00  0.00    -0.591 OA
HETATM   24  O3  UNL     1      42.401  35.890  55.394  1.00  0.00    -0.591 OA
ENDBRANCH  19  21
ENDBRANCH  12  13
ENDBRANCH  10  12
ENDBRANCH   1  10
BRANCH   9  25
HETATM   25  N8  UNL     1      40.791  32.796  63.582  1.00  0.00    -0.309 N 
ATOM     26  H82 UNL     1      41.115  31.909  63.968  1.00  0.00     0.178 HD
ATOM     27  H81 UNL     1      40.079  32.632  62.871  1.00  0.00     0.178 HD
ENDBRANCH   9  25
BRANCH   8  28
HETATM   28  N6  UNL     1      41.224  33.840  66.348  1.00  0.00    -0.230 N 
ATOM     29  H62 UNL     1      41.807  33.778  67.182  1.00  0.00     0.174 HD
ATOM     30  H61 UNL     1      40.395  33.281  66.548  1.00  0.00     0.174 HD
ENDBRANCH   8  28
TORSDOF 6
ENDMDL
