MODEL 1
REMARK VINA RESULT: -8.757870574      0.000      0.000
REMARK  12 active torsions:
REMARK  status: ('A' for Active; 'I' for Inactive)
REMARK    1  A    between atoms: C2_2  and  C3_3 
REMARK    2  A    between atoms: C2_2  and  C4_8 
REMARK    3  A    between atoms: C2_2  and  C5_11 
REMARK    4  A    between atoms: C3_3  and  N1_4 
REMARK    5  A    between atoms: C4_8  and  O1_9 
REMARK    6  A    between atoms: C5_11  and  N2_12 
REMARK    7  A    between atoms: C10_23  and  N4_24 
REMARK    8  A    between atoms: N4_24  and  N5_26 
REMARK    9  A    between atoms: N5_26  and  C11_28 
REMARK   10  A    between atoms: C16_33  and  O4_34 
REMARK   11  A    between atoms: C18_39  and  S2_40 
REMARK   12  A    between atoms: S2_40  and  C19_41 
ROOT
HETATM    1  N2  UNL     1      73.317 -13.918   3.981  1.00  0.00    -0.386 N 
ATOM      2  H2  UNL     1      73.770 -14.031   3.074  1.00  0.00     0.159 HD
HETATM    3  C6  UNL     1      72.040 -13.931   4.040  1.00  0.00     0.109 C 
HETATM    4  C7  UNL     1      71.249 -13.779   5.281  1.00  0.00     0.272 C 
HETATM    5  O2  UNL     1      71.715 -13.874   6.462  1.00  0.00    -0.266 OA
HETATM    6  N3  UNL     1      69.904 -13.515   4.898  1.00  0.00    -0.290 N 
ATOM      7  H3  UNL     1      69.124 -13.364   5.538  1.00  0.00     0.172 HD
HETATM    8  C8  UNL     1      69.821 -13.494   3.478  1.00  0.00     0.256 C 
HETATM    9  O3  UNL     1      68.857 -13.044   2.772  1.00  0.00    -0.270 OA
HETATM   10  C9  UNL     1      71.054 -14.088   2.982  1.00  0.00     0.186 C 
HETATM   11  S1  UNL     1      71.591 -13.391   1.378  1.00  0.00    -0.059 SA
HETATM   12  C10 UNL     1      72.248 -14.941   0.754  1.00  0.00     0.161 C 
HETATM   13  N6  UNL     1      71.753 -15.854   1.485  1.00  0.00    -0.337 N 
ATOM     14  H6  UNL     1      71.986 -16.832   1.317  1.00  0.00     0.168 HD
HETATM   15  C17 UNL     1      70.892 -15.506   2.512  1.00  0.00     0.053 C 
HETATM   16  C18 UNL     1      69.977 -16.312   3.076  1.00  0.00     0.081 C 
ENDROOT
BRANCH   1  17
HETATM   17  C5  UNL     1      74.142 -13.749   5.157  1.00  0.00     0.132 C 
BRANCH  17  18
HETATM   18  C2  UNL     1      75.190 -12.706   4.929  1.00  0.00     0.017 C 
HETATM   19  C1  UNL     1      76.580 -13.306   4.948  1.00  0.00     0.021 C 
BRANCH  18  20
HETATM   20  C3  UNL     1      75.130 -11.728   6.084  1.00  0.00     0.242 C 
BRANCH  20  21
HETATM   21  N1  UNL     1      73.909 -11.784   6.827  1.00  0.00    -0.079 N 
ATOM     22  H13 UNL     1      73.444 -10.876   6.822  1.00  0.00     0.274 HD
ATOM     23  H12 UNL     1      73.211 -12.338   6.330  1.00  0.00     0.274 HD
ATOM     24  H11 UNL     1      74.022 -12.123   7.782  1.00  0.00     0.274 HD
ENDBRANCH  20  21
ENDBRANCH  18  20
BRANCH  18  25
HETATM   25  C4  UNL     1      74.954 -11.929   3.646  1.00  0.00     0.176 C 
BRANCH  25  26
HETATM   26  O1  UNL     1      73.949 -10.985   3.874  1.00  0.00    -0.400 OA
ATOM     27  H1  UNL     1      73.850 -10.452   3.093  1.00  0.00     0.209 HD
ENDBRANCH  25  26
ENDBRANCH  18  25
ENDBRANCH  17  18
ENDBRANCH   1  17
BRANCH  12  28
HETATM   28  N4  UNL     1      73.142 -15.123  -0.338  1.00  0.00    -0.279 N 
ATOM     29  H4  UNL     1      72.974 -14.618  -1.208  1.00  0.00     0.189 HD
BRANCH  28  30
HETATM   30  N5  UNL     1      74.250 -15.981  -0.249  1.00  0.00    -0.296 N 
ATOM     31  H5  UNL     1      74.116 -16.981  -0.402  1.00  0.00     0.187 HD
BRANCH  30  32
HETATM   32  C11 UNL     1      75.554 -15.497   0.047  1.00  0.00     0.081 A 
HETATM   33  C12 UNL     1      75.743 -14.569   1.049  1.00  0.00     0.034 A 
HETATM   34  C13 UNL     1      77.006 -14.098   1.339  1.00  0.00     0.002 A 
HETATM   35  C14 UNL     1      78.103 -14.549   0.630  1.00  0.00     0.003 A 
HETATM   36  C15 UNL     1      77.927 -15.477  -0.374  1.00  0.00     0.039 A 
HETATM   37  C16 UNL     1      76.664 -15.937  -0.651  1.00  0.00     0.093 A 
BRANCH  37  38
HETATM   38  O4  UNL     1      76.521 -16.864  -1.661  1.00  0.00    -0.358 OA
ATOM     39  H4  UNL     1      76.814 -16.658  -2.541  1.00  0.00     0.217 HD
ENDBRANCH  37  38
ENDBRANCH  30  32
ENDBRANCH  28  30
ENDBRANCH  12  28
BRANCH  16  40
HETATM   40  S2  UNL     1      69.739 -18.002   2.562  1.00  0.00    -0.061 SA
BRANCH  40  41
HETATM   41  C19 UNL     1      68.017 -18.497   2.799  1.00  0.00     0.177 A 
HETATM   42  N7  UNL     1      66.998 -18.325   1.948  1.00  0.00    -0.261 N 
HETATM   43  N8  UNL     1      65.895 -18.826   2.490  1.00  0.00    -0.005 NA
ATOM     44  H7  UNL     1      67.059 -17.881   1.032  1.00  0.00     0.186 HD
HETATM   45  N9  UNL     1      66.221 -19.312   3.675  1.00  0.00    -0.224 N 
HETATM   46  N10 UNL     1      67.510 -19.118   3.875  1.00  0.00    -0.266 N 
ATOM     47  H9  UNL     1      65.581 -19.762   4.328  1.00  0.00     0.205 HD
ATOM     48  H10 UNL     1      68.033 -19.394   4.706  1.00  0.00     0.190 HD
ENDBRANCH  40  41
ENDBRANCH  16  40
TORSDOF 12
ENDMDL
MODEL 2
REMARK VINA RESULT: -8.757663076      1.601      1.923
REMARK  12 active torsions:
REMARK  status: ('A' for Active; 'I' for Inactive)
REMARK    1  A    between atoms: C2_2  and  C3_3 
REMARK    2  A    between atoms: C2_2  and  C4_8 
REMARK    3  A    between atoms: C2_2  and  C5_11 
REMARK    4  A    between atoms: C3_3  and  N1_4 
REMARK    5  A    between atoms: C4_8  and  O1_9 
REMARK    6  A    between atoms: C5_11  and  N2_12 
REMARK    7  A    between atoms: C10_23  and  N4_24 
REMARK    8  A    between atoms: N4_24  and  N5_26 
REMARK    9  A    between atoms: N5_26  and  C11_28 
REMARK   10  A    between atoms: C16_33  and  O4_34 
REMARK   11  A    between atoms: C18_39  and  S2_40 
REMARK   12  A    between atoms: S2_40  and  C19_41 
ROOT
HETATM    1  N2  UNL     1      73.719 -13.208   4.566  1.00  0.00    -0.386 N 
ATOM      2  H2  UNL     1      74.093 -13.511   3.667  1.00  0.00     0.159 HD
HETATM    3  C6  UNL     1      72.451 -13.143   4.719  1.00  0.00     0.109 C 
HETATM    4  C7  UNL     1      71.770 -12.721   5.962  1.00  0.00     0.272 C 
HETATM    5  O2  UNL     1      72.326 -12.618   7.103  1.00  0.00    -0.266 OA
HETATM    6  N3  UNL     1      70.409 -12.463   5.634  1.00  0.00    -0.290 N 
ATOM      7  H3  UNL     1      69.690 -12.155   6.289  1.00  0.00     0.172 HD
HETATM    8  C8  UNL     1      70.213 -12.704   4.246  1.00  0.00     0.256 C 
HETATM    9  O3  UNL     1      69.212 -12.343   3.539  1.00  0.00    -0.270 OA
HETATM   10  C9  UNL     1      71.379 -13.443   3.784  1.00  0.00     0.186 C 
HETATM   11  S1  UNL     1      71.809 -13.086   2.042  1.00  0.00    -0.059 SA
HETATM   12  C10 UNL     1      72.355 -14.757   1.677  1.00  0.00     0.161 C 
HETATM   13  N6  UNL     1      71.887 -15.491   2.602  1.00  0.00    -0.337 N 
ATOM     14  H6  UNL     1      72.069 -16.494   2.607  1.00  0.00     0.168 HD
HETATM   15  C17 UNL     1      71.125 -14.913   3.605  1.00  0.00     0.053 C 
HETATM   16  C18 UNL     1      70.230 -15.552   4.376  1.00  0.00     0.081 C 
ENDROOT
BRANCH   1  17
HETATM   17  C5  UNL     1      74.642 -12.866   5.625  1.00  0.00     0.132 C 
BRANCH  17  18
HETATM   18  C2  UNL     1      76.057 -13.112   5.202  1.00  0.00     0.017 C 
HETATM   19  C1  UNL     1      76.393 -12.361   3.932  1.00  0.00     0.021 C 
BRANCH  18  20
HETATM   20  C3  UNL     1      76.194 -14.585   4.878  1.00  0.00     0.242 C 
BRANCH  20  21
HETATM   21  N1  UNL     1      77.547 -15.052   4.869  1.00  0.00    -0.079 N 
ATOM     22  H13 UNL     1      77.575 -16.071   4.903  1.00  0.00     0.274 HD
ATOM     23  H12 UNL     1      77.973 -14.899   3.955  1.00  0.00     0.274 HD
ATOM     24  H11 UNL     1      78.127 -14.653   5.607  1.00  0.00     0.274 HD
ENDBRANCH  20  21
ENDBRANCH  18  20
BRANCH  18  25
HETATM   25  C4  UNL     1      77.048 -12.782   6.304  1.00  0.00     0.176 C 
BRANCH  25  26
HETATM   26  O1  UNL     1      76.868 -13.687   7.354  1.00  0.00    -0.400 OA
ATOM     27  H1  UNL     1      77.375 -13.391   8.100  1.00  0.00     0.209 HD
ENDBRANCH  25  26
ENDBRANCH  18  25
ENDBRANCH  17  18
ENDBRANCH   1  17
BRANCH  12  28
HETATM   28  N4  UNL     1      73.150 -15.185   0.579  1.00  0.00    -0.279 N 
ATOM     29  H4  UNL     1      72.964 -14.804  -0.349  1.00  0.00     0.189 HD
BRANCH  28  30
HETATM   30  N5  UNL     1      74.185 -16.121   0.737  1.00  0.00    -0.296 N 
ATOM     31  H5  UNL     1      73.955 -17.067   1.045  1.00  0.00     0.187 HD
BRANCH  30  32
HETATM   32  C11 UNL     1      75.544 -15.791   0.481  1.00  0.00     0.081 A 
HETATM   33  C12 UNL     1      76.274 -15.074   1.404  1.00  0.00     0.034 A 
HETATM   34  C13 UNL     1      77.592 -14.752   1.159  1.00  0.00     0.002 A 
HETATM   35  C14 UNL     1      78.203 -15.144  -0.017  1.00  0.00     0.003 A 
HETATM   36  C15 UNL     1      77.484 -15.862  -0.948  1.00  0.00     0.039 A 
HETATM   37  C16 UNL     1      76.173 -16.175  -0.690  1.00  0.00     0.093 A 
BRANCH  37  38
HETATM   38  O4  UNL     1      75.481 -16.893  -1.641  1.00  0.00    -0.358 OA
ATOM     39  H4  UNL     1      75.912 -17.157  -2.445  1.00  0.00     0.217 HD
ENDBRANCH  37  38
ENDBRANCH  30  32
ENDBRANCH  28  30
ENDBRANCH  12  28
BRANCH  16  40
HETATM   40  S2  UNL     1      69.888 -17.293   4.210  1.00  0.00    -0.061 SA
BRANCH  40  41
HETATM   41  C19 UNL     1      68.456 -17.556   3.141  1.00  0.00     0.177 A 
HETATM   42  N7  UNL     1      68.237 -18.587   2.315  1.00  0.00    -0.261 N 
HETATM   43  N8  UNL     1      67.072 -18.412   1.706  1.00  0.00    -0.005 NA
ATOM     44  H7  UNL     1      68.866 -19.379   2.177  1.00  0.00     0.186 HD
HETATM   45  N9  UNL     1      66.560 -17.276   2.148  1.00  0.00    -0.224 N 
HETATM   46  N10 UNL     1      67.393 -16.746   3.022  1.00  0.00    -0.266 N 
ATOM     47  H9  UNL     1      65.668 -16.876   1.860  1.00  0.00     0.205 HD
ATOM     48  H10 UNL     1      67.252 -15.869   3.523  1.00  0.00     0.190 HD
ENDBRANCH  40  41
ENDBRANCH  16  40
TORSDOF 12
ENDMDL
MODEL 3
REMARK VINA RESULT: -8.697020942      3.304      6.948
REMARK  12 active torsions:
REMARK  status: ('A' for Active; 'I' for Inactive)
REMARK    1  A    between atoms: C2_2  and  C3_3 
REMARK    2  A    between atoms: C2_2  and  C4_8 
REMARK    3  A    between atoms: C2_2  and  C5_11 
REMARK    4  A    between atoms: C3_3  and  N1_4 
REMARK    5  A    between atoms: C4_8  and  O1_9 
REMARK    6  A    between atoms: C5_11  and  N2_12 
REMARK    7  A    between atoms: C10_23  and  N4_24 
REMARK    8  A    between atoms: N4_24  and  N5_26 
REMARK    9  A    between atoms: N5_26  and  C11_28 
REMARK   10  A    between atoms: C16_33  and  O4_34 
REMARK   11  A    between atoms: C18_39  and  S2_40 
REMARK   12  A    between atoms: S2_40  and  C19_41 
ROOT
HETATM    1  N2  UNL     1      73.029 -13.306   2.451  1.00  0.00    -0.386 N 
ATOM      2  H2  UNL     1      73.733 -13.418   3.181  1.00  0.00     0.159 HD
HETATM    3  C6  UNL     1      71.807 -13.143   2.792  1.00  0.00     0.109 C 
HETATM    4  C7  UNL     1      70.683 -12.969   1.847  1.00  0.00     0.272 C 
HETATM    5  O2  UNL     1      70.802 -12.701   0.608  1.00  0.00    -0.266 OA
HETATM    6  N3  UNL     1      69.478 -13.153   2.582  1.00  0.00    -0.290 N 
ATOM      7  H3  UNL     1      68.534 -13.093   2.199  1.00  0.00     0.172 HD
HETATM    8  C8  UNL     1      69.801 -13.435   3.939  1.00  0.00     0.256 C 
HETATM    9  O3  UNL     1      69.017 -13.904   4.832  1.00  0.00    -0.270 OA
HETATM   10  C9  UNL     1      71.203 -13.084   4.113  1.00  0.00     0.186 C 
HETATM   11  S1  UNL     1      72.054 -14.129   5.351  1.00  0.00    -0.059 SA
HETATM   12  C10 UNL     1      73.102 -12.808   5.966  1.00  0.00     0.161 C 
HETATM   13  N6  UNL     1      72.573 -11.724   5.568  1.00  0.00    -0.337 N 
ATOM     14  H6  UNL     1      72.999 -10.827   5.800  1.00  0.00     0.168 HD
HETATM   15  C17 UNL     1      71.411 -11.774   4.816  1.00  0.00     0.053 C 
HETATM   16  C18 UNL     1      70.517 -10.780   4.689  1.00  0.00     0.081 C 
ENDROOT
BRANCH   1  17
HETATM   17  C5  UNL     1      73.447 -13.336   1.068  1.00  0.00     0.132 C 
BRANCH  17  18
HETATM   18  C2  UNL     1      74.349 -14.502   0.806  1.00  0.00     0.017 C 
HETATM   19  C1  UNL     1      75.798 -14.150   1.072  1.00  0.00     0.021 C 
BRANCH  18  20
HETATM   20  C3  UNL     1      74.254 -14.842  -0.666  1.00  0.00     0.242 C 
BRANCH  20  21
HETATM   21  N1  UNL     1      74.900 -16.069  -1.020  1.00  0.00    -0.079 N 
ATOM     22  H13 UNL     1      75.808 -16.142  -0.562  1.00  0.00     0.274 HD
ATOM     23  H12 UNL     1      74.425 -16.862  -0.588  1.00  0.00     0.274 HD
ATOM     24  H11 UNL     1      74.993 -16.211  -2.026  1.00  0.00     0.274 HD
ENDBRANCH  20  21
ENDBRANCH  18  20
BRANCH  18  25
HETATM   25  C4  UNL     1      73.938 -15.731   1.597  1.00  0.00     0.176 C 
BRANCH  25  26
HETATM   26  O1  UNL     1      75.071 -16.520   1.818  1.00  0.00    -0.400 OA
ATOM     27  H1  UNL     1      75.102 -17.200   1.155  1.00  0.00     0.209 HD
ENDBRANCH  25  26
ENDBRANCH  18  25
ENDBRANCH  17  18
ENDBRANCH   1  17
BRANCH  12  28
HETATM   28  N4  UNL     1      74.287 -12.936   6.743  1.00  0.00    -0.279 N 
ATOM     29  H4  UNL     1      74.334 -13.657   7.462  1.00  0.00     0.189 HD
BRANCH  28  30
HETATM   30  N5  UNL     1      75.394 -12.095   6.546  1.00  0.00    -0.296 N 
ATOM     31  H5  UNL     1      75.517 -11.287   7.157  1.00  0.00     0.187 HD
BRANCH  30  32
HETATM   32  C11 UNL     1      76.348 -12.334   5.519  1.00  0.00     0.081 A 
HETATM   33  C12 UNL     1      76.553 -11.401   4.526  1.00  0.00     0.034 A 
HETATM   34  C13 UNL     1      77.477 -11.631   3.529  1.00  0.00     0.002 A 
HETATM   35  C14 UNL     1      78.214 -12.800   3.510  1.00  0.00     0.003 A 
HETATM   36  C15 UNL     1      78.018 -13.740   4.498  1.00  0.00     0.039 A 
HETATM   37  C16 UNL     1      77.094 -13.498   5.484  1.00  0.00     0.093 A 
BRANCH  37  38
HETATM   38  O4  UNL     1      76.921 -14.458   6.458  1.00  0.00    -0.358 OA
ATOM     39  H4  UNL     1      77.613 -15.084   6.637  1.00  0.00     0.217 HD
ENDBRANCH  37  38
ENDBRANCH  30  32
ENDBRANCH  28  30
ENDBRANCH  12  28
BRANCH  16  40
HETATM   40  S2  UNL     1      70.710  -9.204   5.498  1.00  0.00    -0.061 SA
BRANCH  40  41
HETATM   41  C19 UNL     1      71.115  -7.920   4.292  1.00  0.00     0.177 A 
HETATM   42  N7  UNL     1      71.645  -6.715   4.536  1.00  0.00    -0.261 N 
HETATM   43  N8  UNL     1      71.790  -6.068   3.386  1.00  0.00    -0.005 NA
ATOM     44  H7  UNL     1      71.898  -6.354   5.456  1.00  0.00     0.186 HD
HETATM   45  N9  UNL     1      71.353  -6.863   2.426  1.00  0.00    -0.224 N 
HETATM   46  N10 UNL     1      70.939  -7.994   2.964  1.00  0.00    -0.266 N 
ATOM     47  H9  UNL     1      71.338  -6.639   1.431  1.00  0.00     0.205 HD
ATOM     48  H10 UNL     1      70.552  -8.789   2.457  1.00  0.00     0.190 HD
ENDBRANCH  40  41
ENDBRANCH  16  40
TORSDOF 12
ENDMDL
MODEL 4
REMARK VINA RESULT: -8.680969387      2.312      2.968
REMARK  12 active torsions:
REMARK  status: ('A' for Active; 'I' for Inactive)
REMARK    1  A    between atoms: C2_2  and  C3_3 
REMARK    2  A    between atoms: C2_2  and  C4_8 
REMARK    3  A    between atoms: C2_2  and  C5_11 
REMARK    4  A    between atoms: C3_3  and  N1_4 
REMARK    5  A    between atoms: C4_8  and  O1_9 
REMARK    6  A    between atoms: C5_11  and  N2_12 
REMARK    7  A    between atoms: C10_23  and  N4_24 
REMARK    8  A    between atoms: N4_24  and  N5_26 
REMARK    9  A    between atoms: N5_26  and  C11_28 
REMARK   10  A    between atoms: C16_33  and  O4_34 
REMARK   11  A    between atoms: C18_39  and  S2_40 
REMARK   12  A    between atoms: S2_40  and  C19_41 
ROOT
HETATM    1  N2  UNL     1      74.051 -12.947   4.421  1.00  0.00    -0.386 N 
ATOM      2  H2  UNL     1      74.312 -13.725   3.816  1.00  0.00     0.159 HD
HETATM    3  C6  UNL     1      73.114 -12.162   4.048  1.00  0.00     0.109 C 
HETATM    4  C7  UNL     1      72.631 -10.996   4.819  1.00  0.00     0.272 C 
HETATM    5  O2  UNL     1      72.891 -10.769   6.044  1.00  0.00    -0.266 OA
HETATM    6  N3  UNL     1      71.839 -10.203   3.940  1.00  0.00    -0.290 N 
ATOM      7  H3  UNL     1      71.369  -9.333   4.188  1.00  0.00     0.172 HD
HETATM    8  C8  UNL     1      71.808 -10.822   2.659  1.00  0.00     0.256 C 
HETATM    9  O3  UNL     1      71.424 -10.294   1.561  1.00  0.00    -0.270 OA
HETATM   10  C9  UNL     1      72.301 -12.180   2.841  1.00  0.00     0.186 C 
HETATM   11  S1  UNL     1      73.187 -12.823   1.376  1.00  0.00    -0.059 SA
HETATM   12  C10 UNL     1      72.607 -14.510   1.579  1.00  0.00     0.161 C 
HETATM   13  N6  UNL     1      71.612 -14.448   2.366  1.00  0.00    -0.337 N 
ATOM     14  H6  UNL     1      71.112 -15.295   2.632  1.00  0.00     0.168 HD
HETATM   15  C17 UNL     1      71.214 -13.216   2.859  1.00  0.00     0.053 C 
HETATM   16  C18 UNL     1      69.990 -12.915   3.322  1.00  0.00     0.081 C 
ENDROOT
BRANCH   1  17
HETATM   17  C5  UNL     1      74.754 -12.769   5.672  1.00  0.00     0.132 C 
BRANCH  17  18
HETATM   18  C2  UNL     1      76.225 -12.986   5.495  1.00  0.00     0.017 C 
HETATM   19  C1  UNL     1      76.762 -12.200   4.318  1.00  0.00     0.021 C 
BRANCH  18  20
HETATM   20  C3  UNL     1      76.442 -14.449   5.169  1.00  0.00     0.242 C 
BRANCH  20  21
HETATM   21  N1  UNL     1      77.804 -14.783   4.882  1.00  0.00    -0.079 N 
ATOM     22  H13 UNL     1      77.980 -15.768   5.077  1.00  0.00     0.274 HD
ATOM     23  H12 UNL     1      77.971 -14.774   3.876  1.00  0.00     0.274 HD
ATOM     24  H11 UNL     1      78.483 -14.194   5.364  1.00  0.00     0.274 HD
ENDBRANCH  20  21
ENDBRANCH  18  20
BRANCH  18  25
HETATM   25  C4  UNL     1      77.005 -12.669   6.758  1.00  0.00     0.176 C 
BRANCH  25  26
HETATM   26  O1  UNL     1      77.003 -13.800   7.581  1.00  0.00    -0.400 OA
ATOM     27  H1  UNL     1      76.570 -13.580   8.398  1.00  0.00     0.209 HD
ENDBRANCH  25  26
ENDBRANCH  18  25
ENDBRANCH  17  18
ENDBRANCH   1  17
BRANCH  12  28
HETATM   28  N4  UNL     1      73.143 -15.685   0.984  1.00  0.00    -0.279 N 
ATOM     29  H4  UNL     1      72.641 -16.125   0.214  1.00  0.00     0.189 HD
BRANCH  28  30
HETATM   30  N5  UNL     1      74.346 -16.256   1.431  1.00  0.00    -0.296 N 
ATOM     31  H5  UNL     1      74.316 -16.955   2.174  1.00  0.00     0.187 HD
BRANCH  30  32
HETATM   32  C11 UNL     1      75.604 -15.889   0.878  1.00  0.00     0.081 A 
HETATM   33  C12 UNL     1      76.480 -15.106   1.599  1.00  0.00     0.034 A 
HETATM   34  C13 UNL     1      77.700 -14.748   1.066  1.00  0.00     0.002 A 
HETATM   35  C14 UNL     1      78.065 -15.169  -0.199  1.00  0.00     0.003 A 
HETATM   36  C15 UNL     1      77.197 -15.953  -0.929  1.00  0.00     0.039 A 
HETATM   37  C16 UNL     1      75.986 -16.301  -0.385  1.00  0.00     0.093 A 
BRANCH  37  38
HETATM   38  O4  UNL     1      75.140 -17.085  -1.140  1.00  0.00    -0.358 OA
ATOM     39  H4  UNL     1      75.458 -17.894  -1.524  1.00  0.00     0.217 HD
ENDBRANCH  37  38
ENDBRANCH  30  32
ENDBRANCH  28  30
ENDBRANCH  12  28
BRANCH  16  40
HETATM   40  S2  UNL     1      68.662 -14.102   3.369  1.00  0.00    -0.061 SA
BRANCH  40  41
HETATM   41  C19 UNL     1      69.111 -15.514   4.404  1.00  0.00     0.177 A 
HETATM   42  N7  UNL     1      68.998 -16.812   4.100  1.00  0.00    -0.261 N 
HETATM   43  N8  UNL     1      69.435 -17.534   5.124  1.00  0.00    -0.005 NA
ATOM     44  H7  UNL     1      68.635 -17.186   3.222  1.00  0.00     0.186 HD
HETATM   45  N9  UNL     1      69.821 -16.692   6.066  1.00  0.00    -0.224 N 
HETATM   46  N10 UNL     1      69.629 -15.459   5.640  1.00  0.00    -0.266 N 
ATOM     47  H9  UNL     1      70.205 -16.953   6.974  1.00  0.00     0.205 HD
ATOM     48  H10 UNL     1      69.839 -14.609   6.162  1.00  0.00     0.190 HD
ENDBRANCH  40  41
ENDBRANCH  16  40
TORSDOF 12
ENDMDL
MODEL 5
REMARK VINA RESULT: -8.654901035      4.212      8.022
REMARK  12 active torsions:
REMARK  status: ('A' for Active; 'I' for Inactive)
REMARK    1  A    between atoms: C2_2  and  C3_3 
REMARK    2  A    between atoms: C2_2  and  C4_8 
REMARK    3  A    between atoms: C2_2  and  C5_11 
REMARK    4  A    between atoms: C3_3  and  N1_4 
REMARK    5  A    between atoms: C4_8  and  O1_9 
REMARK    6  A    between atoms: C5_11  and  N2_12 
REMARK    7  A    between atoms: C10_23  and  N4_24 
REMARK    8  A    between atoms: N4_24  and  N5_26 
REMARK    9  A    between atoms: N5_26  and  C11_28 
REMARK   10  A    between atoms: C16_33  and  O4_34 
REMARK   11  A    between atoms: C18_39  and  S2_40 
REMARK   12  A    between atoms: S2_40  and  C19_41 
ROOT
HETATM    1  N2  UNL     1      75.223 -11.629   4.035  1.00  0.00    -0.386 N 
ATOM      2  H2  UNL     1      75.293 -11.356   5.015  1.00  0.00     0.159 HD
HETATM    3  C6  UNL     1      74.146 -12.184   3.624  1.00  0.00     0.109 C 
HETATM    4  C7  UNL     1      73.903 -12.631   2.235  1.00  0.00     0.272 C 
HETATM    5  O2  UNL     1      74.604 -12.300   1.226  1.00  0.00    -0.266 OA
HETATM    6  N3  UNL     1      72.760 -13.480   2.256  1.00  0.00    -0.290 N 
ATOM      7  H3  UNL     1      72.349 -13.941   1.444  1.00  0.00     0.172 HD
HETATM    8  C8  UNL     1      72.282 -13.581   3.593  1.00  0.00     0.256 C 
HETATM    9  O3  UNL     1      71.450 -14.437   4.046  1.00  0.00    -0.270 OA
HETATM   10  C9  UNL     1      72.929 -12.517   4.347  1.00  0.00     0.186 C 
HETATM   11  S1  UNL     1      73.219 -12.955   6.099  1.00  0.00    -0.059 SA
HETATM   12  C10 UNL     1      72.922 -11.296   6.719  1.00  0.00     0.161 C 
HETATM   13  N6  UNL     1      72.318 -10.676   5.790  1.00  0.00    -0.337 N 
ATOM     14  H6  UNL     1      72.043  -9.702   5.914  1.00  0.00     0.168 HD
HETATM   15  C17 UNL     1      72.037 -11.337   4.605  1.00  0.00     0.053 C 
HETATM   16  C18 UNL     1      71.073 -11.003   3.731  1.00  0.00     0.081 C 
ENDROOT
BRANCH   1  17
HETATM   17  C5  UNL     1      76.343 -11.374   3.157  1.00  0.00     0.132 C 
BRANCH  17  18
HETATM   18  C2  UNL     1      77.522 -12.215   3.537  1.00  0.00     0.017 C 
HETATM   19  C1  UNL     1      77.914 -13.156   2.417  1.00  0.00     0.021 C 
BRANCH  18  20
HETATM   20  C3  UNL     1      77.114 -13.086   4.706  1.00  0.00     0.242 C 
BRANCH  20  21
HETATM   21  N1  UNL     1      77.897 -12.876   5.886  1.00  0.00    -0.079 N 
ATOM     22  H13 UNL     1      77.837 -13.684   6.505  1.00  0.00     0.274 HD
ATOM     23  H12 UNL     1      78.892 -12.901   5.665  1.00  0.00     0.274 HD
ATOM     24  H11 UNL     1      77.662 -12.021   6.389  1.00  0.00     0.274 HD
ENDBRANCH  20  21
ENDBRANCH  18  20
BRANCH  18  25
HETATM   25  C4  UNL     1      78.707 -11.372   3.973  1.00  0.00     0.176 C 
BRANCH  25  26
HETATM   26  O1  UNL     1      78.228 -10.201   4.568  1.00  0.00    -0.400 OA
ATOM     27  H1  UNL     1      78.681  -9.459   4.185  1.00  0.00     0.209 HD
ENDBRANCH  25  26
ENDBRANCH  18  25
ENDBRANCH  17  18
ENDBRANCH   1  17
BRANCH  12  28
HETATM   28  N4  UNL     1      73.285 -10.771   7.990  1.00  0.00    -0.279 N 
ATOM     29  H4  UNL     1      73.146 -11.344   8.822  1.00  0.00     0.189 HD
BRANCH  28  30
HETATM   30  N5  UNL     1      73.828  -9.484   8.129  1.00  0.00    -0.296 N 
ATOM     31  H5  UNL     1      73.258  -8.676   7.876  1.00  0.00     0.187 HD
BRANCH  30  32
HETATM   32  C11 UNL     1      75.149  -9.273   8.613  1.00  0.00     0.081 A 
HETATM   33  C12 UNL     1      75.360  -8.564   9.775  1.00  0.00     0.034 A 
HETATM   34  C13 UNL     1      76.640  -8.357  10.247  1.00  0.00     0.002 A 
HETATM   35  C14 UNL     1      77.730  -8.858   9.561  1.00  0.00     0.003 A 
HETATM   36  C15 UNL     1      77.530  -9.569   8.397  1.00  0.00     0.039 A 
HETATM   37  C16 UNL     1      76.251  -9.767   7.941  1.00  0.00     0.093 A 
BRANCH  37  38
HETATM   38  O4  UNL     1      76.085 -10.481   6.774  1.00  0.00    -0.358 OA
ATOM     39  H4  UNL     1      76.538 -10.213   5.983  1.00  0.00     0.217 HD
ENDBRANCH  37  38
ENDBRANCH  30  32
ENDBRANCH  28  30
ENDBRANCH  12  28
BRANCH  16  40
HETATM   40  S2  UNL     1      69.985  -9.615   3.984  1.00  0.00    -0.061 SA
BRANCH  40  41
HETATM   41  C19 UNL     1      70.905  -8.063   3.873  1.00  0.00     0.177 A 
HETATM   42  N7  UNL     1      71.339  -7.303   4.886  1.00  0.00    -0.261 N 
HETATM   43  N8  UNL     1      71.972  -6.247   4.390  1.00  0.00    -0.005 NA
ATOM     44  H7  UNL     1      71.206  -7.504   5.877  1.00  0.00     0.186 HD
HETATM   45  N9  UNL     1      71.935  -6.344   3.073  1.00  0.00    -0.224 N 
HETATM   46  N10 UNL     1      71.288  -7.445   2.745  1.00  0.00    -0.266 N 
ATOM     47  H9  UNL     1      72.340  -5.676   2.418  1.00  0.00     0.205 HD
ATOM     48  H10 UNL     1      71.111  -7.772   1.797  1.00  0.00     0.190 HD
ENDBRANCH  40  41
ENDBRANCH  16  40
TORSDOF 12
ENDMDL
