MODEL 1
REMARK VINA RESULT: -7.902545927      0.000      0.000
REMARK  13 active torsions:
REMARK  status: ('A' for Active; 'I' for Inactive)
REMARK    1  A    between atoms: C2_2  and  O1_3 
REMARK    2  A    between atoms: O1_3  and  S1_4 
REMARK    3  A    between atoms: S1_4  and  N1_7 
REMARK       I    between atoms: N1_7  and  C3_9 
REMARK    4  A    between atoms: C3_9  and  O5_11 
REMARK    5  A    between atoms: O5_11  and  N2_12 
REMARK    6  A    between atoms: N2_12  and  C4_14 
REMARK    7  A    between atoms: C6_17  and  N3_18 
REMARK    8  A    between atoms: C10_28  and  C11_29 
REMARK    9  A    between atoms: C11_29  and  N7_34 
REMARK   10  A    between atoms: N6_30  and  O6_32 
REMARK   11  A    between atoms: N7_34  and  C12_36 
REMARK   12  A    between atoms: C12_36  and  C13_37 
REMARK   13  A    between atoms: C13_37  and  S3_38 
ROOT
HETATM    1  C4  UNL     1      70.504 -14.656   4.049  1.00  0.00     0.113 A 
HETATM    2  S2  UNL     1      70.519 -15.365   5.610  1.00  0.00    -0.064 SA
HETATM    3  C5  UNL     1      70.096 -16.955   5.189  1.00  0.00     0.078 A 
HETATM    4  C6  UNL     1      69.914 -18.132   5.925  1.00  0.00     0.119 A 
HETATM    5  N4  UNL     1      69.583 -19.282   5.316  1.00  0.00    -0.332 N 
ATOM      6  H4  UNL     1      69.445 -20.151   5.832  1.00  0.00     0.168 HD
HETATM    7  C7  UNL     1      69.444 -19.211   3.979  1.00  0.00     0.079 A 
HETATM    8  C8  UNL     1      69.071 -20.485   3.249  1.00  0.00     0.089 C 
HETATM    9  N5  UNL     1      69.613 -18.105   3.264  1.00  0.00    -0.344 N 
ATOM     10  H5  UNL     1      69.487 -18.150   2.253  1.00  0.00     0.167 HD
HETATM   11  C9  UNL     1      69.951 -16.901   3.833  1.00  0.00     0.071 A 
HETATM   12  C10 UNL     1      70.166 -15.698   3.244  1.00  0.00     0.073 A 
ENDROOT
BRANCH   1  13
HETATM   13  N2  UNL     1      70.794 -13.285   3.743  1.00  0.00    -0.248 N 
ATOM     14  H2  UNL     1      70.049 -12.628   3.514  1.00  0.00     0.195 HD
BRANCH  13  15
HETATM   15  O5  UNL     1      72.110 -12.886   3.768  1.00  0.00    -0.179 OA
BRANCH  15  16
HETATM   16  C3  UNL     1      72.932 -13.340   2.764  1.00  0.00     0.397 C 
HETATM   17  N1  UNL     1      73.985 -14.233   3.068  1.00  0.00    -0.205 N 
ATOM     18  H1  UNL     1      74.108 -14.516   4.041  1.00  0.00     0.186 HD
HETATM   19  O4  UNL     1      72.776 -12.984   1.571  1.00  0.00    -0.235 OA
BRANCH  17  20
HETATM   20  S1  UNL     1      75.077 -14.871   1.889  1.00  0.00     0.366 S 
HETATM   21  O2  UNL     1      75.961 -13.740   1.408  1.00  0.00    -0.175 OA
HETATM   22  O3  UNL     1      75.982 -15.906   2.500  1.00  0.00    -0.175 OA
BRANCH  20  23
HETATM   23  O1  UNL     1      74.270 -15.604   0.626  1.00  0.00    -0.260 OA
BRANCH  23  24
HETATM   24  C2  UNL     1      74.843 -15.345  -0.620  1.00  0.00     0.187 C 
HETATM   25  C1  UNL     1      75.732 -16.504  -1.006  1.00  0.00     0.035 C 
ENDBRANCH  23  24
ENDBRANCH  20  23
ENDBRANCH  17  20
ENDBRANCH  15  16
ENDBRANCH  13  15
ENDBRANCH   1  13
BRANCH  12  26
HETATM   26  C11 UNL     1      70.071 -15.487   1.773  1.00  0.00     0.136 C 
HETATM   27  N6  UNL     1      71.151 -15.498   1.131  1.00  0.00    -0.252 N 
ATOM     28  H6  UNL     1      71.969 -15.656   1.719  1.00  0.00     0.196 HD
BRANCH  27  29
HETATM   29  O6  UNL     1      71.450 -15.346  -0.158  1.00  0.00    -0.288 OA
ATOM     30  H6  UNL     1      71.768 -14.613  -0.672  1.00  0.00     0.244 HD
ENDBRANCH  27  29
BRANCH  26  31
HETATM   31  N7  UNL     1      68.826 -15.255   1.159  1.00  0.00    -0.373 N 
ATOM     32  H7  UNL     1      68.458 -16.006   0.575  1.00  0.00     0.161 HD
BRANCH  31  33
HETATM   33  C12 UNL     1      68.019 -14.070   1.268  1.00  0.00     0.139 C 
BRANCH  33  34
HETATM   34  C13 UNL     1      66.550 -14.290   1.403  1.00  0.00     0.184 C 
BRANCH  34  35
HETATM   35  S3  UNL     1      66.195 -15.458   2.722  1.00  0.00     0.103 S 
HETATM   36  O7  UNL     1      64.734 -15.484   3.054  1.00  0.00    -0.595 OA
HETATM   37  O8  UNL     1      66.965 -15.087   3.952  1.00  0.00    -0.595 OA
HETATM   38  O9  UNL     1      66.726 -16.990   2.241  1.00  0.00    -0.595 OA
ENDBRANCH  34  35
ENDBRANCH  33  34
ENDBRANCH  31  33
ENDBRANCH  26  31
ENDBRANCH  12  26
BRANCH   4  39
HETATM   39  N3  UNL     1      70.076 -18.065   7.196  1.00  0.00    -0.384 N 
ATOM     40  H32 UNL     1      71.004 -18.026   7.616  1.00  0.00     0.157 HD
ATOM     41  H31 UNL     1      69.237 -18.054   7.776  1.00  0.00     0.157 HD
ENDBRANCH   4  39
TORSDOF 13
ENDMDL
MODEL 2
REMARK VINA RESULT: -7.861187605      6.191      9.708
REMARK  13 active torsions:
REMARK  status: ('A' for Active; 'I' for Inactive)
REMARK    1  A    between atoms: C2_2  and  O1_3 
REMARK    2  A    between atoms: O1_3  and  S1_4 
REMARK    3  A    between atoms: S1_4  and  N1_7 
REMARK       I    between atoms: N1_7  and  C3_9 
REMARK    4  A    between atoms: C3_9  and  O5_11 
REMARK    5  A    between atoms: O5_11  and  N2_12 
REMARK    6  A    between atoms: N2_12  and  C4_14 
REMARK    7  A    between atoms: C6_17  and  N3_18 
REMARK    8  A    between atoms: C10_28  and  C11_29 
REMARK    9  A    between atoms: C11_29  and  N7_34 
REMARK   10  A    between atoms: N6_30  and  O6_32 
REMARK   11  A    between atoms: N7_34  and  C12_36 
REMARK   12  A    between atoms: C12_36  and  C13_37 
REMARK   13  A    between atoms: C13_37  and  S3_38 
ROOT
HETATM    1  C4  UNL     1      78.182 -12.334   5.371  1.00  0.00     0.113 A 
HETATM    2  S2  UNL     1      79.099 -11.511   4.179  1.00  0.00    -0.064 SA
HETATM    3  C5  UNL     1      78.742 -12.492   2.839  1.00  0.00     0.078 A 
HETATM    4  C6  UNL     1      79.115 -12.457   1.490  1.00  0.00     0.119 A 
HETATM    5  N4  UNL     1      78.663 -13.378   0.624  1.00  0.00    -0.332 N 
ATOM      6  H4  UNL     1      78.922 -13.371  -0.362  1.00  0.00     0.168 HD
HETATM    7  C7  UNL     1      77.844 -14.311   1.146  1.00  0.00     0.079 A 
HETATM    8  C8  UNL     1      77.309 -15.370   0.206  1.00  0.00     0.089 C 
HETATM    9  N5  UNL     1      77.479 -14.360   2.422  1.00  0.00    -0.344 N 
ATOM     10  H5  UNL     1      76.852 -15.106   2.723  1.00  0.00     0.167 HD
HETATM   11  C9  UNL     1      77.911 -13.446   3.351  1.00  0.00     0.071 A 
HETATM   12  C10 UNL     1      77.623 -13.357   4.674  1.00  0.00     0.073 A 
ENDROOT
BRANCH   1  13
HETATM   13  N2  UNL     1      78.077 -11.968   6.754  1.00  0.00    -0.248 N 
ATOM     14  H2  UNL     1      77.583 -12.562   7.420  1.00  0.00     0.195 HD
BRANCH  13  15
HETATM   15  O5  UNL     1      78.664 -10.790   7.153  1.00  0.00    -0.179 OA
BRANCH  15  16
HETATM   16  C3  UNL     1      77.963  -9.996   8.031  1.00  0.00     0.397 C 
HETATM   17  N1  UNL     1      76.658  -9.564   7.698  1.00  0.00    -0.205 N 
ATOM     18  H1  UNL     1      76.270  -9.858   6.802  1.00  0.00     0.186 HD
HETATM   19  O4  UNL     1      78.450  -9.637   9.130  1.00  0.00    -0.235 OA
BRANCH  17  20
HETATM   20  S1  UNL     1      75.684  -8.568   8.723  1.00  0.00     0.366 S 
HETATM   21  O2  UNL     1      76.365  -7.224   8.855  1.00  0.00    -0.175 OA
HETATM   22  O3  UNL     1      74.336  -8.319   8.104  1.00  0.00    -0.175 OA
BRANCH  20  23
HETATM   23  O1  UNL     1      75.421  -9.276  10.211  1.00  0.00    -0.260 OA
BRANCH  23  24
HETATM   24  C2  UNL     1      74.338  -8.728  10.899  1.00  0.00     0.187 C 
HETATM   25  C1  UNL     1      74.772  -8.371  12.301  1.00  0.00     0.035 C 
ENDBRANCH  23  24
ENDBRANCH  20  23
ENDBRANCH  17  20
ENDBRANCH  15  16
ENDBRANCH  13  15
ENDBRANCH   1  13
BRANCH  12  26
HETATM   26  C11 UNL     1      76.713 -14.308   5.371  1.00  0.00     0.136 C 
HETATM   27  N6  UNL     1      77.247 -15.316   5.898  1.00  0.00    -0.252 N 
ATOM     28  H6  UNL     1      78.259 -15.348   5.775  1.00  0.00     0.196 HD
BRANCH  27  29
HETATM   29  O6  UNL     1      76.767 -16.352   6.582  1.00  0.00    -0.288 OA
ATOM     30  H6  UNL     1      77.098 -16.861   7.313  1.00  0.00     0.244 HD
ENDBRANCH  27  29
BRANCH  26  31
HETATM   31  N7  UNL     1      75.323 -14.085   5.397  1.00  0.00    -0.373 N 
ATOM     32  H7  UNL     1      74.889 -14.018   6.317  1.00  0.00     0.161 HD
BRANCH  31  33
HETATM   33  C12 UNL     1      74.453 -13.942   4.262  1.00  0.00     0.139 C 
BRANCH  33  34
HETATM   34  C13 UNL     1      73.881 -12.582   4.044  1.00  0.00     0.184 C 
BRANCH  34  35
HETATM   35  S3  UNL     1      73.678 -11.715   5.605  1.00  0.00     0.103 S 
HETATM   36  O7  UNL     1      74.986 -11.192   6.117  1.00  0.00    -0.595 OA
HETATM   37  O8  UNL     1      73.092 -12.638   6.629  1.00  0.00    -0.595 OA
HETATM   38  O9  UNL     1      72.576 -10.452   5.379  1.00  0.00    -0.595 OA
ENDBRANCH  34  35
ENDBRANCH  33  34
ENDBRANCH  31  33
ENDBRANCH  26  31
ENDBRANCH  12  26
BRANCH   4  39
HETATM   39  N3  UNL     1      79.903 -11.514   1.120  1.00  0.00    -0.384 N 
ATOM     40  H32 UNL     1      80.502 -11.608   0.299  1.00  0.00     0.157 HD
ATOM     41  H31 UNL     1      79.910 -10.661   1.679  1.00  0.00     0.157 HD
ENDBRANCH   4  39
TORSDOF 13
ENDMDL
MODEL 3
REMARK VINA RESULT: -7.782514597      6.993     10.901
REMARK  13 active torsions:
REMARK  status: ('A' for Active; 'I' for Inactive)
REMARK    1  A    between atoms: C2_2  and  O1_3 
REMARK    2  A    between atoms: O1_3  and  S1_4 
REMARK    3  A    between atoms: S1_4  and  N1_7 
REMARK       I    between atoms: N1_7  and  C3_9 
REMARK    4  A    between atoms: C3_9  and  O5_11 
REMARK    5  A    between atoms: O5_11  and  N2_12 
REMARK    6  A    between atoms: N2_12  and  C4_14 
REMARK    7  A    between atoms: C6_17  and  N3_18 
REMARK    8  A    between atoms: C10_28  and  C11_29 
REMARK    9  A    between atoms: C11_29  and  N7_34 
REMARK   10  A    between atoms: N6_30  and  O6_32 
REMARK   11  A    between atoms: N7_34  and  C12_36 
REMARK   12  A    between atoms: C12_36  and  C13_37 
REMARK   13  A    between atoms: C13_37  and  S3_38 
ROOT
HETATM    1  C4  UNL     1      78.423 -11.122   5.840  1.00  0.00     0.113 A 
HETATM    2  S2  UNL     1      80.035 -10.539   5.846  1.00  0.00    -0.064 SA
HETATM    3  C5  UNL     1      80.499 -11.005   4.280  1.00  0.00     0.078 A 
HETATM    4  C6  UNL     1      81.681 -10.868   3.542  1.00  0.00     0.119 A 
HETATM    5  N4  UNL     1      81.768 -11.333   2.286  1.00  0.00    -0.332 N 
ATOM      6  H4  UNL     1      82.618 -11.244   1.731  1.00  0.00     0.168 HD
HETATM    7  C7  UNL     1      80.657 -11.926   1.809  1.00  0.00     0.079 A 
HETATM    8  C8  UNL     1      80.708 -12.466   0.396  1.00  0.00     0.089 C 
HETATM    9  N5  UNL     1      79.527 -12.066   2.494  1.00  0.00    -0.344 N 
ATOM     10  H5  UNL     1      78.737 -12.529   2.046  1.00  0.00     0.167 HD
HETATM   11  C9  UNL     1      79.382 -11.610   3.781  1.00  0.00     0.071 A 
HETATM   12  C10 UNL     1      78.301 -11.667   4.601  1.00  0.00     0.073 A 
ENDROOT
BRANCH   1  13
HETATM   13  N2  UNL     1      77.486 -11.020   6.920  1.00  0.00    -0.248 N 
ATOM     14  H2  UNL     1      76.488 -11.166   6.767  1.00  0.00     0.195 HD
BRANCH  13  15
HETATM   15  O5  UNL     1      77.975 -10.718   8.169  1.00  0.00    -0.179 OA
BRANCH  15  16
HETATM   16  C3  UNL     1      77.280  -9.798   8.919  1.00  0.00     0.397 C 
HETATM   17  N1  UNL     1      75.868  -9.838   8.946  1.00  0.00    -0.205 N 
ATOM     18  H1  UNL     1      75.397 -10.558   8.399  1.00  0.00     0.186 HD
HETATM   19  O4  UNL     1      77.867  -8.913   9.587  1.00  0.00    -0.235 OA
BRANCH  17  20
HETATM   20  S1  UNL     1      74.892  -8.736   9.854  1.00  0.00     0.366 S 
HETATM   21  O2  UNL     1      75.080  -7.352   9.271  1.00  0.00    -0.175 OA
HETATM   22  O3  UNL     1      73.432  -9.075   9.719  1.00  0.00    -0.175 OA
BRANCH  20  23
HETATM   23  O1  UNL     1      75.259  -8.775  11.482  1.00  0.00    -0.260 OA
BRANCH  23  24
HETATM   24  C2  UNL     1      74.132  -8.722  12.303  1.00  0.00     0.187 C 
HETATM   25  C1  UNL     1      73.899  -7.292  12.730  1.00  0.00     0.035 C 
ENDBRANCH  23  24
ENDBRANCH  20  23
ENDBRANCH  17  20
ENDBRANCH  15  16
ENDBRANCH  13  15
ENDBRANCH   1  13
BRANCH  12  26
HETATM   26  C11 UNL     1      77.004 -12.272   4.190  1.00  0.00     0.136 C 
HETATM   27  N6  UNL     1      76.253 -11.562   3.474  1.00  0.00    -0.252 N 
ATOM     28  H6  UNL     1      76.644 -10.644   3.264  1.00  0.00     0.196 HD
BRANCH  27  29
HETATM   29  O6  UNL     1      75.052 -11.759   2.934  1.00  0.00    -0.288 OA
ATOM     30  H6  UNL     1      74.755 -11.920   2.046  1.00  0.00     0.244 HD
ENDBRANCH  27  29
BRANCH  26  31
HETATM   31  N7  UNL     1      76.643 -13.562   4.621  1.00  0.00    -0.373 N 
ATOM     32  H7  UNL     1      75.911 -13.619   5.329  1.00  0.00     0.161 HD
BRANCH  31  33
HETATM   33  C12 UNL     1      77.198 -14.808   4.167  1.00  0.00     0.139 C 
BRANCH  33  34
HETATM   34  C13 UNL     1      77.185 -15.031   2.693  1.00  0.00     0.184 C 
BRANCH  34  35
HETATM   35  S3  UNL     1      75.503 -15.199   2.085  1.00  0.00     0.103 S 
HETATM   36  O7  UNL     1      75.206 -16.610   1.673  1.00  0.00    -0.595 OA
HETATM   37  O8  UNL     1      75.294 -14.297   0.908  1.00  0.00    -0.595 OA
HETATM   38  O9  UNL     1      74.439 -14.695   3.299  1.00  0.00    -0.595 OA
ENDBRANCH  34  35
ENDBRANCH  33  34
ENDBRANCH  31  33
ENDBRANCH  26  31
ENDBRANCH  12  26
BRANCH   4  39
HETATM   39  N3  UNL     1      82.669 -10.283   4.114  1.00  0.00    -0.384 N 
ATOM     40  H32 UNL     1      82.612  -9.312   4.422  1.00  0.00     0.157 HD
ATOM     41  H31 UNL     1      83.521 -10.826   4.251  1.00  0.00     0.157 HD
ENDBRANCH   4  39
TORSDOF 13
ENDMDL
MODEL 4
REMARK VINA RESULT: -7.696776620      6.934     10.403
REMARK  13 active torsions:
REMARK  status: ('A' for Active; 'I' for Inactive)
REMARK    1  A    between atoms: C2_2  and  O1_3 
REMARK    2  A    between atoms: O1_3  and  S1_4 
REMARK    3  A    between atoms: S1_4  and  N1_7 
REMARK       I    between atoms: N1_7  and  C3_9 
REMARK    4  A    between atoms: C3_9  and  O5_11 
REMARK    5  A    between atoms: O5_11  and  N2_12 
REMARK    6  A    between atoms: N2_12  and  C4_14 
REMARK    7  A    between atoms: C6_17  and  N3_18 
REMARK    8  A    between atoms: C10_28  and  C11_29 
REMARK    9  A    between atoms: C11_29  and  N7_34 
REMARK   10  A    between atoms: N6_30  and  O6_32 
REMARK   11  A    between atoms: N7_34  and  C12_36 
REMARK   12  A    between atoms: C12_36  and  C13_37 
REMARK   13  A    between atoms: C13_37  and  S3_38 
ROOT
HETATM    1  C4  UNL     1      78.443 -11.461   6.272  1.00  0.00     0.113 A 
HETATM    2  S2  UNL     1      80.034 -10.830   6.373  1.00  0.00    -0.064 SA
HETATM    3  C5  UNL     1      80.529 -11.086   4.769  1.00  0.00     0.078 A 
HETATM    4  C6  UNL     1      81.714 -10.821   4.071  1.00  0.00     0.119 A 
HETATM    5  N4  UNL     1      81.831 -11.127   2.769  1.00  0.00    -0.332 N 
ATOM      6  H4  UNL     1      82.683 -10.943   2.241  1.00  0.00     0.168 HD
HETATM    7  C7  UNL     1      80.746 -11.694   2.207  1.00  0.00     0.079 A 
HETATM    8  C8  UNL     1      80.831 -12.055   0.740  1.00  0.00     0.089 C 
HETATM    9  N5  UNL     1      79.614 -11.953   2.853  1.00  0.00    -0.344 N 
ATOM     10  H5  UNL     1      78.845 -12.384   2.341  1.00  0.00     0.167 HD
HETATM   11  C9  UNL     1      79.440 -11.662   4.184  1.00  0.00     0.071 A 
HETATM   12  C10 UNL     1      78.353 -11.855   4.974  1.00  0.00     0.073 A 
ENDROOT
BRANCH   1  13
HETATM   13  N2  UNL     1      77.491 -11.522   7.342  1.00  0.00    -0.248 N 
ATOM     14  H2  UNL     1      77.323 -12.392   7.849  1.00  0.00     0.195 HD
BRANCH  13  15
HETATM   15  O5  UNL     1      76.811 -10.371   7.665  1.00  0.00    -0.179 OA
BRANCH  15  16
HETATM   16  C3  UNL     1      75.453 -10.353   7.450  1.00  0.00     0.397 C 
HETATM   17  N1  UNL     1      74.594  -9.811   8.434  1.00  0.00    -0.205 N 
ATOM     18  H1  UNL     1      75.014  -9.446   9.289  1.00  0.00     0.186 HD
HETATM   19  O4  UNL     1      74.945 -10.808   6.397  1.00  0.00    -0.235 OA
BRANCH  17  20
HETATM   20  S1  UNL     1      72.874  -9.733   8.272  1.00  0.00     0.366 S 
HETATM   21  O2  UNL     1      72.554  -8.858   7.080  1.00  0.00    -0.175 OA
HETATM   22  O3  UNL     1      72.300 -11.094   7.985  1.00  0.00    -0.175 OA
BRANCH  20  23
HETATM   23  O1  UNL     1      72.143  -9.172   9.664  1.00  0.00    -0.260 OA
BRANCH  23  24
HETATM   24  C2  UNL     1      72.861  -9.470  10.822  1.00  0.00     0.187 C 
HETATM   25  C1  UNL     1      72.564  -8.423  11.870  1.00  0.00     0.035 C 
ENDBRANCH  23  24
ENDBRANCH  20  23
ENDBRANCH  17  20
ENDBRANCH  15  16
ENDBRANCH  13  15
ENDBRANCH   1  13
BRANCH  12  26
HETATM   26  C11 UNL     1      77.082 -12.447   4.474  1.00  0.00     0.136 C 
HETATM   27  N6  UNL     1      76.234 -11.647   4.003  1.00  0.00    -0.252 N 
ATOM     28  H6  UNL     1      76.541 -10.674   4.025  1.00  0.00     0.196 HD
BRANCH  27  29
HETATM   29  O6  UNL     1      75.020 -11.806   3.480  1.00  0.00    -0.288 OA
ATOM     30  H6  UNL     1      74.273 -11.228   3.379  1.00  0.00     0.244 HD
ENDBRANCH  27  29
BRANCH  26  31
HETATM   31  N7  UNL     1      76.849 -13.832   4.565  1.00  0.00    -0.373 N 
ATOM     32  H7  UNL     1      76.186 -14.138   5.277  1.00  0.00     0.161 HD
BRANCH  31  33
HETATM   33  C12 UNL     1      77.448 -14.861   3.759  1.00  0.00     0.139 C 
BRANCH  33  34
HETATM   34  C13 UNL     1      77.135 -14.815   2.302  1.00  0.00     0.184 C 
BRANCH  34  35
HETATM   35  S3  UNL     1      75.399 -15.177   2.007  1.00  0.00     0.103 S 
HETATM   36  O7  UNL     1      74.545 -14.753   3.165  1.00  0.00    -0.595 OA
HETATM   37  O8  UNL     1      75.216 -16.647   1.785  1.00  0.00    -0.595 OA
HETATM   38  O9  UNL     1      74.918 -14.391   0.590  1.00  0.00    -0.595 OA
ENDBRANCH  34  35
ENDBRANCH  33  34
ENDBRANCH  31  33
ENDBRANCH  26  31
ENDBRANCH  12  26
BRANCH   4  39
HETATM   39  N3  UNL     1      82.675 -10.278   4.724  1.00  0.00    -0.384 N 
ATOM     40  H32 UNL     1      82.508  -9.733   5.570  1.00  0.00     0.157 HD
ATOM     41  H31 UNL     1      83.621 -10.411   4.365  1.00  0.00     0.157 HD
ENDBRANCH   4  39
TORSDOF 13
ENDMDL
MODEL 5
REMARK VINA RESULT: -7.672017576      1.007      1.318
REMARK  13 active torsions:
REMARK  status: ('A' for Active; 'I' for Inactive)
REMARK    1  A    between atoms: C2_2  and  O1_3 
REMARK    2  A    between atoms: O1_3  and  S1_4 
REMARK    3  A    between atoms: S1_4  and  N1_7 
REMARK       I    between atoms: N1_7  and  C3_9 
REMARK    4  A    between atoms: C3_9  and  O5_11 
REMARK    5  A    between atoms: O5_11  and  N2_12 
REMARK    6  A    between atoms: N2_12  and  C4_14 
REMARK    7  A    between atoms: C6_17  and  N3_18 
REMARK    8  A    between atoms: C10_28  and  C11_29 
REMARK    9  A    between atoms: C11_29  and  N7_34 
REMARK   10  A    between atoms: N6_30  and  O6_32 
REMARK   11  A    between atoms: N7_34  and  C12_36 
REMARK   12  A    between atoms: C12_36  and  C13_37 
REMARK   13  A    between atoms: C13_37  and  S3_38 
ROOT
HETATM    1  C4  UNL     1      70.590 -14.641   4.044  1.00  0.00     0.113 A 
HETATM    2  S2  UNL     1      70.639 -15.324   5.616  1.00  0.00    -0.064 SA
HETATM    3  C5  UNL     1      70.081 -16.886   5.250  1.00  0.00     0.078 A 
HETATM    4  C6  UNL     1      69.855 -18.034   6.019  1.00  0.00     0.119 A 
HETATM    5  N4  UNL     1      69.409 -19.167   5.452  1.00  0.00    -0.332 N 
ATOM      6  H4  UNL     1      69.238 -20.014   5.992  1.00  0.00     0.168 HD
HETATM    7  C7  UNL     1      69.203 -19.108   4.123  1.00  0.00     0.079 A 
HETATM    8  C8  UNL     1      68.701 -20.362   3.440  1.00  0.00     0.089 C 
HETATM    9  N5  UNL     1      69.412 -18.028   3.378  1.00  0.00    -0.344 N 
ATOM     10  H5  UNL     1      69.228 -18.081   2.376  1.00  0.00     0.167 HD
HETATM   11  C9  UNL     1      69.866 -16.843   3.903  1.00  0.00     0.071 A 
HETATM   12  C10 UNL     1      70.134 -15.668   3.279  1.00  0.00     0.073 A 
ENDROOT
BRANCH   1  13
HETATM   13  N2  UNL     1      70.961 -13.301   3.695  1.00  0.00    -0.248 N 
ATOM     14  H2  UNL     1      70.253 -12.592   3.503  1.00  0.00     0.195 HD
BRANCH  13  15
HETATM   15  O5  UNL     1      72.302 -13.001   3.629  1.00  0.00    -0.179 OA
BRANCH  15  16
HETATM   16  C3  UNL     1      73.006 -13.477   2.548  1.00  0.00     0.397 C 
HETATM   17  N1  UNL     1      73.908 -14.553   2.716  1.00  0.00    -0.205 N 
ATOM     18  H1  UNL     1      74.012 -14.950   3.650  1.00  0.00     0.186 HD
HETATM   19  O4  UNL     1      72.874 -12.981   1.403  1.00  0.00    -0.235 OA
BRANCH  17  20
HETATM   20  S1  UNL     1      74.843 -15.235   1.431  1.00  0.00     0.366 S 
HETATM   21  O2  UNL     1      75.395 -16.562   1.906  1.00  0.00    -0.175 OA
HETATM   22  O3  UNL     1      73.980 -15.521   0.233  1.00  0.00    -0.175 OA
BRANCH  20  23
HETATM   23  O1  UNL     1      76.058 -14.205   0.931  1.00  0.00    -0.260 OA
BRANCH  23  24
HETATM   24  C2  UNL     1      77.337 -14.676   1.227  1.00  0.00     0.187 C 
HETATM   25  C1  UNL     1      78.289 -13.506   1.304  1.00  0.00     0.035 C 
ENDBRANCH  23  24
ENDBRANCH  20  23
ENDBRANCH  17  20
ENDBRANCH  15  16
ENDBRANCH  13  15
ENDBRANCH   1  13
BRANCH  12  26
HETATM   26  C11 UNL     1      69.975 -15.475   1.812  1.00  0.00     0.136 C 
HETATM   27  N6  UNL     1      71.029 -15.461   1.127  1.00  0.00    -0.252 N 
ATOM     28  H6  UNL     1      71.874 -15.590   1.683  1.00  0.00     0.196 HD
BRANCH  27  29
HETATM   29  O6  UNL     1      71.272 -15.314  -0.174  1.00  0.00    -0.288 OA
ATOM     30  H6  UNL     1      70.739 -15.422  -0.953  1.00  0.00     0.244 HD
ENDBRANCH  27  29
BRANCH  26  31
HETATM   31  N7  UNL     1      68.700 -15.286   1.246  1.00  0.00    -0.373 N 
ATOM     32  H7  UNL     1      68.316 -16.067   0.714  1.00  0.00     0.161 HD
BRANCH  31  33
HETATM   33  C12 UNL     1      67.883 -14.107   1.338  1.00  0.00     0.139 C 
BRANCH  33  34
HETATM   34  C13 UNL     1      66.417 -14.337   1.480  1.00  0.00     0.184 C 
BRANCH  34  35
HETATM   35  S3  UNL     1      66.072 -15.449   2.849  1.00  0.00     0.103 S 
HETATM   36  O7  UNL     1      64.620 -15.427   3.221  1.00  0.00    -0.595 OA
HETATM   37  O8  UNL     1      66.883 -15.053   4.044  1.00  0.00    -0.595 OA
HETATM   38  O9  UNL     1      66.553 -17.009   2.410  1.00  0.00    -0.595 OA
ENDBRANCH  34  35
ENDBRANCH  33  34
ENDBRANCH  31  33
ENDBRANCH  26  31
ENDBRANCH  12  26
BRANCH   4  39
HETATM   39  N3  UNL     1      70.090 -17.958   7.278  1.00  0.00    -0.384 N 
ATOM     40  H32 UNL     1      69.339 -17.821   7.955  1.00  0.00     0.157 HD
ATOM     41  H31 UNL     1      71.060 -18.041   7.580  1.00  0.00     0.157 HD
ENDBRANCH   4  39
TORSDOF 13
ENDMDL
