MODEL 1
REMARK VINA RESULT: -9.099869733      0.000      0.000
REMARK  10 active torsions:
REMARK  status: ('A' for Active; 'I' for Inactive)
REMARK    1  A    between atoms: C3_6  and  N3_7 
REMARK    2  A    between atoms: C4_10  and  N4_11 
REMARK    3  A    between atoms: C9_16  and  N5_17 
REMARK    4  A    between atoms: N5_17  and  N6_19 
REMARK    5  A    between atoms: C10_20  and  N7_21 
REMARK    6  A    between atoms: C11_26  and  C12_27 
REMARK    7  A    between atoms: C12_27  and  N9_28 
REMARK    8  A    between atoms: N9_28  and  N10_29 
REMARK    9  A    between atoms: N11_32  and  C15_33 
REMARK   10  A    between atoms: C21_45  and  N15_46 
ROOT
HETATM    1  N1  UNL     1      83.094 -10.052   4.950  1.00  0.00    -0.188 NA
HETATM    2  C1  UNL     1      82.122 -10.565   4.570  1.00  0.00     0.137 C 
HETATM    3  C2  UNL     1      80.933 -11.215   4.084  1.00  0.00     0.191 A 
HETATM    4  N2  UNL     1      80.703 -11.232   2.763  1.00  0.00    -0.318 N 
ATOM      5  H2  UNL     1      81.363 -10.787   2.123  1.00  0.00     0.169 HD
HETATM    6  C3  UNL     1      79.610 -11.831   2.285  1.00  0.00     0.132 A 
HETATM    7  C4  UNL     1      78.686 -12.450   3.124  1.00  0.00     0.128 A 
HETATM    8  C9  UNL     1      78.940 -12.422   4.465  1.00  0.00     0.155 A 
HETATM    9  N16 UNL     1      80.076 -11.795   4.923  1.00  0.00    -0.317 N 
ATOM     10  H16 UNL     1      80.266 -11.775   5.924  1.00  0.00     0.169 HD
ENDROOT
BRANCH   6  11
HETATM   11  N3  UNL     1      79.377 -11.853   0.994  1.00  0.00    -0.383 N 
ATOM     12  H32 UNL     1      80.168 -11.710   0.365  1.00  0.00     0.157 HD
ATOM     13  H31 UNL     1      78.433 -12.009   0.644  1.00  0.00     0.157 HD
ENDBRANCH   6  11
BRANCH   8  14
HETATM   14  N5  UNL     1      78.046 -13.034   5.364  1.00  0.00    -0.247 N 
ATOM     15  H5  UNL     1      78.453 -13.781   5.929  1.00  0.00     0.190 HD
BRANCH  14  16
HETATM   16  N6  UNL     1      76.723 -12.791   5.604  1.00  0.00     0.091 N 
HETATM   17  C10 UNL     1      76.244 -11.624   6.035  1.00  0.00     0.713 A 
HETATM   18  N8  UNL     1      74.908 -11.503   6.328  1.00  0.00    -0.177 N 
HETATM   19  C11 UNL     1      74.047 -12.506   6.201  1.00  0.00     0.129 A 
ATOM     20  H8  UNL     1      74.561 -10.602   6.657  1.00  0.00     0.185 HD
HETATM   21  N14 UNL     1      74.519 -13.701   5.761  1.00  0.00    -0.177 N 
HETATM   22  C21 UNL     1      75.821 -13.820   5.475  1.00  0.00     0.713 A 
ATOM     23  H14 UNL     1      73.891 -14.498   5.649  1.00  0.00     0.185 HD
BRANCH  17  24
HETATM   24  N7  UNL     1      77.009 -10.609   6.160  1.00  0.00    -0.232 N 
ATOM     25  H72 UNL     1      77.841 -10.533   5.574  1.00  0.00     0.174 HD
ATOM     26  H71 UNL     1      76.807  -9.884   6.848  1.00  0.00     0.174 HD
ENDBRANCH  17  24
BRANCH  19  27
HETATM   27  C12 UNL     1      72.621 -12.348   6.569  1.00  0.00     0.206 C 
BRANCH  27  28
HETATM   28  N9  UNL     1      71.831 -13.495   6.253  1.00  0.00    -0.158 NA
BRANCH  28  29
HETATM   29  N10 UNL     1      71.352 -13.438   4.965  1.00  0.00    -0.231 NA
HETATM   30  C13 UNL     1      69.902 -13.554   5.044  1.00  0.00     0.130 C 
HETATM   31  C14 UNL     1      69.563 -15.026   5.258  1.00  0.00     0.157 C 
HETATM   32  N11 UNL     1      70.037 -15.718   4.086  1.00  0.00    -0.215 N 
HETATM   33  C19 UNL     1      70.847 -14.965   3.157  1.00  0.00     0.157 C 
HETATM   34  C20 UNL     1      71.950 -14.326   4.022  1.00  0.00     0.130 C 
BRANCH  32  35
HETATM   35  C15 UNL     1      69.741 -17.056   3.853  1.00  0.00     0.679 A 
HETATM   36  N12 UNL     1      69.774 -17.668   2.665  1.00  0.00    -0.202 N 
HETATM   37  C16 UNL     1      69.491 -18.964   2.461  1.00  0.00     0.107 A 
ATOM     38  H12 UNL     1      70.034 -17.109   1.853  1.00  0.00     0.183 HD
HETATM   39  C17 UNL     1      69.141 -19.728   3.552  1.00  0.00     0.035 A 
HETATM   40  C18 UNL     1      69.099 -19.123   4.787  1.00  0.00     0.107 A 
HETATM   41  N13 UNL     1      69.391 -17.827   4.921  1.00  0.00    -0.202 N 
ATOM     42  H13 UNL     1      69.351 -17.403   5.848  1.00  0.00     0.183 HD
ENDBRANCH  32  35
ENDBRANCH  28  29
ENDBRANCH  27  28
ENDBRANCH  19  27
BRANCH  22  43
HETATM   43  N15 UNL     1      76.235 -14.978   5.053  1.00  0.00    -0.232 N 
ATOM     44 2H15 UNL     1      77.220 -15.201   5.194  1.00  0.00     0.174 HD
ATOM     45 1H15 UNL     1      75.572 -15.610   4.605  1.00  0.00     0.174 HD
ENDBRANCH  22  43
ENDBRANCH  14  16
ENDBRANCH   8  14
BRANCH   7  46
HETATM   46  N4  UNL     1      77.575 -13.098   2.492  1.00  0.00    -0.327 N 
HETATM   47  C5  UNL     1      77.707 -14.404   2.106  1.00  0.00     0.097 A 
HETATM   48  C6  UNL     1      76.524 -14.765   1.515  1.00  0.00     0.019 A 
HETATM   49  C7  UNL     1      75.678 -13.677   1.543  1.00  0.00     0.019 A 
HETATM   50  C8  UNL     1      76.366 -12.660   2.159  1.00  0.00     0.097 A 
ENDBRANCH   7  46
TORSDOF 10
ENDMDL
MODEL 2
REMARK VINA RESULT: -8.984614048      2.924      9.638
REMARK  10 active torsions:
REMARK  status: ('A' for Active; 'I' for Inactive)
REMARK    1  A    between atoms: C3_6  and  N3_7 
REMARK    2  A    between atoms: C4_10  and  N4_11 
REMARK    3  A    between atoms: C9_16  and  N5_17 
REMARK    4  A    between atoms: N5_17  and  N6_19 
REMARK    5  A    between atoms: C10_20  and  N7_21 
REMARK    6  A    between atoms: C11_26  and  C12_27 
REMARK    7  A    between atoms: C12_27  and  N9_28 
REMARK    8  A    between atoms: N9_28  and  N10_29 
REMARK    9  A    between atoms: N11_32  and  C15_33 
REMARK   10  A    between atoms: C21_45  and  N15_46 
ROOT
HETATM    1  N1  UNL     1      69.697 -12.554  -2.247  1.00  0.00    -0.188 NA
HETATM    2  C1  UNL     1      69.780 -13.268  -1.332  1.00  0.00     0.137 C 
HETATM    3  C2  UNL     1      69.868 -14.168  -0.213  1.00  0.00     0.191 A 
HETATM    4  N2  UNL     1      68.732 -14.612   0.347  1.00  0.00    -0.318 N 
ATOM      5  H2  UNL     1      67.830 -14.309  -0.019  1.00  0.00     0.169 HD
HETATM    6  C3  UNL     1      68.785 -15.451   1.384  1.00  0.00     0.132 A 
HETATM    7  C4  UNL     1      69.997 -15.889   1.913  1.00  0.00     0.128 A 
HETATM    8  C9  UNL     1      71.140 -15.426   1.328  1.00  0.00     0.155 A 
HETATM    9  N16 UNL     1      71.049 -14.563   0.261  1.00  0.00    -0.317 N 
ATOM     10  H16 UNL     1      71.903 -14.218  -0.176  1.00  0.00     0.169 HD
ENDROOT
BRANCH   6  11
HETATM   11  N3  UNL     1      67.680 -15.890   1.937  1.00  0.00    -0.383 N 
ATOM     12  H32 UNL     1      66.861 -16.006   1.340  1.00  0.00     0.157 HD
ATOM     13  H31 UNL     1      67.653 -16.105   2.934  1.00  0.00     0.157 HD
ENDBRANCH   6  11
BRANCH   8  14
HETATM   14  N5  UNL     1      72.396 -15.837   1.814  1.00  0.00    -0.247 N 
ATOM     15  H5  UNL     1      72.410 -16.769   2.229  1.00  0.00     0.190 HD
BRANCH  14  16
HETATM   16  N6  UNL     1      73.600 -15.190   1.820  1.00  0.00     0.091 N 
HETATM   17  C10 UNL     1      74.543 -15.358   0.892  1.00  0.00     0.713 A 
HETATM   18  N8  UNL     1      75.755 -14.726   1.030  1.00  0.00    -0.177 N 
HETATM   19  C11 UNL     1      76.046 -13.940   2.061  1.00  0.00     0.129 A 
ATOM     20  H8  UNL     1      76.463 -14.868   0.311  1.00  0.00     0.185 HD
HETATM   21  N14 UNL     1      75.094 -13.758   3.014  1.00  0.00    -0.177 N 
HETATM   22  C21 UNL     1      73.913 -14.372   2.878  1.00  0.00     0.713 A 
ATOM     23  H14 UNL     1      75.278 -13.161   3.821  1.00  0.00     0.185 HD
BRANCH  17  24
HETATM   24  N7  UNL     1      74.326 -16.082  -0.137  1.00  0.00    -0.232 N 
ATOM     25  H72 UNL     1      73.583 -16.781  -0.112  1.00  0.00     0.174 HD
ATOM     26  H71 UNL     1      74.896 -15.980  -0.977  1.00  0.00     0.174 HD
ENDBRANCH  17  24
BRANCH  19  27
HETATM   27  C12 UNL     1      77.379 -13.312   2.197  1.00  0.00     0.206 C 
BRANCH  27  28
HETATM   28  N9  UNL     1      77.388 -12.206   3.101  1.00  0.00    -0.158 NA
BRANCH  28  29
HETATM   29  N10 UNL     1      78.435 -12.289   3.988  1.00  0.00    -0.231 NA
HETATM   30  C13 UNL     1      77.995 -13.136   5.090  1.00  0.00     0.130 C 
HETATM   31  C14 UNL     1      77.103 -12.294   5.997  1.00  0.00     0.157 C 
HETATM   32  N11 UNL     1      77.940 -11.238   6.509  1.00  0.00    -0.215 N 
HETATM   33  C19 UNL     1      79.256 -11.100   5.929  1.00  0.00     0.157 C 
HETATM   34  C20 UNL     1      79.016 -11.056   4.409  1.00  0.00     0.130 C 
BRANCH  32  35
HETATM   35  C15 UNL     1      77.507 -10.378   7.511  1.00  0.00     0.679 A 
HETATM   36  N12 UNL     1      78.291  -9.738   8.384  1.00  0.00    -0.202 N 
HETATM   37  C16 UNL     1      77.855  -8.905   9.342  1.00  0.00     0.107 A 
ATOM     38  H12 UNL     1      79.297  -9.894   8.317  1.00  0.00     0.183 HD
HETATM   39  C17 UNL     1      76.499  -8.688   9.439  1.00  0.00     0.035 A 
HETATM   40  C18 UNL     1      75.668  -9.334   8.553  1.00  0.00     0.107 A 
HETATM   41  N13 UNL     1      76.168 -10.152   7.623  1.00  0.00    -0.202 N 
ATOM     42  H13 UNL     1      75.530 -10.620   6.979  1.00  0.00     0.183 HD
ENDBRANCH  32  35
ENDBRANCH  28  29
ENDBRANCH  27  28
ENDBRANCH  19  27
BRANCH  22  43
HETATM   43  N15 UNL     1      73.028 -14.171   3.809  1.00  0.00    -0.232 N 
ATOM     44 2H15 UNL     1      72.297 -14.875   3.918  1.00  0.00     0.174 HD
ATOM     45 1H15 UNL     1      73.094 -13.333   4.386  1.00  0.00     0.174 HD
ENDBRANCH  22  43
ENDBRANCH  14  16
ENDBRANCH   8  14
BRANCH   7  46
HETATM   46  N4  UNL     1      69.927 -16.823   2.998  1.00  0.00    -0.327 N 
HETATM   47  C5  UNL     1      69.833 -18.158   2.712  1.00  0.00     0.097 A 
HETATM   48  C6  UNL     1      69.757 -18.816   3.912  1.00  0.00     0.019 A 
HETATM   49  C7  UNL     1      69.802 -17.879   4.922  1.00  0.00     0.019 A 
HETATM   50  C8  UNL     1      69.909 -16.652   4.315  1.00  0.00     0.097 A 
ENDBRANCH   7  46
TORSDOF 10
ENDMDL
MODEL 3
REMARK VINA RESULT: -8.950107762      2.232      3.659
REMARK  10 active torsions:
REMARK  status: ('A' for Active; 'I' for Inactive)
REMARK    1  A    between atoms: C3_6  and  N3_7 
REMARK    2  A    between atoms: C4_10  and  N4_11 
REMARK    3  A    between atoms: C9_16  and  N5_17 
REMARK    4  A    between atoms: N5_17  and  N6_19 
REMARK    5  A    between atoms: C10_20  and  N7_21 
REMARK    6  A    between atoms: C11_26  and  C12_27 
REMARK    7  A    between atoms: C12_27  and  N9_28 
REMARK    8  A    between atoms: N9_28  and  N10_29 
REMARK    9  A    between atoms: N11_32  and  C15_33 
REMARK   10  A    between atoms: C21_45  and  N15_46 
ROOT
HETATM    1  N1  UNL     1      80.515 -10.547   5.361  1.00  0.00    -0.188 NA
HETATM    2  C1  UNL     1      79.644 -11.091   4.814  1.00  0.00     0.137 C 
HETATM    3  C2  UNL     1      78.577 -11.786   4.145  1.00  0.00     0.191 A 
HETATM    4  N2  UNL     1      78.881 -12.819   3.345  1.00  0.00    -0.318 N 
ATOM      5  H2  UNL     1      79.855 -13.096   3.217  1.00  0.00     0.169 HD
HETATM    6  C3  UNL     1      77.910 -13.483   2.716  1.00  0.00     0.132 A 
HETATM    7  C4  UNL     1      76.568 -13.137   2.864  1.00  0.00     0.128 A 
HETATM    8  C9  UNL     1      76.280 -12.083   3.684  1.00  0.00     0.155 A 
HETATM    9  N16 UNL     1      77.306 -11.421   4.316  1.00  0.00    -0.317 N 
ATOM     10  H16 UNL     1      77.090 -10.635   4.928  1.00  0.00     0.169 HD
ENDROOT
BRANCH   6  11
HETATM   11  N3  UNL     1      78.199 -14.494   1.932  1.00  0.00    -0.383 N 
ATOM     12  H32 UNL     1      77.944 -14.422   0.947  1.00  0.00     0.157 HD
ATOM     13  H31 UNL     1      78.662 -15.321   2.308  1.00  0.00     0.157 HD
ENDBRANCH   6  11
BRANCH   8  14
HETATM   14  N5  UNL     1      74.943 -11.689   3.878  1.00  0.00    -0.247 N 
ATOM     15  H5  UNL     1      74.714 -10.762   3.517  1.00  0.00     0.190 HD
BRANCH  14  16
HETATM   16  N6  UNL     1      73.902 -12.345   4.473  1.00  0.00     0.091 N 
HETATM   17  C10 UNL     1      73.972 -12.928   5.669  1.00  0.00     0.713 A 
HETATM   18  N8  UNL     1      72.896 -13.637   6.145  1.00  0.00    -0.177 N 
HETATM   19  C11 UNL     1      71.764 -13.776   5.465  1.00  0.00     0.129 A 
ATOM     20  H8  UNL     1      72.969 -14.078   7.062  1.00  0.00     0.185 HD
HETATM   21  N14 UNL     1      71.676 -13.185   4.244  1.00  0.00    -0.177 N 
HETATM   22  C21 UNL     1      72.724 -12.493   3.781  1.00  0.00     0.713 A 
ATOM     23  H14 UNL     1      70.824 -13.266   3.689  1.00  0.00     0.185 HD
BRANCH  17  24
HETATM   24  N7  UNL     1      75.021 -12.820   6.389  1.00  0.00    -0.232 N 
ATOM     25  H72 UNL     1      75.939 -12.828   5.943  1.00  0.00     0.174 HD
ATOM     26  H71 UNL     1      74.952 -12.741   7.404  1.00  0.00     0.174 HD
ENDBRANCH  17  24
BRANCH  19  27
HETATM   27  C12 UNL     1      70.642 -14.585   5.993  1.00  0.00     0.206 C 
BRANCH  27  28
HETATM   28  N9  UNL     1      70.677 -15.944   5.557  1.00  0.00    -0.158 NA
BRANCH  28  29
HETATM   29  N10 UNL     1      69.512 -16.298   4.917  1.00  0.00    -0.231 NA
HETATM   30  C13 UNL     1      69.865 -17.279   3.899  1.00  0.00     0.130 C 
HETATM   31  C14 UNL     1      70.460 -16.528   2.713  1.00  0.00     0.157 C 
HETATM   32  N11 UNL     1      69.409 -15.676   2.214  1.00  0.00    -0.215 N 
HETATM   33  C19 UNL     1      68.208 -15.574   3.011  1.00  0.00     0.157 C 
HETATM   34  C20 UNL     1      68.703 -15.229   4.428  1.00  0.00     0.130 C 
BRANCH  32  35
HETATM   35  C15 UNL     1      69.537 -14.973   1.022  1.00  0.00     0.679 A 
HETATM   36  N12 UNL     1      70.688 -14.618   0.444  1.00  0.00    -0.202 N 
HETATM   37  C16 UNL     1      70.792 -13.944  -0.712  1.00  0.00     0.107 A 
ATOM     38  H12 UNL     1      71.554 -14.879   0.916  1.00  0.00     0.183 HD
HETATM   39  C17 UNL     1      69.628 -13.588  -1.358  1.00  0.00     0.035 A 
HETATM   40  C18 UNL     1      68.428 -13.941  -0.785  1.00  0.00     0.107 A 
HETATM   41  N13 UNL     1      68.396 -14.611   0.370  1.00  0.00    -0.202 N 
ATOM     42  H13 UNL     1      67.493 -14.860   0.774  1.00  0.00     0.183 HD
ENDBRANCH  32  35
ENDBRANCH  28  29
ENDBRANCH  27  28
ENDBRANCH  19  27
BRANCH  22  43
HETATM   43  N15 UNL     1      72.601 -11.940   2.611  1.00  0.00    -0.232 N 
ATOM     44 2H15 UNL     1      73.396 -11.405   2.261  1.00  0.00     0.174 HD
ATOM     45 1H15 UNL     1      71.730 -12.058   2.093  1.00  0.00     0.174 HD
ENDBRANCH  22  43
ENDBRANCH  14  16
ENDBRANCH   8  14
BRANCH   7  46
HETATM   46  N4  UNL     1      75.612 -13.951   2.174  1.00  0.00    -0.327 N 
HETATM   47  C5  UNL     1      75.196 -13.566   0.929  1.00  0.00     0.097 A 
HETATM   48  C6  UNL     1      74.277 -14.495   0.513  1.00  0.00     0.019 A 
HETATM   49  C7  UNL     1      74.138 -15.440   1.507  1.00  0.00     0.019 A 
HETATM   50  C8  UNL     1      74.985 -15.069   2.524  1.00  0.00     0.097 A 
ENDBRANCH   7  46
TORSDOF 10
ENDMDL
MODEL 4
REMARK VINA RESULT: -8.918992909      2.239      4.036
REMARK  10 active torsions:
REMARK  status: ('A' for Active; 'I' for Inactive)
REMARK    1  A    between atoms: C3_6  and  N3_7 
REMARK    2  A    between atoms: C4_10  and  N4_11 
REMARK    3  A    between atoms: C9_16  and  N5_17 
REMARK    4  A    between atoms: N5_17  and  N6_19 
REMARK    5  A    between atoms: C10_20  and  N7_21 
REMARK    6  A    between atoms: C11_26  and  C12_27 
REMARK    7  A    between atoms: C12_27  and  N9_28 
REMARK    8  A    between atoms: N9_28  and  N10_29 
REMARK    9  A    between atoms: N11_32  and  C15_33 
REMARK   10  A    between atoms: C21_45  and  N15_46 
ROOT
HETATM    1  N1  UNL     1      81.275 -10.561   5.010  1.00  0.00    -0.188 NA
HETATM    2  C1  UNL     1      80.176 -10.944   5.025  1.00  0.00     0.137 C 
HETATM    3  C2  UNL     1      78.815 -11.410   5.068  1.00  0.00     0.191 A 
HETATM    4  N2  UNL     1      78.446 -12.231   6.062  1.00  0.00    -0.318 N 
ATOM      5  H2  UNL     1      79.125 -12.516   6.768  1.00  0.00     0.169 HD
HETATM    6  C3  UNL     1      77.189 -12.674   6.127  1.00  0.00     0.132 A 
HETATM    7  C4  UNL     1      76.231 -12.307   5.184  1.00  0.00     0.128 A 
HETATM    8  C9  UNL     1      76.627 -11.470   4.181  1.00  0.00     0.155 A 
HETATM    9  N16 UNL     1      77.930 -11.033   4.145  1.00  0.00    -0.317 N 
ATOM     10  H16 UNL     1      78.226 -10.407   3.396  1.00  0.00     0.169 HD
ENDROOT
BRANCH   6  11
HETATM   11  N3  UNL     1      76.819 -13.477   7.096  1.00  0.00    -0.383 N 
ATOM     12  H32 UNL     1      77.544 -14.009   7.577  1.00  0.00     0.157 HD
ATOM     13  H31 UNL     1      75.835 -13.557   7.351  1.00  0.00     0.157 HD
ENDBRANCH   6  11
BRANCH   8  14
HETATM   14  N5  UNL     1      75.704 -11.059   3.201  1.00  0.00    -0.247 N 
ATOM     15  H5  UNL     1      75.648 -10.049   3.063  1.00  0.00     0.190 HD
BRANCH  14  16
HETATM   16  N6  UNL     1      74.871 -11.792   2.404  1.00  0.00     0.091 N 
HETATM   17  C10 UNL     1      73.544 -11.656   2.384  1.00  0.00     0.713 A 
HETATM   18  N8  UNL     1      72.785 -12.499   1.610  1.00  0.00    -0.177 N 
HETATM   19  C11 UNL     1      73.310 -13.463   0.864  1.00  0.00     0.129 A 
ATOM     20  H8  UNL     1      71.772 -12.379   1.609  1.00  0.00     0.185 HD
HETATM   21  N14 UNL     1      74.660 -13.614   0.872  1.00  0.00    -0.177 N 
HETATM   22  C21 UNL     1      75.401 -12.792   1.625  1.00  0.00     0.713 A 
ATOM     23  H14 UNL     1      75.103 -14.343   0.312  1.00  0.00     0.185 HD
BRANCH  17  24
HETATM   24  N7  UNL     1      72.972 -10.736   3.060  1.00  0.00    -0.232 N 
ATOM     25  H72 UNL     1      73.344  -9.786   3.031  1.00  0.00     0.174 HD
ATOM     26  H71 UNL     1      72.158 -10.943   3.638  1.00  0.00     0.174 HD
ENDBRANCH  17  24
BRANCH  19  27
HETATM   27  C12 UNL     1      72.454 -14.380   0.077  1.00  0.00     0.206 C 
BRANCH  27  28
HETATM   28  N9  UNL     1      71.780 -15.347   0.883  1.00  0.00    -0.158 NA
BRANCH  28  29
HETATM   29  N10 UNL     1      70.799 -14.765   1.652  1.00  0.00    -0.231 NA
HETATM   30  C13 UNL     1      70.986 -15.244   3.016  1.00  0.00     0.130 C 
HETATM   31  C14 UNL     1      70.414 -16.655   3.097  1.00  0.00     0.157 C 
HETATM   32  N11 UNL     1      69.005 -16.531   2.821  1.00  0.00    -0.215 N 
HETATM   33  C19 UNL     1      68.535 -15.246   2.358  1.00  0.00     0.157 C 
HETATM   34  C20 UNL     1      69.459 -14.888   1.179  1.00  0.00     0.130 C 
BRANCH  32  35
HETATM   35  C15 UNL     1      68.128 -17.596   2.983  1.00  0.00     0.679 A 
HETATM   36  N12 UNL     1      66.962 -17.752   2.348  1.00  0.00    -0.202 N 
HETATM   37  C16 UNL     1      66.130 -18.792   2.512  1.00  0.00     0.107 A 
ATOM     38  H12 UNL     1      66.683 -17.026   1.688  1.00  0.00     0.183 HD
HETATM   39  C17 UNL     1      66.499 -19.779   3.400  1.00  0.00     0.035 A 
HETATM   40  C18 UNL     1      67.695 -19.644   4.068  1.00  0.00     0.107 A 
HETATM   41  N13 UNL     1      68.476 -18.581   3.858  1.00  0.00    -0.202 N 
ATOM     42  H13 UNL     1      69.356 -18.505   4.367  1.00  0.00     0.183 HD
ENDBRANCH  32  35
ENDBRANCH  28  29
ENDBRANCH  27  28
ENDBRANCH  19  27
BRANCH  22  43
HETATM   43  N15 UNL     1      76.689 -12.966   1.605  1.00  0.00    -0.232 N 
ATOM     44 2H15 UNL     1      77.257 -12.204   1.232  1.00  0.00     0.174 HD
ATOM     45 1H15 UNL     1      77.079 -13.840   1.956  1.00  0.00     0.174 HD
ENDBRANCH  22  43
ENDBRANCH  14  16
ENDBRANCH   8  14
BRANCH   7  46
HETATM   46  N4  UNL     1      74.904 -12.811   5.384  1.00  0.00    -0.327 N 
HETATM   47  C5  UNL     1      74.031 -12.082   6.144  1.00  0.00     0.097 A 
HETATM   48  C6  UNL     1      72.859 -12.792   6.194  1.00  0.00     0.019 A 
HETATM   49  C7  UNL     1      73.025 -13.950   5.464  1.00  0.00     0.019 A 
HETATM   50  C8  UNL     1      74.309 -13.926   4.975  1.00  0.00     0.097 A 
ENDBRANCH   7  46
TORSDOF 10
ENDMDL
MODEL 5
REMARK VINA RESULT: -8.916497116      2.436      9.407
REMARK  10 active torsions:
REMARK  status: ('A' for Active; 'I' for Inactive)
REMARK    1  A    between atoms: C3_6  and  N3_7 
REMARK    2  A    between atoms: C4_10  and  N4_11 
REMARK    3  A    between atoms: C9_16  and  N5_17 
REMARK    4  A    between atoms: N5_17  and  N6_19 
REMARK    5  A    between atoms: C10_20  and  N7_21 
REMARK    6  A    between atoms: C11_26  and  C12_27 
REMARK    7  A    between atoms: C12_27  and  N9_28 
REMARK    8  A    between atoms: N9_28  and  N10_29 
REMARK    9  A    between atoms: N11_32  and  C15_33 
REMARK   10  A    between atoms: C21_45  and  N15_46 
ROOT
HETATM    1  N1  UNL     1      69.334 -18.820   1.925  1.00  0.00    -0.188 NA
HETATM    2  C1  UNL     1      69.741 -17.879   2.474  1.00  0.00     0.137 C 
HETATM    3  C2  UNL     1      70.256 -16.729   3.170  1.00  0.00     0.191 A 
HETATM    4  N2  UNL     1      70.087 -16.651   4.498  1.00  0.00    -0.318 N 
ATOM      5  H2  UNL     1      69.598 -17.395   4.996  1.00  0.00     0.169 HD
HETATM    6  C3  UNL     1      70.559 -15.597   5.168  1.00  0.00     0.132 A 
HETATM    7  C4  UNL     1      71.233 -14.560   4.526  1.00  0.00     0.128 A 
HETATM    8  C9  UNL     1      71.394 -14.661   3.174  1.00  0.00     0.155 A 
HETATM    9  N16 UNL     1      70.895 -15.760   2.515  1.00  0.00    -0.317 N 
ATOM     10  H16 UNL     1      71.017 -15.835   1.506  1.00  0.00     0.169 HD
ENDROOT
BRANCH   6  11
HETATM   11  N3  UNL     1      70.399 -15.512   6.467  1.00  0.00    -0.383 N 
ATOM     12  H32 UNL     1      69.896 -14.703   6.833  1.00  0.00     0.157 HD
ATOM     13  H31 UNL     1      70.770 -16.238   7.080  1.00  0.00     0.157 HD
ENDBRANCH   6  11
BRANCH   8  14
HETATM   14  N5  UNL     1      72.071 -13.647   2.469  1.00  0.00    -0.247 N 
ATOM     15  H5  UNL     1      71.474 -13.060   1.885  1.00  0.00     0.190 HD
BRANCH  14  16
HETATM   16  N6  UNL     1      73.398 -13.322   2.439  1.00  0.00     0.091 N 
HETATM   17  C10 UNL     1      74.379 -14.201   2.228  1.00  0.00     0.713 A 
HETATM   18  N8  UNL     1      75.688 -13.792   2.301  1.00  0.00    -0.177 N 
HETATM   19  C11 UNL     1      76.039 -12.540   2.575  1.00  0.00     0.129 A 
ATOM     20  H8  UNL     1      76.423 -14.479   2.138  1.00  0.00     0.185 HD
HETATM   21  N14 UNL     1      75.051 -11.632   2.790  1.00  0.00    -0.177 N 
HETATM   22  C21 UNL     1      73.776 -12.030   2.718  1.00  0.00     0.713 A 
ATOM     23  H14 UNL     1      75.279 -10.660   3.002  1.00  0.00     0.185 HD
BRANCH  17  24
HETATM   24  N7  UNL     1      74.116 -15.417   1.939  1.00  0.00    -0.232 N 
ATOM     25  H72 UNL     1      74.001 -16.098   2.690  1.00  0.00     0.174 HD
ATOM     26  H71 UNL     1      74.035 -15.716   0.967  1.00  0.00     0.174 HD
ENDBRANCH  17  24
BRANCH  19  27
HETATM   27  C12 UNL     1      77.462 -12.147   2.688  1.00  0.00     0.206 C 
BRANCH  27  28
HETATM   28  N9  UNL     1      77.679 -11.096   3.630  1.00  0.00    -0.158 NA
BRANCH  28  29
HETATM   29  N10 UNL     1      78.484 -11.509   4.667  1.00  0.00    -0.231 NA
HETATM   30  C13 UNL     1      77.672 -12.365   5.522  1.00  0.00     0.130 C 
HETATM   31  C14 UNL     1      76.785 -11.465   6.376  1.00  0.00     0.157 C 
HETATM   32  N11 UNL     1      77.679 -10.683   7.191  1.00  0.00    -0.215 N 
HETATM   33  C19 UNL     1      79.090 -10.764   6.888  1.00  0.00     0.157 C 
HETATM   34  C20 UNL     1      79.185 -10.489   5.376  1.00  0.00     0.130 C 
BRANCH  32  35
HETATM   35  C15 UNL     1      77.216  -9.875   8.224  1.00  0.00     0.679 A 
HETATM   36  N12 UNL     1      77.967  -9.075   8.987  1.00  0.00    -0.202 N 
HETATM   37  C16 UNL     1      77.501  -8.297   9.976  1.00  0.00     0.107 A 
ATOM     38  H12 UNL     1      78.971  -9.055   8.804  1.00  0.00     0.183 HD
HETATM   39  C17 UNL     1      76.147  -8.318  10.228  1.00  0.00     0.035 A 
HETATM   40  C18 UNL     1      75.350  -9.132   9.458  1.00  0.00     0.107 A 
HETATM   41  N13 UNL     1      75.879  -9.884   8.489  1.00  0.00    -0.202 N 
ATOM     42  H13 UNL     1      75.267 -10.480   7.933  1.00  0.00     0.183 HD
ENDBRANCH  32  35
ENDBRANCH  28  29
ENDBRANCH  27  28
ENDBRANCH  19  27
BRANCH  22  43
HETATM   43  N15 UNL     1      72.859 -11.132   2.927  1.00  0.00    -0.232 N 
ATOM     44 2H15 UNL     1      71.914 -11.346   2.607  1.00  0.00     0.174 HD
ATOM     45 1H15 UNL     1      73.112 -10.262   3.395  1.00  0.00     0.174 HD
ENDBRANCH  22  43
ENDBRANCH  14  16
ENDBRANCH   8  14
BRANCH   7  46
HETATM   46  N4  UNL     1      71.732 -13.504   5.356  1.00  0.00    -0.327 N 
HETATM   47  C5  UNL     1      70.926 -12.429   5.610  1.00  0.00     0.097 A 
HETATM   48  C6  UNL     1      71.647 -11.569   6.397  1.00  0.00     0.019 A 
HETATM   49  C7  UNL     1      72.889 -12.125   6.618  1.00  0.00     0.019 A 
HETATM   50  C8  UNL     1      72.905 -13.328   5.956  1.00  0.00     0.097 A 
ENDBRANCH   7  46
TORSDOF 10
ENDMDL
