MODEL 1
REMARK VINA RESULT: -6.664839674      0.000      0.000
REMARK  5 active torsions:
REMARK  status: ('A' for Active; 'I' for Inactive)
REMARK    1  A    between atoms: C2_2  and  N1_3 
REMARK    2  A    between atoms: N1_3  and  C3_5 
REMARK    3  A    between atoms: C3_5  and  N2_7 
REMARK       I    between atoms: N3_10  and  C6_11 
REMARK       I    between atoms: C6_11  and  N4_13 
REMARK    4  A    between atoms: N4_13  and  C7_15 
REMARK    5  A    between atoms: C7_15  and  C8_16 
REMARK       I    between atoms: C8_16  and  N5_18 
REMARK       I    between atoms: C9_20  and  N6_21 
REMARK       I    between atoms: C9_20  and  N7_24 
ROOT
HETATM    1  C7  UNL     1      15.185  70.839  13.423  1.00  0.00     0.227 C 
ENDROOT
BRANCH   1   2
HETATM    2  N4  UNL     1      14.269  71.699  12.742  1.00  0.00    -0.334 N 
HETATM    3  C6  UNL     1      14.213  73.097  12.959  1.00  0.00     0.318 C 
HETATM    4  N3  UNL     1      13.318  73.966  12.292  1.00  0.00    -0.331 N 
HETATM    5  O1  UNL     1      15.011  73.621  13.800  1.00  0.00    -0.247 OA
HETATM    6  C5  UNL     1      13.329  75.406  12.573  1.00  0.00     0.147 C 
HETATM    7  C17 UNL     1      12.386  73.528  11.315  1.00  0.00     0.147 C 
HETATM    8  C4  UNL     1      12.767  76.158  11.383  1.00  0.00     0.145 C 
HETATM    9  N2  UNL     1      11.351  75.706  11.166  1.00  0.00    -0.355 N 
HETATM   10  C18 UNL     1      11.076  74.341  11.487  1.00  0.00     0.145 C 
ATOM     11  H4  UNL     1      13.624  71.286  12.069  1.00  0.00     0.164 HD
BRANCH   9  12
HETATM   12  C3  UNL     1      10.433  76.618  10.661  1.00  0.00     0.169 C 
HETATM   13  S1  UNL     1      10.646  78.193  11.305  1.00  0.00    -0.041 SA
BRANCH  12  14
HETATM   14  N1  UNL     1       9.409  76.476   9.753  1.00  0.00    -0.367 N 
ATOM     15  H1  UNL     1       8.698  77.205   9.809  1.00  0.00     0.161 HD
BRANCH  14  16
HETATM   16  C2  UNL     1       9.166  75.502   8.756  1.00  0.00     0.117 C 
HETATM   17  C1  UNL     1       8.759  76.075   7.406  1.00  0.00     0.026 C 
ENDBRANCH  14  16
ENDBRANCH  12  14
ENDBRANCH   9  12
ENDBRANCH   1   2
BRANCH   1  18
HETATM   18  C8  UNL     1      14.940  69.398  13.222  1.00  0.00     0.253 C 
HETATM   19  O2  UNL     1      15.226  68.580  14.129  1.00  0.00    -0.271 OA
HETATM   20  N5  UNL     1      14.390  68.932  12.014  1.00  0.00    -0.159 N 
HETATM   21  C9  UNL     1      13.179  68.576  11.804  1.00  0.00     0.678 C 
ATOM     22  H5  UNL     1      15.025  68.872  11.219  1.00  0.00     0.187 HD
HETATM   23  N6  UNL     1      12.822  68.126  10.483  1.00  0.00    -0.230 N 
HETATM   24  N7  UNL     1      12.152  68.588  12.780  1.00  0.00    -0.215 N 
HETATM   25  C10 UNL     1      13.803  67.407   9.733  1.00  0.00     0.165 C 
ATOM     26  H6  UNL     1      11.898  68.314  10.095  1.00  0.00     0.177 HD
HETATM   27  C11 UNL     1      11.781  67.395  13.512  1.00  0.00     0.169 C 
HETATM   28  C16 UNL     1      11.402  69.807  13.106  1.00  0.00     0.169 C 
HETATM   29  C12 UNL     1      10.314  67.099  13.301  1.00  0.00     0.257 C 
HETATM   30  N8  UNL     1       9.485  68.281  13.309  1.00  0.00    -0.072 N 
HETATM   31  C13 UNL     1       8.337  68.000  14.153  1.00  0.00     0.272 C 
HETATM   32  C14 UNL     1       8.976  68.550  11.975  1.00  0.00     0.272 C 
HETATM   33  C15 UNL     1      10.160  69.432  13.873  1.00  0.00     0.257 C 
ENDBRANCH   1  18
TORSDOF 5
ENDMDL
MODEL 2
REMARK VINA RESULT: -6.641423142      4.707      8.621
REMARK  5 active torsions:
REMARK  status: ('A' for Active; 'I' for Inactive)
REMARK    1  A    between atoms: C2_2  and  N1_3 
REMARK    2  A    between atoms: N1_3  and  C3_5 
REMARK    3  A    between atoms: C3_5  and  N2_7 
REMARK       I    between atoms: N3_10  and  C6_11 
REMARK       I    between atoms: C6_11  and  N4_13 
REMARK    4  A    between atoms: N4_13  and  C7_15 
REMARK    5  A    between atoms: C7_15  and  C8_16 
REMARK       I    between atoms: C8_16  and  N5_18 
REMARK       I    between atoms: C9_20  and  N6_21 
REMARK       I    between atoms: C9_20  and  N7_24 
ROOT
HETATM    1  C7  UNL     1      13.635  69.717  11.879  1.00  0.00     0.227 C 
ENDROOT
BRANCH   1   2
HETATM    2  N4  UNL     1      13.776  68.715  12.888  1.00  0.00    -0.334 N 
HETATM    3  C6  UNL     1      14.569  68.891  14.048  1.00  0.00     0.318 C 
HETATM    4  N3  UNL     1      14.716  67.914  15.060  1.00  0.00    -0.331 N 
HETATM    5  O1  UNL     1      15.190  69.989  14.207  1.00  0.00    -0.247 OA
HETATM    6  C5  UNL     1      15.556  68.179  16.235  1.00  0.00     0.147 C 
HETATM    7  C17 UNL     1      14.069  66.652  15.029  1.00  0.00     0.147 C 
HETATM    8  C4  UNL     1      15.099  67.310  17.389  1.00  0.00     0.145 C 
HETATM    9  N2  UNL     1      15.253  65.871  16.985  1.00  0.00    -0.355 N 
HETATM   10  C18 UNL     1      15.041  65.586  15.602  1.00  0.00     0.145 C 
ATOM     11  H4  UNL     1      13.283  67.831  12.766  1.00  0.00     0.164 HD
BRANCH   9  12
HETATM   12  C3  UNL     1      15.561  64.935  17.965  1.00  0.00     0.169 C 
HETATM   13  S1  UNL     1      16.590  65.570  19.181  1.00  0.00    -0.041 SA
BRANCH  12  14
HETATM   14  N1  UNL     1      15.190  63.621  18.122  1.00  0.00    -0.367 N 
ATOM     15  H1  UNL     1      15.935  62.950  17.932  1.00  0.00     0.161 HD
BRANCH  14  16
HETATM   16  C2  UNL     1      13.960  63.031  18.501  1.00  0.00     0.117 C 
HETATM   17  C1  UNL     1      13.690  61.678  17.859  1.00  0.00     0.026 C 
ENDBRANCH  14  16
ENDBRANCH  12  14
ENDBRANCH   9  12
ENDBRANCH   1   2
BRANCH   1  18
HETATM   18  C8  UNL     1      12.274  69.843  11.324  1.00  0.00     0.253 C 
HETATM   19  O2  UNL     1      11.927  69.138  10.346  1.00  0.00    -0.271 OA
HETATM   20  N5  UNL     1      11.359  70.753  11.883  1.00  0.00    -0.159 N 
HETATM   21  C9  UNL     1      10.387  70.487  12.671  1.00  0.00     0.678 C 
ATOM     22  H5  UNL     1      11.485  71.735  11.633  1.00  0.00     0.187 HD
HETATM   23  N6  UNL     1       9.564  71.576  13.130  1.00  0.00    -0.230 N 
HETATM   24  N7  UNL     1      10.053  69.189  13.130  1.00  0.00    -0.215 N 
HETATM   25  C10 UNL     1       9.335  72.665  12.234  1.00  0.00     0.165 C 
ATOM     26  H6  UNL     1       9.158  71.571  14.066  1.00  0.00     0.177 HD
HETATM   27  C11 UNL     1       9.016  68.399  12.499  1.00  0.00     0.169 C 
HETATM   28  C16 UNL     1      10.733  68.568  14.273  1.00  0.00     0.169 C 
HETATM   29  C12 UNL     1       7.960  68.032  13.515  1.00  0.00     0.257 C 
HETATM   30  N8  UNL     1       8.504  67.675  14.803  1.00  0.00    -0.072 N 
HETATM   31  C13 UNL     1       7.837  66.458  15.234  1.00  0.00     0.272 C 
HETATM   32  C14 UNL     1       8.195  68.700  15.785  1.00  0.00     0.272 C 
HETATM   33  C15 UNL     1       9.924  67.389  14.749  1.00  0.00     0.257 C 
ENDBRANCH   1  18
TORSDOF 5
ENDMDL
MODEL 3
REMARK VINA RESULT: -6.637308678      2.854      3.796
REMARK  5 active torsions:
REMARK  status: ('A' for Active; 'I' for Inactive)
REMARK    1  A    between atoms: C2_2  and  N1_3 
REMARK    2  A    between atoms: N1_3  and  C3_5 
REMARK    3  A    between atoms: C3_5  and  N2_7 
REMARK       I    between atoms: N3_10  and  C6_11 
REMARK       I    between atoms: C6_11  and  N4_13 
REMARK    4  A    between atoms: N4_13  and  C7_15 
REMARK    5  A    between atoms: C7_15  and  C8_16 
REMARK       I    between atoms: C8_16  and  N5_18 
REMARK       I    between atoms: C9_20  and  N6_21 
REMARK       I    between atoms: C9_20  and  N7_24 
ROOT
HETATM    1  C7  UNL     1      15.499  70.667  16.370  1.00  0.00     0.227 C 
ENDROOT
BRANCH   1   2
HETATM    2  N4  UNL     1      15.240  71.630  15.346  1.00  0.00    -0.334 N 
HETATM    3  C6  UNL     1      15.071  73.011  15.606  1.00  0.00     0.318 C 
HETATM    4  N3  UNL     1      14.820  73.979  14.607  1.00  0.00    -0.331 N 
HETATM    5  O1  UNL     1      15.149  73.424  16.807  1.00  0.00    -0.247 OA
HETATM    6  C5  UNL     1      14.661  75.395  14.963  1.00  0.00     0.147 C 
HETATM    7  C17 UNL     1      14.726  73.670  13.225  1.00  0.00     0.147 C 
HETATM    8  C4  UNL     1      14.999  76.258  13.766  1.00  0.00     0.145 C 
HETATM    9  N2  UNL     1      14.047  75.918  12.655  1.00  0.00    -0.355 N 
HETATM   10  C18 UNL     1      13.618  74.557  12.597  1.00  0.00     0.145 C 
ATOM     11  H4  UNL     1      15.173  71.306  14.381  1.00  0.00     0.164 HD
BRANCH   9  12
HETATM   12  C3  UNL     1      13.674  76.920  11.768  1.00  0.00     0.169 C 
HETATM   13  S1  UNL     1      12.093  77.511  12.068  1.00  0.00    -0.041 SA
BRANCH  12  14
HETATM   14  N1  UNL     1      14.342  77.506  10.719  1.00  0.00    -0.367 N 
ATOM     15  H1  UNL     1      14.846  78.358  10.967  1.00  0.00     0.161 HD
BRANCH  14  16
HETATM   16  C2  UNL     1      14.457  77.141   9.356  1.00  0.00     0.117 C 
HETATM   17  C1  UNL     1      14.185  78.274   8.377  1.00  0.00     0.026 C 
ENDBRANCH  14  16
ENDBRANCH  12  14
ENDBRANCH   9  12
ENDBRANCH   1   2
BRANCH   1  18
HETATM   18  C8  UNL     1      14.487  69.599  16.480  1.00  0.00     0.253 C 
HETATM   19  O2  UNL     1      13.336  69.866  16.902  1.00  0.00    -0.271 OA
HETATM   20  N5  UNL     1      14.804  68.278  16.117  1.00  0.00    -0.159 N 
HETATM   21  C9  UNL     1      14.481  67.675  15.036  1.00  0.00     0.678 C 
ATOM     22  H5  UNL     1      15.353  67.742  16.789  1.00  0.00     0.187 HD
HETATM   23  N6  UNL     1      14.911  66.311  14.862  1.00  0.00    -0.230 N 
HETATM   24  N7  UNL     1      13.723  68.251  13.985  1.00  0.00    -0.215 N 
HETATM   25  C10 UNL     1      14.979  65.479  16.022  1.00  0.00     0.165 C 
ATOM     26  H6  UNL     1      15.158  65.951  13.941  1.00  0.00     0.177 HD
HETATM   27  C11 UNL     1      12.297  68.034  13.866  1.00  0.00     0.169 C 
HETATM   28  C16 UNL     1      14.338  69.096  12.955  1.00  0.00     0.169 C 
HETATM   29  C12 UNL     1      11.982  67.420  12.522  1.00  0.00     0.257 C 
HETATM   30  N8  UNL     1      12.755  67.980  11.441  1.00  0.00    -0.072 N 
HETATM   31  C13 UNL     1      11.837  68.255  10.348  1.00  0.00     0.272 C 
HETATM   32  C14 UNL     1      13.720  67.010  10.952  1.00  0.00     0.272 C 
HETATM   33  C15 UNL     1      13.383  69.237  11.798  1.00  0.00     0.257 C 
ENDBRANCH   1  18
TORSDOF 5
ENDMDL
MODEL 4
REMARK VINA RESULT: -6.618012369      4.848      8.647
REMARK  5 active torsions:
REMARK  status: ('A' for Active; 'I' for Inactive)
REMARK    1  A    between atoms: C2_2  and  N1_3 
REMARK    2  A    between atoms: N1_3  and  C3_5 
REMARK    3  A    between atoms: C3_5  and  N2_7 
REMARK       I    between atoms: N3_10  and  C6_11 
REMARK       I    between atoms: C6_11  and  N4_13 
REMARK    4  A    between atoms: N4_13  and  C7_15 
REMARK    5  A    between atoms: C7_15  and  C8_16 
REMARK       I    between atoms: C8_16  and  N5_18 
REMARK       I    between atoms: C9_20  and  N6_21 
REMARK       I    between atoms: C9_20  and  N7_24 
ROOT
HETATM    1  C7  UNL     1      13.588  69.776  11.851  1.00  0.00     0.227 C 
ENDROOT
BRANCH   1   2
HETATM    2  N4  UNL     1      13.744  68.785  12.870  1.00  0.00    -0.334 N 
HETATM    3  C6  UNL     1      14.541  68.979  14.023  1.00  0.00     0.318 C 
HETATM    4  N3  UNL     1      14.704  68.015  15.044  1.00  0.00    -0.331 N 
HETATM    5  O1  UNL     1      15.154  70.085  14.167  1.00  0.00    -0.247 OA
HETATM    6  C5  UNL     1      15.548  68.299  16.211  1.00  0.00     0.147 C 
HETATM    7  C17 UNL     1      14.067  66.747  15.029  1.00  0.00     0.147 C 
HETATM    8  C4  UNL     1      15.105  67.438  17.377  1.00  0.00     0.145 C 
HETATM    9  N2  UNL     1      15.269  65.996  16.987  1.00  0.00    -0.355 N 
HETATM   10  C18 UNL     1      15.052  65.695  15.608  1.00  0.00     0.145 C 
ATOM     11  H4  UNL     1      13.258  67.895  12.760  1.00  0.00     0.164 HD
BRANCH   9  12
HETATM   12  C3  UNL     1      15.592  65.074  17.974  1.00  0.00     0.169 C 
HETATM   13  S1  UNL     1      14.446  63.803  18.088  1.00  0.00    -0.041 SA
BRANCH  12  14
HETATM   14  N1  UNL     1      16.648  65.006  18.852  1.00  0.00    -0.367 N 
ATOM     15  H1  UNL     1      16.594  64.231  19.512  1.00  0.00     0.161 HD
BRANCH  14  16
HETATM   16  C2  UNL     1      17.796  65.820  19.004  1.00  0.00     0.117 C 
HETATM   17  C1  UNL     1      18.131  66.169  20.447  1.00  0.00     0.026 C 
ENDBRANCH  14  16
ENDBRANCH  12  14
ENDBRANCH   9  12
ENDBRANCH   1   2
BRANCH   1  18
HETATM   18  C8  UNL     1      12.220  69.894  11.313  1.00  0.00     0.253 C 
HETATM   19  O2  UNL     1      11.857  69.170  10.356  1.00  0.00    -0.271 OA
HETATM   20  N5  UNL     1      11.316  70.819  11.866  1.00  0.00    -0.159 N 
HETATM   21  C9  UNL     1      10.355  70.571  12.673  1.00  0.00     0.678 C 
ATOM     22  H5  UNL     1      11.440  71.794  11.594  1.00  0.00     0.187 HD
HETATM   23  N6  UNL     1       9.541  71.673  13.122  1.00  0.00    -0.230 N 
HETATM   24  N7  UNL     1      10.023  69.284  13.165  1.00  0.00    -0.215 N 
HETATM   25  C10 UNL     1       9.302  72.743  12.206  1.00  0.00     0.165 C 
ATOM     26  H6  UNL     1       9.149  71.688  14.063  1.00  0.00     0.177 HD
HETATM   27  C11 UNL     1       8.975  68.485  12.564  1.00  0.00     0.169 C 
HETATM   28  C16 UNL     1      10.718  68.685  14.310  1.00  0.00     0.169 C 
HETATM   29  C12 UNL     1       7.933  68.142  13.604  1.00  0.00     0.257 C 
HETATM   30  N8  UNL     1       8.495  67.811  14.891  1.00  0.00    -0.072 N 
HETATM   31  C13 UNL     1       7.831  66.605  15.357  1.00  0.00     0.272 C 
HETATM   32  C14 UNL     1       8.203  68.857  15.856  1.00  0.00     0.272 C 
HETATM   33  C15 UNL     1       9.913  67.519  14.822  1.00  0.00     0.257 C 
ENDBRANCH   1  18
TORSDOF 5
ENDMDL
MODEL 5
REMARK VINA RESULT: -6.585155465      5.393      8.138
REMARK  5 active torsions:
REMARK  status: ('A' for Active; 'I' for Inactive)
REMARK    1  A    between atoms: C2_2  and  N1_3 
REMARK    2  A    between atoms: N1_3  and  C3_5 
REMARK    3  A    between atoms: C3_5  and  N2_7 
REMARK       I    between atoms: N3_10  and  C6_11 
REMARK       I    between atoms: C6_11  and  N4_13 
REMARK    4  A    between atoms: N4_13  and  C7_15 
REMARK    5  A    between atoms: C7_15  and  C8_16 
REMARK       I    between atoms: C8_16  and  N5_18 
REMARK       I    between atoms: C9_20  and  N6_21 
REMARK       I    between atoms: C9_20  and  N7_24 
ROOT
HETATM    1  C7  UNL     1      14.124  66.791  14.915  1.00  0.00     0.227 C 
ENDROOT
BRANCH   1   2
HETATM    2  N4  UNL     1      14.430  68.140  15.277  1.00  0.00    -0.334 N 
HETATM    3  C6  UNL     1      14.815  69.126  14.337  1.00  0.00     0.318 C 
HETATM    4  N3  UNL     1      15.115  70.466  14.674  1.00  0.00    -0.331 N 
HETATM    5  O1  UNL     1      14.898  68.804  13.109  1.00  0.00    -0.247 OA
HETATM    6  C5  UNL     1      15.504  71.427  13.634  1.00  0.00     0.147 C 
HETATM    7  C17 UNL     1      15.046  70.973  15.998  1.00  0.00     0.147 C 
HETATM    8  C4  UNL     1      15.191  72.833  14.104  1.00  0.00     0.145 C 
HETATM    9  N2  UNL     1      15.988  73.102  15.349  1.00  0.00    -0.355 N 
HETATM   10  C18 UNL     1      16.212  71.977  16.201  1.00  0.00     0.145 C 
ATOM     11  H4  UNL     1      14.368  68.405  16.260  1.00  0.00     0.164 HD
BRANCH   9  12
HETATM   12  C3  UNL     1      16.422  74.399  15.593  1.00  0.00     0.169 C 
HETATM   13  S1  UNL     1      15.190  75.565  15.341  1.00  0.00    -0.041 SA
BRANCH  12  14
HETATM   14  N1  UNL     1      17.641  74.894  15.994  1.00  0.00    -0.367 N 
ATOM     15  H1  UNL     1      18.266  75.138  15.226  1.00  0.00     0.161 HD
BRANCH  14  16
HETATM   16  C2  UNL     1      18.183  75.127  17.280  1.00  0.00     0.117 C 
HETATM   17  C1  UNL     1      18.956  73.950  17.857  1.00  0.00     0.026 C 
ENDBRANCH  14  16
ENDBRANCH  12  14
ENDBRANCH   9  12
ENDBRANCH   1   2
BRANCH   1  18
HETATM   18  C8  UNL     1      14.824  65.768  15.714  1.00  0.00     0.253 C 
HETATM   19  O2  UNL     1      15.793  65.141  15.222  1.00  0.00    -0.271 OA
HETATM   20  N5  UNL     1      14.410  65.485  17.028  1.00  0.00    -0.159 N 
HETATM   21  C9  UNL     1      14.961  65.877  18.114  1.00  0.00     0.678 C 
ATOM     22  H5  UNL     1      13.577  64.903  17.126  1.00  0.00     0.187 HD
HETATM   23  N6  UNL     1      14.371  65.469  19.363  1.00  0.00    -0.230 N 
HETATM   24  N7  UNL     1      16.122  66.687  18.183  1.00  0.00    -0.215 N 
HETATM   25  C10 UNL     1      13.763  64.178  19.426  1.00  0.00     0.165 C 
ATOM     26  H6  UNL     1      14.387  66.083  20.177  1.00  0.00     0.177 HD
HETATM   27  C11 UNL     1      17.438  66.119  18.382  1.00  0.00     0.169 C 
HETATM   28  C16 UNL     1      16.058  68.149  18.061  1.00  0.00     0.169 C 
HETATM   29  C12 UNL     1      18.069  66.710  19.622  1.00  0.00     0.257 C 
HETATM   30  N8  UNL     1      17.825  68.124  19.771  1.00  0.00    -0.072 N 
HETATM   31  C13 UNL     1      19.091  68.751  20.110  1.00  0.00     0.272 C 
HETATM   32  C14 UNL     1      16.919  68.367  20.882  1.00  0.00     0.272 C 
HETATM   33  C15 UNL     1      17.356  68.741  18.546  1.00  0.00     0.257 C 
ENDBRANCH   1  18
TORSDOF 5
ENDMDL
