MODEL 1
REMARK VINA RESULT: -7.219707208      0.000      0.000
REMARK  11 active torsions:
REMARK  status: ('A' for Active; 'I' for Inactive)
REMARK    1  A    between atoms: N2_7  and  C5_8 
REMARK    2  A    between atoms: C5_8  and  C6_9 
REMARK    3  A    between atoms: C7_10  and  C8_11 
REMARK    4  A    between atoms: C9_12  and  C10_13 
REMARK    5  A    between atoms: C10_13  and  C13_16 
REMARK    6  A    between atoms: C13_16  and  O1_17 
REMARK    7  A    between atoms: C14_19  and  C15_20 
REMARK    8  A    between atoms: C16_21  and  C17_22 
REMARK    9  A    between atoms: N3_23  and  O2_24 
REMARK   10  A    between atoms: C19_27  and  O3_28 
REMARK   11  A    between atoms: C24_34  and  N5_35 
ROOT
HETATM    1  C1  UNL     1      13.205  66.639   7.723  1.00  0.00     0.018 C 
HETATM    2  C2  UNL     1      12.810  66.830   8.847  1.00  0.00    -0.074 C 
HETATM    3  C3  UNL     1      12.347  67.064  10.174  1.00  0.00     0.062 A 
HETATM    4  C4  UNL     1      11.015  67.334  10.388  1.00  0.00     0.130 A 
HETATM    5  N1  UNL     1      10.542  67.563  11.648  1.00  0.00    -0.306 N 
ATOM      6  H1  UNL     1       9.552  67.761  11.793  1.00  0.00     0.186 HD
HETATM    7  N2  UNL     1      11.366  67.529  12.680  1.00  0.00    -0.271 N 
HETATM    8  C14 UNL     1      12.694  67.271  12.560  1.00  0.00     0.133 A 
HETATM    9  C24 UNL     1      13.182  67.035  11.267  1.00  0.00     0.083 A 
ENDROOT
BRANCH   9  10
HETATM   10  N5  UNL     1      14.440  66.785  11.109  1.00  0.00    -0.396 N 
ATOM     11  H52 UNL     1      14.722  65.864  10.774  1.00  0.00     0.156 HD
ATOM     12  H51 UNL     1      15.131  67.506  11.319  1.00  0.00     0.156 HD
ENDBRANCH   9  10
BRANCH   8  13
HETATM   13  C15 UNL     1      13.574  67.238  13.698  1.00  0.00    -0.036 C 
HETATM   14  C16 UNL     1      14.333  67.208  14.644  1.00  0.00    -0.021 C 
BRANCH  14  15
HETATM   15  C17 UNL     1      15.255  67.160  15.759  1.00  0.00     0.190 A 
HETATM   16  N3  UNL     1      15.829  65.998  16.114  1.00  0.00    -0.208 N 
HETATM   17  C18 UNL     1      16.690  65.889  17.134  1.00  0.00     0.164 A 
HETATM   18  C19 UNL     1      16.993  67.016  17.842  1.00  0.00     0.108 A 
HETATM   19  C21 UNL     1      16.396  68.201  17.466  1.00  0.00     0.044 A 
HETATM   20  C22 UNL     1      16.690  69.445  18.197  1.00  0.00     0.071 C 
HETATM   21  N4  UNL     1      15.532  68.278  16.432  1.00  0.00    -0.330 N 
HETATM   22  C23 UNL     1      14.909  69.531  16.044  1.00  0.00     0.158 C 
BRANCH  16  23
HETATM   23  O2  UNL     1      15.548  64.822  15.420  1.00  0.00    -0.281 OA
ATOM     24  H2  UNL     1      15.728  63.973  15.807  1.00  0.00     0.245 HD
ENDBRANCH  16  23
BRANCH  18  25
HETATM   25  O3  UNL     1      17.886  67.008  18.931  1.00  0.00    -0.352 OA
HETATM   26  C20 UNL     1      17.815  65.924  19.823  1.00  0.00     0.210 C 
ENDBRANCH  18  25
ENDBRANCH  14  15
ENDBRANCH   8  13
BRANCH   7  27
HETATM   27  C5  UNL     1      10.890  67.771  14.046  1.00  0.00     0.244 C 
BRANCH  27  28
HETATM   28  C6  UNL     1       9.560  67.135  14.115  1.00  0.00    -0.071 C 
HETATM   29  C7  UNL     1       8.462  66.629  14.181  1.00  0.00    -0.013 C 
BRANCH  29  30
HETATM   30  C8  UNL     1       7.171  66.060  14.268  1.00  0.00    -0.014 C 
HETATM   31  C9  UNL     1       6.069  65.585  14.360  1.00  0.00    -0.081 C 
BRANCH  31  32
HETATM   32  C10 UNL     1       4.725  65.019  14.492  1.00  0.00     0.038 C 
HETATM   33  C11 UNL     1       3.775  66.167  14.800  1.00  0.00     0.031 C 
HETATM   34  C12 UNL     1       4.656  64.014  15.604  1.00  0.00     0.031 C 
BRANCH  32  35
HETATM   35  C13 UNL     1       4.338  64.457  13.152  1.00  0.00     0.185 C 
BRANCH  35  36
HETATM   36  O1  UNL     1       5.065  63.264  12.990  1.00  0.00    -0.399 OA
ATOM     37  H1  UNL     1       4.694  62.634  13.597  1.00  0.00     0.209 HD
ENDBRANCH  35  36
ENDBRANCH  32  35
ENDBRANCH  31  32
ENDBRANCH  29  30
ENDBRANCH  27  28
ENDBRANCH   7  27
TORSDOF 11
ENDMDL
MODEL 2
REMARK VINA RESULT: -7.077228150      4.367      6.978
REMARK  11 active torsions:
REMARK  status: ('A' for Active; 'I' for Inactive)
REMARK    1  A    between atoms: N2_7  and  C5_8 
REMARK    2  A    between atoms: C5_8  and  C6_9 
REMARK    3  A    between atoms: C7_10  and  C8_11 
REMARK    4  A    between atoms: C9_12  and  C10_13 
REMARK    5  A    between atoms: C10_13  and  C13_16 
REMARK    6  A    between atoms: C13_16  and  O1_17 
REMARK    7  A    between atoms: C14_19  and  C15_20 
REMARK    8  A    between atoms: C16_21  and  C17_22 
REMARK    9  A    between atoms: N3_23  and  O2_24 
REMARK   10  A    between atoms: C19_27  and  O3_28 
REMARK   11  A    between atoms: C24_34  and  N5_35 
ROOT
HETATM    1  C1  UNL     1      12.860  66.396   7.766  1.00  0.00     0.018 C 
HETATM    2  C2  UNL     1      12.652  67.004   8.787  1.00  0.00    -0.074 C 
HETATM    3  C3  UNL     1      12.414  67.729   9.991  1.00  0.00     0.062 A 
HETATM    4  C4  UNL     1      11.395  68.651  10.034  1.00  0.00     0.130 A 
HETATM    5  N1  UNL     1      11.142  69.361  11.173  1.00  0.00    -0.306 N 
ATOM      6  H1  UNL     1      10.383  70.041  11.193  1.00  0.00     0.186 HD
HETATM    7  N2  UNL     1      11.883  69.167  12.250  1.00  0.00    -0.271 N 
HETATM    8  C14 UNL     1      12.908  68.277  12.295  1.00  0.00     0.133 A 
HETATM    9  C24 UNL     1      13.168  67.547  11.126  1.00  0.00     0.083 A 
ENDROOT
BRANCH   9  10
HETATM   10  N5  UNL     1      14.136  66.691  11.127  1.00  0.00    -0.396 N 
ATOM     11  H52 UNL     1      14.769  66.661  10.327  1.00  0.00     0.156 HD
ATOM     12  H51 UNL     1      14.255  66.058  11.918  1.00  0.00     0.156 HD
ENDBRANCH   9  10
BRANCH   8  13
HETATM   13  C15 UNL     1      13.702  68.082  13.479  1.00  0.00    -0.036 C 
HETATM   14  C16 UNL     1      14.386  67.908  14.466  1.00  0.00    -0.021 C 
BRANCH  14  15
HETATM   15  C17 UNL     1      15.216  67.684  15.630  1.00  0.00     0.190 A 
HETATM   16  N3  UNL     1      15.631  66.442  15.937  1.00  0.00    -0.208 N 
HETATM   17  C18 UNL     1      16.400  66.171  17.000  1.00  0.00     0.164 A 
HETATM   18  C19 UNL     1      16.776  67.207  17.804  1.00  0.00     0.108 A 
HETATM   19  C21 UNL     1      16.342  68.475  17.476  1.00  0.00     0.044 A 
HETATM   20  C22 UNL     1      16.720  69.628  18.311  1.00  0.00     0.071 C 
HETATM   21  N4  UNL     1      15.567  68.717  16.397  1.00  0.00    -0.330 N 
HETATM   22  C23 UNL     1      15.116  70.056  16.061  1.00  0.00     0.158 C 
BRANCH  16  23
HETATM   23  O2  UNL     1      15.272  65.353  15.145  1.00  0.00    -0.281 OA
ATOM     24  H2  UNL     1      15.858  64.614  15.039  1.00  0.00     0.245 HD
ENDBRANCH  16  23
BRANCH  18  25
HETATM   25  O3  UNL     1      17.582  67.027  18.944  1.00  0.00    -0.352 OA
HETATM   26  C20 UNL     1      17.516  65.786  19.599  1.00  0.00     0.210 C 
ENDBRANCH  18  25
ENDBRANCH  14  15
ENDBRANCH   8  13
BRANCH   7  27
HETATM   27  C5  UNL     1      11.639  69.913  13.489  1.00  0.00     0.244 C 
BRANCH  27  28
HETATM   28  C6  UNL     1      12.072  71.295  13.206  1.00  0.00    -0.071 C 
HETATM   29  C7  UNL     1      12.435  72.423  12.957  1.00  0.00    -0.013 C 
BRANCH  29  30
HETATM   30  C8  UNL     1      12.869  73.732  12.644  1.00  0.00    -0.014 C 
HETATM   31  C9  UNL     1      13.243  74.839  12.360  1.00  0.00    -0.081 C 
BRANCH  31  32
HETATM   32  C10 UNL     1      13.708  76.179  11.992  1.00  0.00     0.038 C 
HETATM   33  C11 UNL     1      14.198  76.111  10.553  1.00  0.00     0.031 C 
HETATM   34  C12 UNL     1      14.833  76.634  12.873  1.00  0.00     0.031 C 
BRANCH  32  35
HETATM   35  C13 UNL     1      12.515  77.093  12.022  1.00  0.00     0.185 C 
BRANCH  35  36
HETATM   36  O1  UNL     1      13.008  78.393  12.240  1.00  0.00    -0.399 OA
ATOM     37  H1  UNL     1      12.286  78.989  12.079  1.00  0.00     0.209 HD
ENDBRANCH  35  36
ENDBRANCH  32  35
ENDBRANCH  31  32
ENDBRANCH  29  30
ENDBRANCH  27  28
ENDBRANCH   7  27
TORSDOF 11
ENDMDL
MODEL 3
REMARK VINA RESULT: -7.026800219      6.674      8.489
REMARK  11 active torsions:
REMARK  status: ('A' for Active; 'I' for Inactive)
REMARK    1  A    between atoms: N2_7  and  C5_8 
REMARK    2  A    between atoms: C5_8  and  C6_9 
REMARK    3  A    between atoms: C7_10  and  C8_11 
REMARK    4  A    between atoms: C9_12  and  C10_13 
REMARK    5  A    between atoms: C10_13  and  C13_16 
REMARK    6  A    between atoms: C13_16  and  O1_17 
REMARK    7  A    between atoms: C14_19  and  C15_20 
REMARK    8  A    between atoms: C16_21  and  C17_22 
REMARK    9  A    between atoms: N3_23  and  O2_24 
REMARK   10  A    between atoms: C19_27  and  O3_28 
REMARK   11  A    between atoms: C24_34  and  N5_35 
ROOT
HETATM    1  C1  UNL     1      14.251  78.489   8.124  1.00  0.00     0.018 C 
HETATM    2  C2  UNL     1      13.830  77.749   8.979  1.00  0.00    -0.074 C 
HETATM    3  C3  UNL     1      13.330  76.882   9.995  1.00  0.00     0.062 A 
HETATM    4  C4  UNL     1      12.081  76.327   9.855  1.00  0.00     0.130 A 
HETATM    5  N1  UNL     1      11.575  75.493  10.811  1.00  0.00    -0.306 N 
ATOM      6  H1  UNL     1      10.647  75.086  10.695  1.00  0.00     0.186 HD
HETATM    7  N2  UNL     1      12.288  75.213  11.888  1.00  0.00    -0.271 N 
HETATM    8  C14 UNL     1      13.530  75.717  12.107  1.00  0.00     0.133 A 
HETATM    9  C24 UNL     1      14.050  76.573  11.125  1.00  0.00     0.083 A 
ENDROOT
BRANCH   9  10
HETATM   10  N5  UNL     1      15.229  77.075  11.295  1.00  0.00    -0.396 N 
ATOM     11  H52 UNL     1      15.316  78.067  11.516  1.00  0.00     0.156 HD
ATOM     12  H51 UNL     1      16.053  76.480  11.207  1.00  0.00     0.156 HD
ENDBRANCH   9  10
BRANCH   8  13
HETATM   13  C15 UNL     1      14.289  75.399  13.286  1.00  0.00    -0.036 C 
HETATM   14  C16 UNL     1      14.946  75.126  14.269  1.00  0.00    -0.021 C 
BRANCH  14  15
HETATM   15  C17 UNL     1      15.747  74.789  15.427  1.00  0.00     0.190 A 
HETATM   16  N3  UNL     1      16.527  73.694  15.415  1.00  0.00    -0.208 N 
HETATM   17  C18 UNL     1      17.290  73.329  16.454  1.00  0.00     0.164 A 
HETATM   18  C19 UNL     1      17.270  74.110  17.572  1.00  0.00     0.108 A 
HETATM   19  C21 UNL     1      16.463  75.230  17.569  1.00  0.00     0.044 A 
HETATM   20  C22 UNL     1      16.406  76.106  18.752  1.00  0.00     0.071 C 
HETATM   21  N4  UNL     1      15.706  75.571  16.506  1.00  0.00    -0.330 N 
HETATM   22  C23 UNL     1      14.861  76.752  16.513  1.00  0.00     0.158 C 
BRANCH  16  23
HETATM   23  O2  UNL     1      16.579  72.867  14.294  1.00  0.00    -0.281 OA
ATOM     24  H2  UNL     1      16.575  73.233  13.418  1.00  0.00     0.245 HD
ENDBRANCH  16  23
BRANCH  18  25
HETATM   25  O3  UNL     1      18.035  73.813  18.716  1.00  0.00    -0.352 OA
HETATM   26  C20 UNL     1      19.329  73.302  18.520  1.00  0.00     0.210 C 
ENDBRANCH  18  25
ENDBRANCH  14  15
ENDBRANCH   8  13
BRANCH   7  27
HETATM   27  C5  UNL     1      11.774  74.322  12.933  1.00  0.00     0.244 C 
BRANCH  27  28
HETATM   28  C6  UNL     1      11.977  72.954  12.416  1.00  0.00    -0.071 C 
HETATM   29  C7  UNL     1      12.132  71.825  12.006  1.00  0.00    -0.013 C 
BRANCH  29  30
HETATM   30  C8  UNL     1      12.296  70.498  11.546  1.00  0.00    -0.014 C 
HETATM   31  C9  UNL     1      12.418  69.365  11.161  1.00  0.00    -0.081 C 
BRANCH  31  32
HETATM   32  C10 UNL     1      12.545  67.981  10.700  1.00  0.00     0.038 C 
HETATM   33  C11 UNL     1      11.673  67.833   9.461  1.00  0.00     0.031 C 
HETATM   34  C12 UNL     1      12.084  67.007  11.743  1.00  0.00     0.031 C 
BRANCH  32  35
HETATM   35  C13 UNL     1      13.973  67.775  10.277  1.00  0.00     0.185 C 
BRANCH  35  36
HETATM   36  O1  UNL     1      14.776  68.193  11.353  1.00  0.00    -0.399 OA
ATOM     37  H1  UNL     1      15.632  68.393  10.992  1.00  0.00     0.209 HD
ENDBRANCH  35  36
ENDBRANCH  32  35
ENDBRANCH  31  32
ENDBRANCH  29  30
ENDBRANCH  27  28
ENDBRANCH   7  27
TORSDOF 11
ENDMDL
MODEL 4
REMARK VINA RESULT: -7.016621498      5.277      7.806
REMARK  11 active torsions:
REMARK  status: ('A' for Active; 'I' for Inactive)
REMARK    1  A    between atoms: N2_7  and  C5_8 
REMARK    2  A    between atoms: C5_8  and  C6_9 
REMARK    3  A    between atoms: C7_10  and  C8_11 
REMARK    4  A    between atoms: C9_12  and  C10_13 
REMARK    5  A    between atoms: C10_13  and  C13_16 
REMARK    6  A    between atoms: C13_16  and  O1_17 
REMARK    7  A    between atoms: C14_19  and  C15_20 
REMARK    8  A    between atoms: C16_21  and  C17_22 
REMARK    9  A    between atoms: N3_23  and  O2_24 
REMARK   10  A    between atoms: C19_27  and  O3_28 
REMARK   11  A    between atoms: C24_34  and  N5_35 
ROOT
HETATM    1  C1  UNL     1      13.534  66.086   8.534  1.00  0.00     0.018 C 
HETATM    2  C2  UNL     1      13.139  66.922   9.309  1.00  0.00    -0.074 C 
HETATM    3  C3  UNL     1      12.676  67.916  10.220  1.00  0.00     0.062 A 
HETATM    4  C4  UNL     1      11.397  68.405  10.094  1.00  0.00     0.130 A 
HETATM    5  N1  UNL     1      10.925  69.358  10.951  1.00  0.00    -0.306 N 
ATOM      6  H1  UNL     1       9.974  69.711  10.848  1.00  0.00     0.186 HD
HETATM    7  N2  UNL     1      11.702  69.822  11.915  1.00  0.00    -0.271 N 
HETATM    8  C14 UNL     1      12.976  69.396  12.111  1.00  0.00     0.133 A 
HETATM    9  C24 UNL     1      13.461  68.417  11.231  1.00  0.00     0.083 A 
ENDROOT
BRANCH   9  10
HETATM   10  N5  UNL     1      14.670  67.984  11.383  1.00  0.00    -0.396 N 
ATOM     11  H52 UNL     1      15.162  67.602  10.575  1.00  0.00     0.156 HD
ATOM     12  H51 UNL     1      15.114  68.029  12.300  1.00  0.00     0.156 HD
ENDBRANCH   9  10
BRANCH   8  13
HETATM   13  C15 UNL     1      13.804  69.915  13.167  1.00  0.00    -0.036 C 
HETATM   14  C16 UNL     1      14.485  70.364  14.064  1.00  0.00    -0.021 C 
BRANCH  14  15
HETATM   15  C17 UNL     1      15.282  70.918  15.139  1.00  0.00     0.190 A 
HETATM   16  N3  UNL     1      15.542  70.185  16.236  1.00  0.00    -0.208 N 
HETATM   17  C18 UNL     1      16.272  70.640  17.263  1.00  0.00     0.164 A 
HETATM   18  C19 UNL     1      16.771  71.908  17.184  1.00  0.00     0.108 A 
HETATM   19  C21 UNL     1      16.495  72.648  16.053  1.00  0.00     0.044 A 
HETATM   20  C22 UNL     1      17.011  74.021  15.919  1.00  0.00     0.071 C 
HETATM   21  N4  UNL     1      15.756  72.160  15.034  1.00  0.00    -0.330 N 
HETATM   22  C23 UNL     1      15.472  72.947  13.847  1.00  0.00     0.158 C 
BRANCH  16  23
HETATM   23  O2  UNL     1      15.052  68.886  16.359  1.00  0.00    -0.281 OA
ATOM     24  H2  UNL     1      14.152  68.681  16.134  1.00  0.00     0.245 HD
ENDBRANCH  16  23
BRANCH  18  25
HETATM   25  O3  UNL     1      17.549  72.479  18.209  1.00  0.00    -0.352 OA
HETATM   26  C20 UNL     1      18.117  71.610  19.157  1.00  0.00     0.210 C 
ENDBRANCH  18  25
ENDBRANCH  14  15
ENDBRANCH   8  13
BRANCH   7  27
HETATM   27  C5  UNL     1      11.226  70.845  12.851  1.00  0.00     0.244 C 
BRANCH  27  28
HETATM   28  C6  UNL     1      11.677  72.133  12.288  1.00  0.00    -0.071 C 
HETATM   29  C7  UNL     1      12.065  73.186  11.834  1.00  0.00    -0.013 C 
BRANCH  29  30
HETATM   30  C8  UNL     1      12.542  74.411  11.314  1.00  0.00    -0.014 C 
HETATM   31  C9  UNL     1      12.945  75.462  10.889  1.00  0.00    -0.081 C 
BRANCH  31  32
HETATM   32  C10 UNL     1      13.432  76.751  10.394  1.00  0.00     0.038 C 
HETATM   33  C11 UNL     1      12.458  77.225   9.325  1.00  0.00     0.031 C 
HETATM   34  C12 UNL     1      14.801  76.631   9.792  1.00  0.00     0.031 C 
BRANCH  32  35
HETATM   35  C13 UNL     1      13.363  77.728  11.535  1.00  0.00     0.185 C 
BRANCH  35  36
HETATM   36  O1  UNL     1      14.344  77.333  12.463  1.00  0.00    -0.399 OA
ATOM     37  H1  UNL     1      14.418  76.388  12.395  1.00  0.00     0.209 HD
ENDBRANCH  35  36
ENDBRANCH  32  35
ENDBRANCH  31  32
ENDBRANCH  29  30
ENDBRANCH  27  28
ENDBRANCH   7  27
TORSDOF 11
ENDMDL
MODEL 5
REMARK VINA RESULT: -6.953737683      6.727      8.596
REMARK  11 active torsions:
REMARK  status: ('A' for Active; 'I' for Inactive)
REMARK    1  A    between atoms: N2_7  and  C5_8 
REMARK    2  A    between atoms: C5_8  and  C6_9 
REMARK    3  A    between atoms: C7_10  and  C8_11 
REMARK    4  A    between atoms: C9_12  and  C10_13 
REMARK    5  A    between atoms: C10_13  and  C13_16 
REMARK    6  A    between atoms: C13_16  and  O1_17 
REMARK    7  A    between atoms: C14_19  and  C15_20 
REMARK    8  A    between atoms: C16_21  and  C17_22 
REMARK    9  A    between atoms: N3_23  and  O2_24 
REMARK   10  A    between atoms: C19_27  and  O3_28 
REMARK   11  A    between atoms: C24_34  and  N5_35 
ROOT
HETATM    1  C1  UNL     1      14.202  78.315   8.366  1.00  0.00     0.018 C 
HETATM    2  C2  UNL     1      13.849  77.535   9.217  1.00  0.00    -0.074 C 
HETATM    3  C3  UNL     1      13.429  76.622  10.228  1.00  0.00     0.062 A 
HETATM    4  C4  UNL     1      12.277  75.894  10.044  1.00  0.00     0.130 A 
HETATM    5  N1  UNL     1      11.848  75.012  10.994  1.00  0.00    -0.306 N 
ATOM      6  H1  UNL     1      10.993  74.477  10.845  1.00  0.00     0.186 HD
HETATM    7  N2  UNL     1      12.542  74.851  12.107  1.00  0.00    -0.271 N 
HETATM    8  C14 UNL     1      13.689  75.529  12.371  1.00  0.00     0.133 A 
HETATM    9  C24 UNL     1      14.131  76.435  11.395  1.00  0.00     0.083 A 
ENDROOT
BRANCH   9  10
HETATM   10  N5  UNL     1      15.218  77.100  11.607  1.00  0.00    -0.396 N 
ATOM     11  H52 UNL     1      15.273  77.710  12.423  1.00  0.00     0.156 HD
ATOM     12  H51 UNL     1      16.003  77.010  10.961  1.00  0.00     0.156 HD
ENDBRANCH   9  10
BRANCH   8  13
HETATM   13  C15 UNL     1      14.429  75.338  13.589  1.00  0.00    -0.036 C 
HETATM   14  C16 UNL     1      15.054  75.198  14.620  1.00  0.00    -0.021 C 
BRANCH  14  15
HETATM   15  C17 UNL     1      15.805  75.055  15.849  1.00  0.00     0.190 A 
HETATM   16  N3  UNL     1      15.870  76.073  16.725  1.00  0.00    -0.208 N 
HETATM   17  C18 UNL     1      16.548  76.003  17.878  1.00  0.00     0.164 A 
HETATM   18  C19 UNL     1      17.201  74.841  18.170  1.00  0.00     0.108 A 
HETATM   19  C21 UNL     1      17.125  73.805  17.261  1.00  0.00     0.044 A 
HETATM   20  C22 UNL     1      17.811  72.530  17.530  1.00  0.00     0.071 C 
HETATM   21  N4  UNL     1      16.433  73.907  16.107  1.00  0.00    -0.330 N 
HETATM   22  C23 UNL     1      16.359  72.811  15.157  1.00  0.00     0.158 C 
BRANCH  16  23
HETATM   23  O2  UNL     1      15.220  77.279  16.468  1.00  0.00    -0.281 OA
ATOM     24  H2  UNL     1      14.272  77.319  16.414  1.00  0.00     0.245 HD
ENDBRANCH  16  23
BRANCH  18  25
HETATM   25  O3  UNL     1      17.941  74.666  19.355  1.00  0.00    -0.352 OA
HETATM   26  C20 UNL     1      19.060  75.492  19.552  1.00  0.00     0.210 C 
ENDBRANCH  18  25
ENDBRANCH  14  15
ENDBRANCH   8  13
BRANCH   7  27
HETATM   27  C5  UNL     1      12.109  73.913  13.147  1.00  0.00     0.244 C 
BRANCH  27  28
HETATM   28  C6  UNL     1      12.291  72.569  12.563  1.00  0.00    -0.071 C 
HETATM   29  C7  UNL     1      12.428  71.460  12.097  1.00  0.00    -0.013 C 
BRANCH  29  30
HETATM   30  C8  UNL     1      12.572  70.156  11.570  1.00  0.00    -0.014 C 
HETATM   31  C9  UNL     1      12.695  69.039  11.141  1.00  0.00    -0.081 C 
BRANCH  31  32
HETATM   32  C10 UNL     1      12.847  67.671  10.641  1.00  0.00     0.038 C 
HETATM   33  C11 UNL     1      13.141  66.779  11.838  1.00  0.00     0.031 C 
HETATM   34  C12 UNL     1      13.976  67.563   9.660  1.00  0.00     0.031 C 
BRANCH  32  35
HETATM   35  C13 UNL     1      11.519  67.248  10.075  1.00  0.00     0.185 C 
BRANCH  35  36
HETATM   36  O1  UNL     1      11.191  68.180   9.075  1.00  0.00    -0.399 OA
ATOM     37  H1  UNL     1      11.053  67.685   8.275  1.00  0.00     0.209 HD
ENDBRANCH  35  36
ENDBRANCH  32  35
ENDBRANCH  31  32
ENDBRANCH  29  30
ENDBRANCH  27  28
ENDBRANCH   7  27
TORSDOF 11
ENDMDL
