MODEL 1
REMARK VINA RESULT: -6.873957259      0.000      0.000
REMARK  8 active torsions:
REMARK  status: ('A' for Active; 'I' for Inactive)
REMARK    1  A    between atoms: C3_3  and  C4_4 
REMARK    2  A    between atoms: C4_4  and  N1_6 
REMARK       I    between atoms: N1_6  and  C6_8 
REMARK       I    between atoms: C6_8  and  N2_10 
REMARK    3  A    between atoms: C9_14  and  C10_15 
REMARK    4  A    between atoms: C10_15  and  O2_16 
REMARK    5  A    between atoms: C10_15  and  C11_18 
REMARK    6  A    between atoms: C11_18  and  C12_19 
REMARK    7  A    between atoms: C12_19  and  N3_20 
REMARK    8  A    between atoms: N4_24  and  S1_25 
ROOT
HETATM    1  C1  UNL     1      16.679  82.014   6.046  1.00  0.00     0.112 C 
HETATM    2  C2  UNL     1      15.657  81.538   6.984  1.00  0.00    -0.109 C 
HETATM    3  C3  UNL     1      14.821  81.146   7.777  1.00  0.00    -0.082 C 
ENDROOT
BRANCH   3   4
HETATM    4  C4  UNL     1      13.829  80.683   8.751  1.00  0.00     0.162 C 
HETATM    5  C5  UNL     1      13.437  81.823   9.662  1.00  0.00     0.046 C 
BRANCH   4   6
HETATM    6  N1  UNL     1      14.377  79.568   9.478  1.00  0.00    -0.328 N 
HETATM    7  C6  UNL     1      14.076  78.212   9.156  1.00  0.00     0.322 C 
HETATM    8  O1  UNL     1      13.315  77.889   8.220  1.00  0.00    -0.247 OA
HETATM    9  N2  UNL     1      14.655  77.163   9.919  1.00  0.00    -0.294 N 
HETATM   10  C7  UNL     1      14.346  77.078  11.158  1.00  0.00     0.125 A 
ATOM     11  H2  UNL     1      15.298  76.497   9.491  1.00  0.00     0.172 HD
HETATM   12  C8  UNL     1      14.815  76.116  12.062  1.00  0.00     0.080 A 
HETATM   13  N6  UNL     1      13.528  77.857  11.873  1.00  0.00    -0.285 N 
HETATM   14  C9  UNL     1      14.249  76.365  13.294  1.00  0.00     0.070 A 
HETATM   15  N5  UNL     1      13.461  77.444  13.142  1.00  0.00    -0.300 N 
ATOM     16  H5  UNL     1      12.903  77.877  13.877  1.00  0.00     0.186 HD
ATOM     17  H6  UNL     1      13.021  78.659  11.499  1.00  0.00     0.188 HD
ATOM     18  H1  UNL     1      15.008  79.756  10.257  1.00  0.00     0.165 HD
BRANCH  14  19
HETATM   19  C10 UNL     1      14.468  75.593  14.539  1.00  0.00     0.250 C 
BRANCH  19  20
HETATM   20  O2  UNL     1      15.787  75.640  14.951  1.00  0.00    -0.377 OA
ATOM     21  H2  UNL     1      16.172  76.497  14.811  1.00  0.00     0.211 HD
ENDBRANCH  19  20
BRANCH  19  22
HETATM   22  C11 UNL     1      14.128  74.175  14.363  1.00  0.00    -0.038 C 
BRANCH  22  23
HETATM   23  C12 UNL     1      13.866  72.995  14.223  1.00  0.00     0.119 C 
BRANCH  23  24
HETATM   24  N3  UNL     1      13.586  71.623  14.058  1.00  0.00    -0.000 N 
HETATM   25  C13 UNL     1      13.135  71.180  15.390  1.00  0.00     0.290 C 
HETATM   26  C14 UNL     1      12.490  71.485  13.172  1.00  0.00     0.299 C 
HETATM   27  C15 UNL     1      12.788  70.853  11.858  1.00  0.00     0.105 C 
HETATM   28  N4  UNL     1      13.691  69.784  11.859  1.00  0.00    -0.287 N 
HETATM   29  C17 UNL     1      14.694  69.761  12.853  1.00  0.00     0.169 C 
HETATM   30  C18 UNL     1      14.783  70.942  13.739  1.00  0.00     0.275 C 
BRANCH  28  31
HETATM   31  S1  UNL     1      13.143  68.294  11.300  1.00  0.00     0.228 S 
HETATM   32  C16 UNL     1      12.167  67.389  12.453  1.00  0.00     0.186 C 
HETATM   33  O3  UNL     1      14.309  67.440  10.892  1.00  0.00    -0.206 OA
HETATM   34  O4  UNL     1      12.321  68.514  10.038  1.00  0.00    -0.206 OA
ENDBRANCH  28  31
ENDBRANCH  23  24
ENDBRANCH  22  23
ENDBRANCH  19  22
ENDBRANCH  14  19
ENDBRANCH   4   6
ENDBRANCH   3   4
TORSDOF 8
ENDMDL
MODEL 2
REMARK VINA RESULT: -6.325692934      4.810      7.556
REMARK  8 active torsions:
REMARK  status: ('A' for Active; 'I' for Inactive)
REMARK    1  A    between atoms: C3_3  and  C4_4 
REMARK    2  A    between atoms: C4_4  and  N1_6 
REMARK       I    between atoms: N1_6  and  C6_8 
REMARK       I    between atoms: C6_8  and  N2_10 
REMARK    3  A    between atoms: C9_14  and  C10_15 
REMARK    4  A    between atoms: C10_15  and  O2_16 
REMARK    5  A    between atoms: C10_15  and  C11_18 
REMARK    6  A    between atoms: C11_18  and  C12_19 
REMARK    7  A    between atoms: C12_19  and  N3_20 
REMARK    8  A    between atoms: N4_24  and  S1_25 
ROOT
HETATM    1  C1  UNL     1      14.424  77.474   9.254  1.00  0.00     0.112 C 
HETATM    2  C2  UNL     1      14.191  76.607  10.413  1.00  0.00    -0.109 C 
HETATM    3  C3  UNL     1      13.979  75.891  11.376  1.00  0.00    -0.082 C 
ENDROOT
BRANCH   3   4
HETATM    4  C4  UNL     1      13.700  75.035  12.531  1.00  0.00     0.162 C 
HETATM    5  C5  UNL     1      14.818  75.158  13.540  1.00  0.00     0.046 C 
BRANCH   4   6
HETATM    6  N1  UNL     1      13.525  73.681  12.074  1.00  0.00    -0.328 N 
HETATM    7  C6  UNL     1      12.242  73.100  11.851  1.00  0.00     0.322 C 
HETATM    8  O1  UNL     1      11.174  73.721  12.035  1.00  0.00    -0.247 OA
HETATM    9  N2  UNL     1      12.148  71.756  11.400  1.00  0.00    -0.294 N 
HETATM   10  C7  UNL     1      12.582  70.830  12.170  1.00  0.00     0.125 A 
ATOM     11  H2  UNL     1      11.745  71.537  10.489  1.00  0.00     0.172 HD
HETATM   12  C8  UNL     1      12.572  69.457  11.896  1.00  0.00     0.080 A 
HETATM   13  N6  UNL     1      13.133  70.939  13.383  1.00  0.00    -0.285 N 
HETATM   14  C9  UNL     1      13.125  68.795  12.971  1.00  0.00     0.070 A 
HETATM   15  N5  UNL     1      13.459  69.738  13.870  1.00  0.00    -0.300 N 
ATOM     16  H5  UNL     1      13.891  69.565  14.777  1.00  0.00     0.186 HD
ATOM     17  H6  UNL     1      13.284  71.821  13.872  1.00  0.00     0.188 HD
ATOM     18  H1  UNL     1      14.355  73.113  11.903  1.00  0.00     0.165 HD
BRANCH  14  19
HETATM   19  C10 UNL     1      13.312  67.332  13.108  1.00  0.00     0.250 C 
BRANCH  19  20
HETATM   20  O2  UNL     1      12.105  66.656  13.120  1.00  0.00    -0.377 OA
ATOM     21  H2  UNL     1      11.400  67.183  12.761  1.00  0.00     0.211 HD
ENDBRANCH  19  20
BRANCH  19  22
HETATM   22  C11 UNL     1      14.001  66.990  14.359  1.00  0.00    -0.038 C 
BRANCH  22  23
HETATM   23  C12 UNL     1      14.556  66.714  15.406  1.00  0.00     0.119 C 
BRANCH  23  24
HETATM   24  N3  UNL     1      15.216  66.383  16.607  1.00  0.00    -0.000 N 
HETATM   25  C13 UNL     1      14.755  65.017  16.914  1.00  0.00     0.290 C 
HETATM   26  C14 UNL     1      16.609  66.314  16.358  1.00  0.00     0.299 C 
HETATM   27  C15 UNL     1      17.444  67.355  17.018  1.00  0.00     0.105 C 
HETATM   28  N4  UNL     1      17.090  67.718  18.323  1.00  0.00    -0.287 N 
HETATM   29  C17 UNL     1      15.731  67.614  18.697  1.00  0.00     0.169 C 
HETATM   30  C18 UNL     1      14.772  67.249  17.633  1.00  0.00     0.275 C 
BRANCH  28  31
HETATM   31  S1  UNL     1      18.231  67.485  19.538  1.00  0.00     0.228 S 
HETATM   32  C16 UNL     1      17.757  66.333  20.783  1.00  0.00     0.186 C 
HETATM   33  O3  UNL     1      18.549  68.795  20.200  1.00  0.00    -0.206 OA
HETATM   34  O4  UNL     1      19.531  67.007  18.906  1.00  0.00    -0.206 OA
ENDBRANCH  28  31
ENDBRANCH  23  24
ENDBRANCH  22  23
ENDBRANCH  19  22
ENDBRANCH  14  19
ENDBRANCH   4   6
ENDBRANCH   3   4
TORSDOF 8
ENDMDL
MODEL 3
REMARK VINA RESULT: -6.302239242      1.383      1.669
REMARK  8 active torsions:
REMARK  status: ('A' for Active; 'I' for Inactive)
REMARK    1  A    between atoms: C3_3  and  C4_4 
REMARK    2  A    between atoms: C4_4  and  N1_6 
REMARK       I    between atoms: N1_6  and  C6_8 
REMARK       I    between atoms: C6_8  and  N2_10 
REMARK    3  A    between atoms: C9_14  and  C10_15 
REMARK    4  A    between atoms: C10_15  and  O2_16 
REMARK    5  A    between atoms: C10_15  and  C11_18 
REMARK    6  A    between atoms: C11_18  and  C12_19 
REMARK    7  A    between atoms: C12_19  and  N3_20 
REMARK    8  A    between atoms: N4_24  and  S1_25 
ROOT
HETATM    1  C1  UNL     1      15.248  81.893   6.987  1.00  0.00     0.112 C 
HETATM    2  C2  UNL     1      14.445  81.273   8.045  1.00  0.00    -0.109 C 
HETATM    3  C3  UNL     1      13.763  80.770   8.920  1.00  0.00    -0.082 C 
ENDROOT
BRANCH   3   4
HETATM    4  C4  UNL     1      12.923  80.180   9.966  1.00  0.00     0.162 C 
HETATM    5  C5  UNL     1      12.612  81.220  11.018  1.00  0.00     0.046 C 
BRANCH   4   6
HETATM    6  N1  UNL     1      13.602  79.035  10.515  1.00  0.00    -0.328 N 
HETATM    7  C6  UNL     1      13.560  77.747   9.906  1.00  0.00     0.322 C 
HETATM    8  O1  UNL     1      12.933  77.513   8.852  1.00  0.00    -0.247 OA
HETATM    9  N2  UNL     1      14.255  76.663  10.506  1.00  0.00    -0.294 N 
HETATM   10  C7  UNL     1      13.878  76.274  11.667  1.00  0.00     0.125 A 
ATOM     11  H2  UNL     1      15.030  76.207  10.026  1.00  0.00     0.172 HD
HETATM   12  C8  UNL     1      14.440  75.229  12.410  1.00  0.00     0.080 A 
HETATM   13  N6  UNL     1      12.891  76.753  12.431  1.00  0.00    -0.285 N 
HETATM   14  C9  UNL     1      13.755  75.125  13.602  1.00  0.00     0.070 A 
HETATM   15  N5  UNL     1      12.807  76.079  13.581  1.00  0.00    -0.300 N 
ATOM     16  H5  UNL     1      12.132  76.258  14.325  1.00  0.00     0.186 HD
ATOM     17  H6  UNL     1      12.282  77.528  12.169  1.00  0.00     0.188 HD
ATOM     18  H1  UNL     1      14.134  79.151  11.377  1.00  0.00     0.165 HD
BRANCH  14  19
HETATM   19  C10 UNL     1      14.014  74.153  14.689  1.00  0.00     0.250 C 
BRANCH  19  20
HETATM   20  O2  UNL     1      15.353  74.103  15.029  1.00  0.00    -0.377 OA
ATOM     21  H2  UNL     1      15.526  73.449  15.696  1.00  0.00     0.211 HD
ENDBRANCH  19  20
BRANCH  19  22
HETATM   22  C11 UNL     1      13.624  72.791  14.300  1.00  0.00    -0.038 C 
BRANCH  22  23
HETATM   23  C12 UNL     1      13.308  71.667  13.959  1.00  0.00     0.119 C 
BRANCH  23  24
HETATM   24  N3  UNL     1      12.964  70.360  13.559  1.00  0.00    -0.000 N 
HETATM   25  C13 UNL     1      12.445  69.726  14.784  1.00  0.00     0.290 C 
HETATM   26  C14 UNL     1      11.894  70.433  12.634  1.00  0.00     0.299 C 
HETATM   27  C15 UNL     1      12.205  70.015  11.239  1.00  0.00     0.105 C 
HETATM   28  N4  UNL     1      13.053  68.912  11.083  1.00  0.00    -0.287 N 
HETATM   29  C17 UNL     1      14.018  68.667  12.085  1.00  0.00     0.169 C 
HETATM   30  C18 UNL     1      14.135  69.676  13.159  1.00  0.00     0.275 C 
BRANCH  28  31
HETATM   31  S1  UNL     1      12.449  67.570  10.266  1.00  0.00     0.228 S 
HETATM   32  C16 UNL     1      13.669  66.586   9.463  1.00  0.00     0.186 C 
HETATM   33  O3  UNL     1      11.441  68.005   9.242  1.00  0.00    -0.206 OA
HETATM   34  O4  UNL     1      11.693  66.692  11.253  1.00  0.00    -0.206 OA
ENDBRANCH  28  31
ENDBRANCH  23  24
ENDBRANCH  22  23
ENDBRANCH  19  22
ENDBRANCH  14  19
ENDBRANCH   4   6
ENDBRANCH   3   4
TORSDOF 8
ENDMDL
MODEL 4
REMARK VINA RESULT: -6.270795690      3.701      9.402
REMARK  8 active torsions:
REMARK  status: ('A' for Active; 'I' for Inactive)
REMARK    1  A    between atoms: C3_3  and  C4_4 
REMARK    2  A    between atoms: C4_4  and  N1_6 
REMARK       I    between atoms: N1_6  and  C6_8 
REMARK       I    between atoms: C6_8  and  N2_10 
REMARK    3  A    between atoms: C9_14  and  C10_15 
REMARK    4  A    between atoms: C10_15  and  O2_16 
REMARK    5  A    between atoms: C10_15  and  C11_18 
REMARK    6  A    between atoms: C11_18  and  C12_19 
REMARK    7  A    between atoms: C12_19  and  N3_20 
REMARK    8  A    between atoms: N4_24  and  S1_25 
ROOT
HETATM    1  C1  UNL     1      12.120  67.014   6.613  1.00  0.00     0.112 C 
HETATM    2  C2  UNL     1      12.220  67.008   8.076  1.00  0.00    -0.109 C 
HETATM    3  C3  UNL     1      12.304  67.023   9.291  1.00  0.00    -0.082 C 
ENDROOT
BRANCH   3   4
HETATM    4  C4  UNL     1      12.402  67.066  10.752  1.00  0.00     0.162 C 
HETATM    5  C5  UNL     1      11.027  67.260  11.350  1.00  0.00     0.046 C 
BRANCH   4   6
HETATM    6  N1  UNL     1      13.312  68.116  11.126  1.00  0.00    -0.328 N 
HETATM    7  C6  UNL     1      14.036  68.109  12.355  1.00  0.00     0.322 C 
HETATM    8  O1  UNL     1      13.935  67.193  13.198  1.00  0.00    -0.247 OA
HETATM    9  N2  UNL     1      14.918  69.181  12.657  1.00  0.00    -0.294 N 
HETATM   10  C7  UNL     1      14.417  70.350  12.803  1.00  0.00     0.125 A 
ATOM     11  H2  UNL     1      15.921  69.023  12.755  1.00  0.00     0.172 HD
HETATM   12  C8  UNL     1      15.126  71.520  13.101  1.00  0.00     0.080 A 
HETATM   13  N6  UNL     1      13.139  70.732  12.712  1.00  0.00    -0.285 N 
HETATM   14  C9  UNL     1      14.230  72.565  13.176  1.00  0.00     0.070 A 
HETATM   15  N5  UNL     1      13.015  72.044  12.932  1.00  0.00    -0.300 N 
ATOM     16  H5  UNL     1      12.139  72.566  12.916  1.00  0.00     0.186 HD
ATOM     17  H6  UNL     1      12.363  70.104  12.502  1.00  0.00     0.188 HD
ATOM     18  H1  UNL     1      13.445  68.898  10.486  1.00  0.00     0.165 HD
BRANCH  14  19
HETATM   19  C10 UNL     1      14.546  73.982  13.469  1.00  0.00     0.250 C 
BRANCH  19  20
HETATM   20  O2  UNL     1      14.398  74.277  14.812  1.00  0.00    -0.377 OA
ATOM     21  H2  UNL     1      15.026  74.928  15.104  1.00  0.00     0.211 HD
ENDBRANCH  19  20
BRANCH  19  22
HETATM   22  C11 UNL     1      13.662  74.896  12.734  1.00  0.00    -0.038 C 
BRANCH  22  23
HETATM   23  C12 UNL     1      12.946  75.668  12.124  1.00  0.00     0.119 C 
BRANCH  23  24
HETATM   24  N3  UNL     1      12.121  76.550  11.397  1.00  0.00    -0.000 N 
HETATM   25  C13 UNL     1      12.948  77.756  11.212  1.00  0.00     0.290 C 
HETATM   26  C14 UNL     1      11.883  75.999  10.114  1.00  0.00     0.299 C 
HETATM   27  C15 UNL     1      10.481  75.586   9.830  1.00  0.00     0.105 C 
HETATM   28  N4  UNL     1       9.465  76.415  10.320  1.00  0.00    -0.287 N 
HETATM   29  C17 UNL     1       9.718  77.154  11.497  1.00  0.00     0.169 C 
HETATM   30  C18 UNL     1      10.999  76.891  12.187  1.00  0.00     0.275 C 
BRANCH  28  31
HETATM   31  S1  UNL     1       8.410  77.104   9.204  1.00  0.00     0.228 S 
HETATM   32  C16 UNL     1       6.730  76.604   9.373  1.00  0.00     0.186 C 
HETATM   33  O3  UNL     1       8.862  76.784   7.807  1.00  0.00    -0.206 OA
HETATM   34  O4  UNL     1       8.479  78.619   9.331  1.00  0.00    -0.206 OA
ENDBRANCH  28  31
ENDBRANCH  23  24
ENDBRANCH  22  23
ENDBRANCH  19  22
ENDBRANCH  14  19
ENDBRANCH   4   6
ENDBRANCH   3   4
TORSDOF 8
ENDMDL
MODEL 5
REMARK VINA RESULT: -6.224856879      3.481      9.946
REMARK  8 active torsions:
REMARK  status: ('A' for Active; 'I' for Inactive)
REMARK    1  A    between atoms: C3_3  and  C4_4 
REMARK    2  A    between atoms: C4_4  and  N1_6 
REMARK       I    between atoms: N1_6  and  C6_8 
REMARK       I    between atoms: C6_8  and  N2_10 
REMARK    3  A    between atoms: C9_14  and  C10_15 
REMARK    4  A    between atoms: C10_15  and  O2_16 
REMARK    5  A    between atoms: C10_15  and  C11_18 
REMARK    6  A    between atoms: C11_18  and  C12_19 
REMARK    7  A    between atoms: C12_19  and  N3_20 
REMARK    8  A    between atoms: N4_24  and  S1_25 
ROOT
HETATM    1  C1  UNL     1      11.964  67.037   6.675  1.00  0.00     0.112 C 
HETATM    2  C2  UNL     1      12.041  67.066   8.139  1.00  0.00    -0.109 C 
HETATM    3  C3  UNL     1      12.119  67.103   9.354  1.00  0.00    -0.082 C 
ENDROOT
BRANCH   3   4
HETATM    4  C4  UNL     1      12.231  67.166  10.813  1.00  0.00     0.162 C 
HETATM    5  C5  UNL     1      10.872  67.433  11.418  1.00  0.00     0.046 C 
BRANCH   4   6
HETATM    6  N1  UNL     1      13.191  68.180  11.162  1.00  0.00    -0.328 N 
HETATM    7  C6  UNL     1      13.991  68.113  12.340  1.00  0.00     0.322 C 
HETATM    8  O1  UNL     1      13.921  67.171  13.157  1.00  0.00    -0.247 OA
HETATM    9  N2  UNL     1      14.919  69.152  12.621  1.00  0.00    -0.294 N 
HETATM   10  C7  UNL     1      14.459  70.327  12.838  1.00  0.00     0.125 A 
ATOM     11  H2  UNL     1      15.921  68.967  12.648  1.00  0.00     0.172 HD
HETATM   12  C8  UNL     1      15.217  71.469  13.129  1.00  0.00     0.080 A 
HETATM   13  N6  UNL     1      13.189  70.742  12.843  1.00  0.00    -0.285 N 
HETATM   14  C9  UNL     1      14.355  72.531  13.297  1.00  0.00     0.070 A 
HETATM   15  N5  UNL     1      13.113  72.048  13.114  1.00  0.00    -0.300 N 
ATOM     16  H5  UNL     1      12.252  72.592  13.173  1.00  0.00     0.186 HD
ATOM     17  H6  UNL     1      12.384  70.142  12.663  1.00  0.00     0.188 HD
ATOM     18  H1  UNL     1      13.303  68.982  10.541  1.00  0.00     0.165 HD
BRANCH  14  19
HETATM   19  C10 UNL     1      14.726  73.929  13.616  1.00  0.00     0.250 C 
BRANCH  19  20
HETATM   20  O2  UNL     1      14.480  74.239  14.941  1.00  0.00    -0.377 OA
ATOM     21  H2  UNL     1      14.170  75.131  15.045  1.00  0.00     0.211 HD
ENDBRANCH  19  20
BRANCH  19  22
HETATM   22  C11 UNL     1      13.963  74.889  12.807  1.00  0.00    -0.038 C 
BRANCH  22  23
HETATM   23  C12 UNL     1      13.335  75.673  12.121  1.00  0.00     0.119 C 
BRANCH  23  24
HETATM   24  N3  UNL     1      12.618  76.599  11.336  1.00  0.00    -0.000 N 
HETATM   25  C13 UNL     1      11.847  75.764  10.397  1.00  0.00     0.290 C 
HETATM   26  C14 UNL     1      11.689  77.275  12.164  1.00  0.00     0.299 C 
HETATM   27  C15 UNL     1      11.938  78.727  12.377  1.00  0.00     0.105 C 
HETATM   28  N4  UNL     1      12.397  79.460  11.276  1.00  0.00    -0.287 N 
HETATM   29  C17 UNL     1      13.168  78.785  10.302  1.00  0.00     0.169 C 
HETATM   30  C18 UNL     1      13.532  77.383  10.595  1.00  0.00     0.275 C 
BRANCH  28  31
HETATM   31  S1  UNL     1      11.449  80.743  10.739  1.00  0.00     0.228 S 
HETATM   32  C16 UNL     1      11.287  82.069  11.886  1.00  0.00     0.186 C 
HETATM   33  O3  UNL     1      10.075  80.250  10.386  1.00  0.00    -0.206 OA
HETATM   34  O4  UNL     1      12.045  81.288   9.449  1.00  0.00    -0.206 OA
ENDBRANCH  28  31
ENDBRANCH  23  24
ENDBRANCH  22  23
ENDBRANCH  19  22
ENDBRANCH  14  19
ENDBRANCH   4   6
ENDBRANCH   3   4
TORSDOF 8
ENDMDL
