MODEL 1
REMARK VINA RESULT: -8.767857991      0.000      0.000
REMARK  8 active torsions:
REMARK  status: ('A' for Active; 'I' for Inactive)
REMARK       I    between atoms: C2_2  and  N1_4 
REMARK    1  A    between atoms: N1_4  and  C3_6 
REMARK    2  A    between atoms: C7_11  and  N3_12 
REMARK    3  A    between atoms: N3_12  and  C10_15 
REMARK    4  A    between atoms: C10_15  and  C11_16 
REMARK    5  A    between atoms: C12_17  and  C13_18 
REMARK    6  A    between atoms: C13_18  and  N4_19 
REMARK    7  A    between atoms: C15_21  and  O2_22 
REMARK    8  A    between atoms: C16_24  and  O3_25 
ROOT
HETATM    1  N3  UNL     1      19.097 -14.207  20.645  1.00  0.00    -0.059 N 
HETATM    2  C8  UNL     1      20.376 -14.238  19.963  1.00  0.00     0.273 C 
HETATM    3  C9  UNL     1      18.535 -15.547  20.669  1.00  0.00     0.273 C 
ENDROOT
BRANCH   1   4
HETATM    4  C7  UNL     1      19.214 -13.765  22.009  1.00  0.00     0.218 C 
HETATM    5  C6  UNL     1      18.924 -14.900  22.951  1.00  0.00     0.063 C 
HETATM    6  C5  UNL     1      20.283 -15.157  23.575  1.00  0.00     0.239 C 
HETATM    7  N2  UNL     1      20.863 -13.842  23.617  1.00  0.00    -0.063 N 
HETATM    8  C4  UNL     1      22.303 -13.924  23.762  1.00  0.00     0.263 C 
HETATM    9  C22 UNL     1      20.552 -13.203  22.359  1.00  0.00     0.271 C 
HETATM   10  C23 UNL     1      20.373 -13.070  24.735  1.00  0.00     0.243 C 
HETATM   11  C3  UNL     1      22.610 -13.603  25.210  1.00  0.00     0.115 C 
HETATM   12  C24 UNL     1      21.259 -13.539  25.866  1.00  0.00     0.032 C 
HETATM   13  C25 UNL     1      21.214 -12.635  27.062  1.00  0.00     0.014 C 
BRANCH  11  14
HETATM   14  N1  UNL     1      23.378 -14.691  25.743  1.00  0.00    -0.355 N 
HETATM   15  C2  UNL     1      24.371 -15.341  24.980  1.00  0.00     0.213 C 
HETATM   16  C1  UNL     1      25.167 -16.463  25.522  1.00  0.00     0.117 C 
HETATM   17  O1  UNL     1      24.590 -14.963  23.811  1.00  0.00    -0.274 OA
ATOM     18  H1  UNL     1      23.203 -15.003  26.699  1.00  0.00     0.162 HD
ENDBRANCH  11  14
ENDBRANCH   1   4
BRANCH   1  19
HETATM   19  C10 UNL     1      18.233 -13.317  19.895  1.00  0.00     0.330 C 
BRANCH  19  20
HETATM   20  C11 UNL     1      16.891 -13.313  20.529  1.00  0.00    -0.077 C 
HETATM   21  C12 UNL     1      15.806 -13.290  21.052  1.00  0.00    -0.077 C 
BRANCH  21  22
HETATM   22  C13 UNL     1      14.486 -13.236  21.691  1.00  0.00     0.332 C 
BRANCH  22  23
HETATM   23  N4  UNL     1      13.869 -11.997  21.338  1.00  0.00    -0.045 N 
HETATM   24  C14 UNL     1      14.748 -10.845  21.387  1.00  0.00     0.273 C 
HETATM   25  C15 UNL     1      14.004  -9.542  21.454  1.00  0.00     0.173 C 
HETATM   26  C16 UNL     1      12.640  -9.601  20.817  1.00  0.00     0.156 C 
HETATM   27  C17 UNL     1      12.142 -11.023  20.796  1.00  0.00     0.079 C 
HETATM   28  C18 UNL     1      12.663 -11.668  22.089  1.00  0.00     0.249 C 
HETATM   29  C19 UNL     1      13.067 -11.982  20.145  1.00  0.00     0.131 C 
HETATM   30  C20 UNL     1      13.746 -11.547  18.885  1.00  0.00     0.047 C 
HETATM   31  C21 UNL     1      12.369 -13.318  19.913  1.00  0.00     0.047 C 
BRANCH  25  32
HETATM   32  O2  UNL     1      14.756  -8.495  20.875  1.00  0.00    -0.391 OA
ATOM     33  H2  UNL     1      14.409  -7.645  21.123  1.00  0.00     0.210 HD
ENDBRANCH  25  32
BRANCH  26  34
HETATM   34  O3  UNL     1      12.563  -8.964  19.603  1.00  0.00    -0.392 OA
ATOM     35  H3  UNL     1      12.530  -9.554  18.858  1.00  0.00     0.210 HD
ENDBRANCH  26  34
ENDBRANCH  22  23
ENDBRANCH  21  22
ENDBRANCH  19  20
ENDBRANCH   1  19
TORSDOF 8
ENDMDL
MODEL 2
REMARK VINA RESULT: -8.293003595      2.198      8.784
REMARK  8 active torsions:
REMARK  status: ('A' for Active; 'I' for Inactive)
REMARK       I    between atoms: C2_2  and  N1_4 
REMARK    1  A    between atoms: N1_4  and  C3_6 
REMARK    2  A    between atoms: C7_11  and  N3_12 
REMARK    3  A    between atoms: N3_12  and  C10_15 
REMARK    4  A    between atoms: C10_15  and  C11_16 
REMARK    5  A    between atoms: C12_17  and  C13_18 
REMARK    6  A    between atoms: C13_18  and  N4_19 
REMARK    7  A    between atoms: C15_21  and  O2_22 
REMARK    8  A    between atoms: C16_24  and  O3_25 
ROOT
HETATM    1  N3  UNL     1      19.200 -12.472  19.271  1.00  0.00    -0.059 N 
HETATM    2  C8  UNL     1      19.500 -11.755  18.047  1.00  0.00     0.273 C 
HETATM    3  C9  UNL     1      19.284 -11.555  20.395  1.00  0.00     0.273 C 
ENDROOT
BRANCH   1   4
HETATM    4  C7  UNL     1      17.874 -13.030  19.268  1.00  0.00     0.218 C 
HETATM    5  C6  UNL     1      17.613 -13.757  20.558  1.00  0.00     0.063 C 
HETATM    6  C5  UNL     1      16.566 -12.879  21.217  1.00  0.00     0.239 C 
HETATM    7  N2  UNL     1      15.824 -12.376  20.093  1.00  0.00    -0.063 N 
HETATM    8  C4  UNL     1      15.076 -11.191  20.463  1.00  0.00     0.263 C 
HETATM    9  C22 UNL     1      16.786 -12.026  19.074  1.00  0.00     0.271 C 
HETATM   10  C23 UNL     1      14.866 -13.340  19.603  1.00  0.00     0.243 C 
HETATM   11  C3  UNL     1      13.634 -11.625  20.632  1.00  0.00     0.115 C 
HETATM   12  C24 UNL     1      13.688 -13.123  20.525  1.00  0.00     0.032 C 
HETATM   13  C25 UNL     1      12.419 -13.735  20.011  1.00  0.00     0.014 C 
BRANCH  11  14
HETATM   14  N1  UNL     1      13.212 -11.228  21.945  1.00  0.00    -0.355 N 
HETATM   15  C2  UNL     1      12.264 -10.202  22.139  1.00  0.00     0.213 C 
HETATM   16  C1  UNL     1      11.823  -9.787  23.488  1.00  0.00     0.117 C 
HETATM   17  O1  UNL     1      11.777  -9.622  21.146  1.00  0.00    -0.274 OA
ATOM     18  H1  UNL     1      13.606 -11.701  22.758  1.00  0.00     0.162 HD
ENDBRANCH  11  14
ENDBRANCH   1   4
BRANCH   1  19
HETATM   19  C10 UNL     1      20.192 -13.520  19.407  1.00  0.00     0.330 C 
BRANCH  19  20
HETATM   20  C11 UNL     1      20.714 -13.502  20.796  1.00  0.00    -0.077 C 
HETATM   21  C12 UNL     1      21.151 -13.503  21.919  1.00  0.00    -0.077 C 
BRANCH  21  22
HETATM   22  C13 UNL     1      21.703 -13.519  23.279  1.00  0.00     0.332 C 
BRANCH  22  23
HETATM   23  N4  UNL     1      20.768 -14.180  24.133  1.00  0.00    -0.045 N 
HETATM   24  C14 UNL     1      20.036 -15.264  23.508  1.00  0.00     0.273 C 
HETATM   25  C15 UNL     1      18.786 -15.634  24.253  1.00  0.00     0.173 C 
HETATM   26  C16 UNL     1      18.862 -15.338  25.728  1.00  0.00     0.156 C 
HETATM   27  C17 UNL     1      19.884 -14.262  25.987  1.00  0.00     0.079 C 
HETATM   28  C18 UNL     1      19.799 -13.308  24.786  1.00  0.00     0.249 C 
HETATM   29  C19 UNL     1      21.231 -14.558  25.441  1.00  0.00     0.131 C 
HETATM   30  C20 UNL     1      21.751 -15.952  25.592  1.00  0.00     0.047 C 
HETATM   31  C21 UNL     1      22.255 -13.569  25.989  1.00  0.00     0.047 C 
BRANCH  25  32
HETATM   32  O2  UNL     1      18.457 -16.994  24.056  1.00  0.00    -0.391 OA
ATOM     33  H2  UNL     1      17.687 -17.237  24.557  1.00  0.00     0.210 HD
ENDBRANCH  25  32
BRANCH  26  34
HETATM   34  O3  UNL     1      19.016 -16.454  26.515  1.00  0.00    -0.392 OA
ATOM     35  H3  UNL     1      18.926 -16.286  27.446  1.00  0.00     0.210 HD
ENDBRANCH  26  34
ENDBRANCH  22  23
ENDBRANCH  21  22
ENDBRANCH  19  20
ENDBRANCH   1  19
TORSDOF 8
ENDMDL
MODEL 3
REMARK VINA RESULT: -8.254370456      2.431      3.003
REMARK  8 active torsions:
REMARK  status: ('A' for Active; 'I' for Inactive)
REMARK       I    between atoms: C2_2  and  N1_4 
REMARK    1  A    between atoms: N1_4  and  C3_6 
REMARK    2  A    between atoms: C7_11  and  N3_12 
REMARK    3  A    between atoms: N3_12  and  C10_15 
REMARK    4  A    between atoms: C10_15  and  C11_16 
REMARK    5  A    between atoms: C12_17  and  C13_18 
REMARK    6  A    between atoms: C13_18  and  N4_19 
REMARK    7  A    between atoms: C15_21  and  O2_22 
REMARK    8  A    between atoms: C16_24  and  O3_25 
ROOT
HETATM    1  N3  UNL     1      19.692 -13.623  21.042  1.00  0.00    -0.059 N 
HETATM    2  C8  UNL     1      20.382 -13.056  19.900  1.00  0.00     0.273 C 
HETATM    3  C9  UNL     1      18.746 -14.625  20.581  1.00  0.00     0.273 C 
ENDROOT
BRANCH   1   4
HETATM    4  C7  UNL     1      20.591 -14.270  21.960  1.00  0.00     0.218 C 
HETATM    5  C6  UNL     1      20.714 -13.466  23.224  1.00  0.00     0.063 C 
HETATM    6  C5  UNL     1      20.030 -14.360  24.242  1.00  0.00     0.239 C 
HETATM    7  N2  UNL     1      20.349 -15.679  23.768  1.00  0.00    -0.063 N 
HETATM    8  C4  UNL     1      19.439 -16.658  24.328  1.00  0.00     0.263 C 
HETATM    9  C22 UNL     1      20.194 -15.660  22.331  1.00  0.00     0.271 C 
HETATM   10  C23 UNL     1      21.684 -16.081  24.147  1.00  0.00     0.243 C 
HETATM   11  C3  UNL     1      20.198 -17.371  25.429  1.00  0.00     0.115 C 
HETATM   12  C24 UNL     1      21.479 -16.596  25.553  1.00  0.00     0.032 C 
HETATM   13  C25 UNL     1      22.631 -17.415  26.053  1.00  0.00     0.014 C 
BRANCH  11  14
HETATM   14  N1  UNL     1      19.423 -17.262  26.632  1.00  0.00    -0.355 N 
HETATM   15  C2  UNL     1      19.323 -18.330  27.549  1.00  0.00     0.213 C 
HETATM   16  C1  UNL     1      18.528 -18.225  28.790  1.00  0.00     0.117 C 
HETATM   17  O1  UNL     1      19.923 -19.399  27.311  1.00  0.00    -0.274 OA
ATOM     18  H1  UNL     1      18.933 -16.389  26.830  1.00  0.00     0.162 HD
ENDBRANCH  11  14
ENDBRANCH   1   4
BRANCH   1  19
HETATM   19  C10 UNL     1      18.989 -12.539  21.700  1.00  0.00     0.330 C 
BRANCH  19  20
HETATM   20  C11 UNL     1      17.531 -12.804  21.624  1.00  0.00    -0.077 C 
HETATM   21  C12 UNL     1      16.350 -13.040  21.565  1.00  0.00    -0.077 C 
BRANCH  21  22
HETATM   22  C13 UNL     1      14.918 -13.351  21.503  1.00  0.00     0.332 C 
BRANCH  22  23
HETATM   23  N4  UNL     1      14.213 -12.150  21.185  1.00  0.00    -0.045 N 
HETATM   24  C14 UNL     1      14.998 -10.937  21.302  1.00  0.00     0.273 C 
HETATM   25  C15 UNL     1      14.153  -9.699  21.403  1.00  0.00     0.173 C 
HETATM   26  C16 UNL     1      12.811  -9.837  20.731  1.00  0.00     0.156 C 
HETATM   27  C17 UNL     1      12.427 -11.291  20.640  1.00  0.00     0.079 C 
HETATM   28  C18 UNL     1      12.969 -11.948  21.919  1.00  0.00     0.249 C 
HETATM   29  C19 UNL     1      13.438 -12.147  19.974  1.00  0.00     0.131 C 
HETATM   30  C20 UNL     1      14.108 -11.608  18.750  1.00  0.00     0.047 C 
HETATM   31  C21 UNL     1      12.852 -13.523  19.672  1.00  0.00     0.047 C 
BRANCH  25  32
HETATM   32  O2  UNL     1      14.832  -8.573  20.886  1.00  0.00    -0.391 OA
ATOM     33  H2  UNL     1      14.973  -8.657  19.949  1.00  0.00     0.210 HD
ENDBRANCH  25  32
BRANCH  26  34
HETATM   34  O3  UNL     1      12.710  -9.157  19.542  1.00  0.00    -0.392 OA
ATOM     35  H3  UNL     1      13.420  -9.332  18.935  1.00  0.00     0.210 HD
ENDBRANCH  26  34
ENDBRANCH  22  23
ENDBRANCH  21  22
ENDBRANCH  19  20
ENDBRANCH   1  19
TORSDOF 8
ENDMDL
MODEL 4
REMARK VINA RESULT: -8.249354255      2.804      8.444
REMARK  8 active torsions:
REMARK  status: ('A' for Active; 'I' for Inactive)
REMARK       I    between atoms: C2_2  and  N1_4 
REMARK    1  A    between atoms: N1_4  and  C3_6 
REMARK    2  A    between atoms: C7_11  and  N3_12 
REMARK    3  A    between atoms: N3_12  and  C10_15 
REMARK    4  A    between atoms: C10_15  and  C11_16 
REMARK    5  A    between atoms: C12_17  and  C13_18 
REMARK    6  A    between atoms: C13_18  and  N4_19 
REMARK    7  A    between atoms: C15_21  and  O2_22 
REMARK    8  A    between atoms: C16_24  and  O3_25 
ROOT
HETATM    1  N3  UNL     1      18.891 -12.380  19.556  1.00  0.00    -0.059 N 
HETATM    2  C8  UNL     1      19.037 -13.792  19.849  1.00  0.00     0.273 C 
HETATM    3  C9  UNL     1      18.868 -12.191  18.115  1.00  0.00     0.273 C 
ENDROOT
BRANCH   1   4
HETATM    4  C7  UNL     1      17.666 -11.836  20.080  1.00  0.00     0.218 C 
HETATM    5  C6  UNL     1      16.696 -11.565  18.964  1.00  0.00     0.063 C 
HETATM    6  C5  UNL     1      15.614 -12.598  19.219  1.00  0.00     0.239 C 
HETATM    7  N2  UNL     1      15.607 -12.698  20.654  1.00  0.00    -0.063 N 
HETATM    8  C4  UNL     1      14.971 -13.929  21.077  1.00  0.00     0.263 C 
HETATM    9  C22 UNL     1      16.987 -12.708  21.083  1.00  0.00     0.271 C 
HETATM   10  C23 UNL     1      14.874 -11.615  21.267  1.00  0.00     0.243 C 
HETATM   11  C3  UNL     1      13.584 -13.556  21.557  1.00  0.00     0.115 C 
HETATM   12  C24 UNL     1      13.446 -12.106  21.189  1.00  0.00     0.032 C 
HETATM   13  C25 UNL     1      12.513 -11.345  22.082  1.00  0.00     0.014 C 
BRANCH  11  14
HETATM   14  N1  UNL     1      12.642 -14.354  20.826  1.00  0.00    -0.355 N 
HETATM   15  C2  UNL     1      12.547 -15.749  21.017  1.00  0.00     0.213 C 
HETATM   16  C1  UNL     1      11.578 -16.578  20.268  1.00  0.00     0.117 C 
HETATM   17  O1  UNL     1      13.299 -16.307  21.842  1.00  0.00    -0.274 OA
ATOM     18  H1  UNL     1      12.025 -13.901  20.152  1.00  0.00     0.162 HD
ENDBRANCH  11  14
ENDBRANCH   1   4
BRANCH   1  19
HETATM   19  C10 UNL     1      20.035 -11.701  20.131  1.00  0.00     0.330 C 
BRANCH  19  20
HETATM   20  C11 UNL     1      20.644 -12.584  21.156  1.00  0.00    -0.077 C 
HETATM   21  C12 UNL     1      21.130 -13.287  22.006  1.00  0.00    -0.077 C 
BRANCH  21  22
HETATM   22  C13 UNL     1      21.708 -14.133  23.057  1.00  0.00     0.332 C 
BRANCH  22  23
HETATM   23  N4  UNL     1      20.692 -14.398  24.026  1.00  0.00    -0.045 N 
HETATM   24  C14 UNL     1      19.531 -15.097  23.511  1.00  0.00     0.273 C 
HETATM   25  C15 UNL     1      18.328 -14.969  24.401  1.00  0.00     0.173 C 
HETATM   26  C16 UNL     1      18.679 -14.761  25.851  1.00  0.00     0.156 C 
HETATM   27  C17 UNL     1      20.061 -14.174  25.969  1.00  0.00     0.079 C 
HETATM   28  C18 UNL     1      20.220 -13.234  24.765  1.00  0.00     0.249 C 
HETATM   29  C19 UNL     1      21.116 -14.958  25.281  1.00  0.00     0.131 C 
HETATM   30  C20 UNL     1      21.066 -16.448  25.402  1.00  0.00     0.047 C 
HETATM   31  C21 UNL     1      22.499 -14.459  25.687  1.00  0.00     0.047 C 
BRANCH  25  32
HETATM   32  O2  UNL     1      17.475 -16.088  24.272  1.00  0.00    -0.391 OA
ATOM     33  H2  UNL     1      16.826 -15.949  23.592  1.00  0.00     0.210 HD
ENDBRANCH  25  32
BRANCH  26  34
HETATM   34  O3  UNL     1      18.474 -15.868  26.640  1.00  0.00    -0.392 OA
ATOM     35  H3  UNL     1      17.638 -15.869  27.093  1.00  0.00     0.210 HD
ENDBRANCH  26  34
ENDBRANCH  22  23
ENDBRANCH  21  22
ENDBRANCH  19  20
ENDBRANCH   1  19
TORSDOF 8
ENDMDL
MODEL 5
REMARK VINA RESULT: -8.197906626      3.922      5.954
REMARK  8 active torsions:
REMARK  status: ('A' for Active; 'I' for Inactive)
REMARK       I    between atoms: C2_2  and  N1_4 
REMARK    1  A    between atoms: N1_4  and  C3_6 
REMARK    2  A    between atoms: C7_11  and  N3_12 
REMARK    3  A    between atoms: N3_12  and  C10_15 
REMARK    4  A    between atoms: C10_15  and  C11_16 
REMARK    5  A    between atoms: C12_17  and  C13_18 
REMARK    6  A    between atoms: C13_18  and  N4_19 
REMARK    7  A    between atoms: C15_21  and  O2_22 
REMARK    8  A    between atoms: C16_24  and  O3_25 
ROOT
HETATM    1  N3  UNL     1      14.117 -13.003  19.809  1.00  0.00    -0.059 N 
HETATM    2  C8  UNL     1      13.657 -13.401  21.125  1.00  0.00     0.273 C 
HETATM    3  C9  UNL     1      13.656 -11.654  19.529  1.00  0.00     0.273 C 
ENDROOT
BRANCH   1   4
HETATM    4  C7  UNL     1      15.553 -12.996  19.710  1.00  0.00     0.218 C 
HETATM    5  C6  UNL     1      16.090 -11.630  20.038  1.00  0.00     0.063 C 
HETATM    6  C5  UNL     1      16.807 -11.873  21.353  1.00  0.00     0.239 C 
HETATM    7  N2  UNL     1      17.296 -13.217  21.202  1.00  0.00    -0.063 N 
HETATM    8  C4  UNL     1      17.618 -13.792  22.493  1.00  0.00     0.263 C 
HETATM    9  C22 UNL     1      16.234 -13.986  20.595  1.00  0.00     0.271 C 
HETATM   10  C23 UNL     1      18.502 -13.267  20.408  1.00  0.00     0.243 C 
HETATM   11  C3  UNL     1      19.127 -13.749  22.620  1.00  0.00     0.115 C 
HETATM   12  C24 UNL     1      19.573 -12.952  21.427  1.00  0.00     0.032 C 
HETATM   13  C25 UNL     1      20.954 -13.299  20.955  1.00  0.00     0.014 C 
BRANCH  11  14
HETATM   14  N1  UNL     1      19.441 -13.056  23.836  1.00  0.00    -0.355 N 
HETATM   15  C2  UNL     1      20.513 -13.456  24.661  1.00  0.00     0.213 C 
HETATM   16  C1  UNL     1      20.844 -12.747  25.916  1.00  0.00     0.117 C 
HETATM   17  O1  UNL     1      21.209 -14.438  24.328  1.00  0.00    -0.274 OA
ATOM     18  H1  UNL     1      18.875 -12.253  24.111  1.00  0.00     0.162 HD
ENDBRANCH  11  14
ENDBRANCH   1   4
BRANCH   1  19
HETATM   19  C10 UNL     1      13.547 -13.934  18.856  1.00  0.00     0.330 C 
BRANCH  19  20
HETATM   20  C11 UNL     1      14.432 -13.995  17.666  1.00  0.00    -0.077 C 
HETATM   21  C12 UNL     1      15.154 -14.066  16.703  1.00  0.00    -0.077 C 
BRANCH  21  22
HETATM   22  C13 UNL     1      16.031 -14.178  15.532  1.00  0.00     0.332 C 
BRANCH  22  23
HETATM   23  N4  UNL     1      16.197 -12.874  14.972  1.00  0.00    -0.045 N 
HETATM   24  C14 UNL     1      16.955 -11.952  15.796  1.00  0.00     0.273 C 
HETATM   25  C15 UNL     1      16.739 -10.514  15.417  1.00  0.00     0.173 C 
HETATM   26  C16 UNL     1      16.374 -10.329  13.967  1.00  0.00     0.156 C 
HETATM   27  C17 UNL     1      15.769 -11.596  13.420  1.00  0.00     0.079 C 
HETATM   28  C18 UNL     1      14.963 -12.206  14.577  1.00  0.00     0.249 C 
HETATM   29  C19 UNL     1      16.615 -12.801  13.599  1.00  0.00     0.131 C 
HETATM   30  C20 UNL     1      18.084 -12.662  13.351  1.00  0.00     0.047 C 
HETATM   31  C21 UNL     1      16.066 -13.961  12.775  1.00  0.00     0.047 C 
BRANCH  25  32
HETATM   32  O2  UNL     1      17.872  -9.729  15.728  1.00  0.00    -0.391 OA
ATOM     33  H2  UNL     1      17.796  -8.856  15.361  1.00  0.00     0.210 HD
ENDBRANCH  25  32
BRANCH  26  34
HETATM   34  O3  UNL     1      17.391  -9.819  13.196  1.00  0.00    -0.392 OA
ATOM     35  H3  UNL     1      17.647  -8.934  13.431  1.00  0.00     0.210 HD
ENDBRANCH  26  34
ENDBRANCH  22  23
ENDBRANCH  21  22
ENDBRANCH  19  20
ENDBRANCH   1  19
TORSDOF 8
ENDMDL
