MODEL 1
REMARK VINA RESULT: -9.660937842      0.000      0.000
REMARK  6 active torsions:
REMARK  status: ('A' for Active; 'I' for Inactive)
REMARK    1  A    between atoms: C2_2  and  N1_3 
REMARK    2  A    between atoms: C2_2  and  C12_16 
REMARK       I    between atoms: N1_3  and  C3_4 
REMARK    3  A    between atoms: C3_4  and  C4_6 
REMARK       I    between atoms: C4_6  and  N2_8 
REMARK    4  A    between atoms: C12_16  and  O3_17 
REMARK    5  A    between atoms: C12_16  and  C13_19 
REMARK    6  A    between atoms: C13_19  and  N3_20 
REMARK       I    between atoms: N5_27  and  C19_28 
ROOT
HETATM    1  C12 UNL     1      18.161 -13.247  19.787  1.00  0.00     0.179 C 
ENDROOT
BRANCH   1   2
HETATM    2  C2  UNL     1      18.497 -13.453  21.191  1.00  0.00     0.193 C 
HETATM    3  C1  UNL     1      17.730 -14.761  21.690  1.00  0.00     0.050 C 
BRANCH   2   4
HETATM    4  N1  UNL     1      19.805 -13.536  21.583  1.00  0.00    -0.399 NA
HETATM    5  C3  UNL     1      21.025 -13.596  21.946  1.00  0.00     0.379 C 
HETATM    6  O1  UNL     1      22.096 -13.337  22.185  1.00  0.00    -0.246 OA
BRANCH   5   7
HETATM    7  C4  UNL     1      21.221 -15.245  22.448  1.00  0.00     0.327 C 
HETATM    8  O2  UNL     1      21.596 -15.929  21.622  1.00  0.00    -0.261 OA
HETATM    9  N2  UNL     1      20.789 -15.233  23.859  1.00  0.00    -0.330 N 
HETATM   10  C5  UNL     1      20.108 -14.149  24.488  1.00  0.00     0.084 C 
HETATM   11  C9  UNL     1      20.909 -16.306  24.775  1.00  0.00     0.029 C 
HETATM   12  C6  UNL     1      20.845 -12.960  24.997  1.00  0.00     0.032 C 
HETATM   13  C7  UNL     1      19.258 -14.894  25.594  1.00  0.00     0.027 C 
HETATM   14  C8  UNL     1      19.593 -16.348  25.468  1.00  0.00     0.032 C 
HETATM   15  C10 UNL     1      21.361 -17.601  24.184  1.00  0.00     0.038 C 
HETATM   16  C11 UNL     1      21.942 -15.870  25.831  1.00  0.00     0.038 C 
ENDBRANCH   5   7
ENDBRANCH   2   4
ENDBRANCH   1   2
BRANCH   1  17
HETATM   17  O3  UNL     1      19.308 -12.755  19.179  1.00  0.00    -0.391 OA
ATOM     18  H3  UNL     1      19.140 -12.763  18.244  1.00  0.00     0.210 HD
ENDBRANCH   1  17
BRANCH   1  19
HETATM   19  C13 UNL     1      17.011 -13.465  18.908  1.00  0.00     0.271 C 
BRANCH  19  20
HETATM   20  N3  UNL     1      16.226 -12.255  18.714  1.00  0.00    -0.065 N 
HETATM   21  C14 UNL     1      16.739 -11.572  17.519  1.00  0.00     0.272 C 
HETATM   22  C15 UNL     1      16.214 -11.330  19.777  1.00  0.00     0.265 C 
HETATM   23  C16 UNL     1      15.467 -11.910  20.974  1.00  0.00     0.265 C 
HETATM   24  N4  UNL     1      14.114 -12.181  20.589  1.00  0.00    -0.061 N 
HETATM   25  C17 UNL     1      13.422 -12.782  21.760  1.00  0.00     0.257 C 
HETATM   26  C21 UNL     1      13.387 -10.989  20.185  1.00  0.00     0.257 C 
HETATM   27  C22 UNL     1      14.018 -13.102  19.486  1.00  0.00     0.265 C 
HETATM   28  C18 UNL     1      12.095 -12.241  21.961  1.00  0.00     0.153 C 
HETATM   29  N5  UNL     1      12.231 -10.822  22.239  1.00  0.00    -0.353 N 
HETATM   30  C19 UNL     1      11.607 -10.192  23.358  1.00  0.00     0.184 C 
HETATM   31  C20 UNL     1      13.039 -10.016  21.269  1.00  0.00     0.153 C 
HETATM   32  N6  UNL     1      10.541 -10.688  23.976  1.00  0.00    -0.374 N 
HETATM   33  N7  UNL     1      12.035  -8.913  23.797  1.00  0.00    -0.064 NA
ATOM     34  H62 UNL     1      10.233 -11.608  23.660  1.00  0.00     0.158 HD
ATOM     35  H61 UNL     1      10.095 -10.238  24.776  1.00  0.00     0.158 HD
HETATM   36  C23 UNL     1      14.908 -12.767  18.355  1.00  0.00     0.265 C 
ENDBRANCH  19  20
ENDBRANCH   1  19
TORSDOF 6
ENDMDL
MODEL 2
REMARK VINA RESULT: -9.577275365      1.120      1.550
REMARK  6 active torsions:
REMARK  status: ('A' for Active; 'I' for Inactive)
REMARK    1  A    between atoms: C2_2  and  N1_3 
REMARK    2  A    between atoms: C2_2  and  C12_16 
REMARK       I    between atoms: N1_3  and  C3_4 
REMARK    3  A    between atoms: C3_4  and  C4_6 
REMARK       I    between atoms: C4_6  and  N2_8 
REMARK    4  A    between atoms: C12_16  and  O3_17 
REMARK    5  A    between atoms: C12_16  and  C13_19 
REMARK    6  A    between atoms: C13_19  and  N3_20 
REMARK       I    between atoms: N5_27  and  C19_28 
ROOT
HETATM    1  C12 UNL     1      18.572 -12.716  18.946  1.00  0.00     0.179 C 
ENDROOT
BRANCH   1   2
HETATM    2  C2  UNL     1      19.545 -12.641  20.030  1.00  0.00     0.193 C 
HETATM    3  C1  UNL     1      18.850 -11.900  21.261  1.00  0.00     0.050 C 
BRANCH   2   4
HETATM    4  N1  UNL     1      20.155 -13.776  20.490  1.00  0.00    -0.399 NA
HETATM    5  C3  UNL     1      20.737 -14.829  20.909  1.00  0.00     0.379 C 
HETATM    6  O1  UNL     1      21.480 -15.661  21.075  1.00  0.00    -0.246 OA
BRANCH   5   7
HETATM    7  C4  UNL     1      19.619 -15.481  22.065  1.00  0.00     0.327 C 
HETATM    8  O2  UNL     1      18.856 -16.187  21.608  1.00  0.00    -0.261 OA
HETATM    9  N2  UNL     1      20.026 -14.853  23.336  1.00  0.00    -0.330 N 
HETATM   10  C5  UNL     1      20.936 -13.760  23.444  1.00  0.00     0.084 C 
HETATM   11  C9  UNL     1      19.528 -15.177  24.622  1.00  0.00     0.029 C 
HETATM   12  C6  UNL     1      22.409 -13.969  23.401  1.00  0.00     0.032 C 
HETATM   13  C7  UNL     1      20.433 -13.043  24.761  1.00  0.00     0.027 C 
HETATM   14  C8  UNL     1      19.281 -13.858  25.265  1.00  0.00     0.032 C 
HETATM   15  C10 UNL     1      18.371 -16.121  24.637  1.00  0.00     0.038 C 
HETATM   16  C11 UNL     1      20.693 -15.826  25.395  1.00  0.00     0.038 C 
ENDBRANCH   5   7
ENDBRANCH   2   4
ENDBRANCH   1   2
BRANCH   1  17
HETATM   17  O3  UNL     1      19.178 -12.141  17.838  1.00  0.00    -0.391 OA
ATOM     18  H3  UNL     1      19.397 -12.856  17.252  1.00  0.00     0.210 HD
ENDBRANCH   1  17
BRANCH   1  19
HETATM   19  C13 UNL     1      17.229 -13.256  18.736  1.00  0.00     0.271 C 
BRANCH  19  20
HETATM   20  N3  UNL     1      16.237 -12.209  18.531  1.00  0.00    -0.065 N 
HETATM   21  C14 UNL     1      16.613 -11.466  17.322  1.00  0.00     0.272 C 
HETATM   22  C15 UNL     1      16.067 -11.284  19.580  1.00  0.00     0.265 C 
HETATM   23  C16 UNL     1      15.442 -11.970  20.792  1.00  0.00     0.265 C 
HETATM   24  N4  UNL     1      14.158 -12.485  20.423  1.00  0.00    -0.061 N 
HETATM   25  C17 UNL     1      13.592 -13.182  21.609  1.00  0.00     0.257 C 
HETATM   26  C21 UNL     1      13.226 -11.450  20.007  1.00  0.00     0.257 C 
HETATM   27  C22 UNL     1      14.222 -13.426  19.334  1.00  0.00     0.265 C 
HETATM   28  C18 UNL     1      12.190 -12.884  21.813  1.00  0.00     0.153 C 
HETATM   29  N5  UNL     1      12.071 -11.459  22.069  1.00  0.00    -0.353 N 
HETATM   30  C19 UNL     1      11.351 -10.933  23.183  1.00  0.00     0.184 C 
HETATM   31  C20 UNL     1      12.716 -10.537  21.080  1.00  0.00     0.153 C 
HETATM   32  N6  UNL     1      10.394 -11.602  23.818  1.00  0.00    -0.374 N 
HETATM   33  N7  UNL     1      11.544  -9.592  23.599  1.00  0.00    -0.064 NA
ATOM     34  H62 UNL     1      10.255 -12.567  23.518  1.00  0.00     0.158 HD
ATOM     35  H61 UNL     1       9.880 -11.226  24.614  1.00  0.00     0.158 HD
HETATM   36  C23 UNL     1      15.031 -12.956  18.191  1.00  0.00     0.265 C 
ENDBRANCH  19  20
ENDBRANCH   1  19
TORSDOF 6
ENDMDL
MODEL 3
REMARK VINA RESULT: -9.495498399      0.870      1.195
REMARK  6 active torsions:
REMARK  status: ('A' for Active; 'I' for Inactive)
REMARK    1  A    between atoms: C2_2  and  N1_3 
REMARK    2  A    between atoms: C2_2  and  C12_16 
REMARK       I    between atoms: N1_3  and  C3_4 
REMARK    3  A    between atoms: C3_4  and  C4_6 
REMARK       I    between atoms: C4_6  and  N2_8 
REMARK    4  A    between atoms: C12_16  and  O3_17 
REMARK    5  A    between atoms: C12_16  and  C13_19 
REMARK    6  A    between atoms: C13_19  and  N3_20 
REMARK       I    between atoms: N5_27  and  C19_28 
ROOT
HETATM    1  C12 UNL     1      17.993 -13.512  19.751  1.00  0.00     0.179 C 
ENDROOT
BRANCH   1   2
HETATM    2  C2  UNL     1      18.358 -13.935  21.098  1.00  0.00     0.193 C 
HETATM    3  C1  UNL     1      17.097 -14.678  21.735  1.00  0.00     0.050 C 
BRANCH   2   4
HETATM    4  N1  UNL     1      19.470 -14.705  21.302  1.00  0.00    -0.399 NA
HETATM    5  C3  UNL     1      20.513 -15.416  21.479  1.00  0.00     0.379 C 
HETATM    6  O1  UNL     1      21.520 -15.909  21.354  1.00  0.00    -0.246 OA
BRANCH   5   7
HETATM    7  C4  UNL     1      20.218 -16.206  22.996  1.00  0.00     0.327 C 
HETATM    8  O2  UNL     1      19.753 -17.236  22.886  1.00  0.00    -0.261 OA
HETATM    9  N2  UNL     1      20.668 -15.219  23.995  1.00  0.00    -0.330 N 
HETATM   10  C5  UNL     1      20.977 -13.857  23.706  1.00  0.00     0.084 C 
HETATM   11  C9  UNL     1      20.787 -15.441  25.389  1.00  0.00     0.029 C 
HETATM   12  C6  UNL     1      22.295 -13.463  23.140  1.00  0.00     0.032 C 
HETATM   13  C7  UNL     1      20.635 -13.146  25.077  1.00  0.00     0.027 C 
HETATM   14  C8  UNL     1      20.186 -14.230  26.008  1.00  0.00     0.032 C 
HETATM   15  C10 UNL     1      20.241 -16.744  25.875  1.00  0.00     0.038 C 
HETATM   16  C11 UNL     1      22.292 -15.395  25.715  1.00  0.00     0.038 C 
ENDBRANCH   5   7
ENDBRANCH   2   4
ENDBRANCH   1   2
BRANCH   1  17
HETATM   17  O3  UNL     1      19.121 -12.908  19.213  1.00  0.00    -0.391 OA
ATOM     18  H3  UNL     1      19.382 -13.442  18.473  1.00  0.00     0.210 HD
ENDBRANCH   1  17
BRANCH   1  19
HETATM   19  C13 UNL     1      16.831 -13.606  18.867  1.00  0.00     0.271 C 
BRANCH  19  20
HETATM   20  N3  UNL     1      16.151 -12.328  18.710  1.00  0.00    -0.065 N 
HETATM   21  C14 UNL     1      16.729 -11.652  17.541  1.00  0.00     0.272 C 
HETATM   22  C15 UNL     1      16.208 -11.441  19.803  1.00  0.00     0.265 C 
HETATM   23  C16 UNL     1      15.405 -11.996  20.976  1.00  0.00     0.265 C 
HETATM   24  N4  UNL     1      14.037 -12.140  20.575  1.00  0.00    -0.061 N 
HETATM   25  C17 UNL     1      13.288 -12.719  21.722  1.00  0.00     0.257 C 
HETATM   26  C21 UNL     1      13.416 -10.879  20.207  1.00  0.00     0.257 C 
HETATM   27  C22 UNL     1      13.874 -13.012  19.441  1.00  0.00     0.265 C 
HETATM   28  C18 UNL     1      12.009 -12.076  21.934  1.00  0.00     0.153 C 
HETATM   29  N5  UNL     1      12.261 -10.683  22.259  1.00  0.00    -0.353 N 
HETATM   30  C19 UNL     1      11.683 -10.040  23.395  1.00  0.00     0.184 C 
HETATM   31  C20 UNL     1      13.142  -9.916  21.321  1.00  0.00     0.153 C 
HETATM   32  N6  UNL     1      10.573 -10.465  23.991  1.00  0.00    -0.374 N 
HETATM   33  N7  UNL     1      12.212  -8.817  23.879  1.00  0.00    -0.064 NA
ATOM     34  H62 UNL     1      10.193 -11.345  23.642  1.00  0.00     0.158 HD
ATOM     35  H61 UNL     1      10.160 -10.005  24.802  1.00  0.00     0.158 HD
HETATM   36  C23 UNL     1      14.798 -12.717  18.327  1.00  0.00     0.265 C 
ENDBRANCH  19  20
ENDBRANCH   1  19
TORSDOF 6
ENDMDL
MODEL 4
REMARK VINA RESULT: -9.443561136      1.144      2.022
REMARK  6 active torsions:
REMARK  status: ('A' for Active; 'I' for Inactive)
REMARK    1  A    between atoms: C2_2  and  N1_3 
REMARK    2  A    between atoms: C2_2  and  C12_16 
REMARK       I    between atoms: N1_3  and  C3_4 
REMARK    3  A    between atoms: C3_4  and  C4_6 
REMARK       I    between atoms: C4_6  and  N2_8 
REMARK    4  A    between atoms: C12_16  and  O3_17 
REMARK    5  A    between atoms: C12_16  and  C13_19 
REMARK    6  A    between atoms: C13_19  and  N3_20 
REMARK       I    between atoms: N5_27  and  C19_28 
ROOT
HETATM    1  C12 UNL     1      18.492 -12.582  18.645  1.00  0.00     0.179 C 
ENDROOT
BRANCH   1   2
HETATM    2  C2  UNL     1      19.537 -12.372  19.641  1.00  0.00     0.193 C 
HETATM    3  C1  UNL     1      18.920 -11.485  20.816  1.00  0.00     0.050 C 
BRANCH   2   4
HETATM    4  N1  UNL     1      20.189 -13.440  20.193  1.00  0.00    -0.399 NA
HETATM    5  C3  UNL     1      20.799 -14.441  20.692  1.00  0.00     0.379 C 
HETATM    6  O1  UNL     1      21.322 -15.432  20.828  1.00  0.00    -0.246 OA
BRANCH   5   7
HETATM    7  C4  UNL     1      20.988 -14.014  22.364  1.00  0.00     0.327 C 
HETATM    8  O2  UNL     1      21.878 -13.336  22.559  1.00  0.00    -0.261 OA
HETATM    9  N2  UNL     1      19.885 -14.729  23.033  1.00  0.00    -0.330 N 
HETATM   10  C5  UNL     1      19.087 -15.741  22.421  1.00  0.00     0.084 C 
HETATM   11  C9  UNL     1      19.500 -14.584  24.388  1.00  0.00     0.029 C 
HETATM   12  C6  UNL     1      17.947 -15.397  21.529  1.00  0.00     0.032 C 
HETATM   13  C7  UNL     1      18.678 -16.631  23.663  1.00  0.00     0.027 C 
HETATM   14  C8  UNL     1      19.292 -15.978  24.863  1.00  0.00     0.032 C 
HETATM   15  C10 UNL     1      20.417 -13.754  25.225  1.00  0.00     0.038 C 
HETATM   16  C11 UNL     1      18.112 -13.915  24.382  1.00  0.00     0.038 C 
ENDBRANCH   5   7
ENDBRANCH   2   4
ENDBRANCH   1   2
BRANCH   1  17
HETATM   17  O3  UNL     1      19.004 -12.123  17.439  1.00  0.00    -0.391 OA
ATOM     18  H3  UNL     1      19.784 -12.638  17.268  1.00  0.00     0.210 HD
ENDBRANCH   1  17
BRANCH   1  19
HETATM   19  C13 UNL     1      17.151 -13.165  18.594  1.00  0.00     0.271 C 
BRANCH  19  20
HETATM   20  N3  UNL     1      16.117 -12.159  18.402  1.00  0.00    -0.065 N 
HETATM   21  C14 UNL     1      16.421 -11.434  17.161  1.00  0.00     0.272 C 
HETATM   22  C15 UNL     1      15.954 -11.213  19.434  1.00  0.00     0.265 C 
HETATM   23  C16 UNL     1      15.400 -11.888  20.685  1.00  0.00     0.265 C 
HETATM   24  N4  UNL     1      14.121 -12.455  20.379  1.00  0.00    -0.061 N 
HETATM   25  C17 UNL     1      13.626 -13.139  21.603  1.00  0.00     0.257 C 
HETATM   26  C21 UNL     1      13.140 -11.463  19.975  1.00  0.00     0.257 C 
HETATM   27  C22 UNL     1      14.177 -13.421  19.313  1.00  0.00     0.265 C 
HETATM   28  C18 UNL     1      12.223 -12.885  21.855  1.00  0.00     0.153 C 
HETATM   29  N5  UNL     1      12.065 -11.458  22.079  1.00  0.00    -0.353 N 
HETATM   30  C19 UNL     1      11.369 -10.928  23.208  1.00  0.00     0.184 C 
HETATM   31  C20 UNL     1      12.639 -10.540  21.044  1.00  0.00     0.153 C 
HETATM   32  N6  UNL     1      10.462 -11.612  23.896  1.00  0.00    -0.374 N 
HETATM   33  N7  UNL     1      11.532  -9.570  23.583  1.00  0.00    -0.064 NA
ATOM     34  H62 UNL     1      10.344 -12.589  23.625  1.00  0.00     0.158 HD
ATOM     35  H61 UNL     1       9.965 -11.233  24.702  1.00  0.00     0.158 HD
HETATM   36  C23 UNL     1      14.925 -12.954  18.128  1.00  0.00     0.265 C 
ENDBRANCH  19  20
ENDBRANCH   1  19
TORSDOF 6
ENDMDL
MODEL 5
REMARK VINA RESULT: -9.438986477      1.395      2.232
REMARK  6 active torsions:
REMARK  status: ('A' for Active; 'I' for Inactive)
REMARK    1  A    between atoms: C2_2  and  N1_3 
REMARK    2  A    between atoms: C2_2  and  C12_16 
REMARK       I    between atoms: N1_3  and  C3_4 
REMARK    3  A    between atoms: C3_4  and  C4_6 
REMARK       I    between atoms: C4_6  and  N2_8 
REMARK    4  A    between atoms: C12_16  and  O3_17 
REMARK    5  A    between atoms: C12_16  and  C13_19 
REMARK    6  A    between atoms: C13_19  and  N3_20 
REMARK       I    between atoms: N5_27  and  C19_28 
ROOT
HETATM    1  C12 UNL     1      18.475 -12.879  19.223  1.00  0.00     0.179 C 
ENDROOT
BRANCH   1   2
HETATM    2  C2  UNL     1      19.170 -12.984  20.501  1.00  0.00     0.193 C 
HETATM    3  C1  UNL     1      19.009 -11.588  21.260  1.00  0.00     0.050 C 
BRANCH   2   4
HETATM    4  N1  UNL     1      18.864 -13.994  21.372  1.00  0.00    -0.399 NA
HETATM    5  C3  UNL     1      18.578 -14.945  22.170  1.00  0.00     0.379 C 
HETATM    6  O1  UNL     1      18.265 -15.940  22.598  1.00  0.00    -0.246 OA
BRANCH   5   7
HETATM    7  C4  UNL     1      18.881 -14.268  23.739  1.00  0.00     0.327 C 
HETATM    8  O2  UNL     1      17.951 -13.844  24.235  1.00  0.00    -0.261 OA
HETATM    9  N2  UNL     1      20.333 -14.447  23.921  1.00  0.00    -0.330 N 
HETATM   10  C5  UNL     1      21.239 -14.823  22.885  1.00  0.00     0.084 C 
HETATM   11  C9  UNL     1      21.059 -14.203  25.112  1.00  0.00     0.029 C 
HETATM   12  C6  UNL     1      21.401 -16.244  22.473  1.00  0.00     0.032 C 
HETATM   13  C7  UNL     1      22.584 -14.142  23.363  1.00  0.00     0.027 C 
HETATM   14  C8  UNL     1      22.270 -13.466  24.663  1.00  0.00     0.032 C 
HETATM   15  C10 UNL     1      20.283 -13.548  26.208  1.00  0.00     0.038 C 
HETATM   16  C11 UNL     1      21.548 -15.574  25.619  1.00  0.00     0.038 C 
ENDBRANCH   5   7
ENDBRANCH   2   4
ENDBRANCH   1   2
BRANCH   1  17
HETATM   17  O3  UNL     1      19.340 -12.215  18.363  1.00  0.00    -0.391 OA
ATOM     18  H3  UNL     1      20.083 -11.944  18.889  1.00  0.00     0.210 HD
ENDBRANCH   1  17
BRANCH   1  19
HETATM   19  C13 UNL     1      17.204 -13.315  18.645  1.00  0.00     0.271 C 
BRANCH  19  20
HETATM   20  N3  UNL     1      16.262 -12.217  18.486  1.00  0.00    -0.065 N 
HETATM   21  C14 UNL     1      16.681 -11.433  17.316  1.00  0.00     0.272 C 
HETATM   22  C15 UNL     1      16.125 -11.337  19.577  1.00  0.00     0.265 C 
HETATM   23  C16 UNL     1      15.461 -12.052  20.751  1.00  0.00     0.265 C 
HETATM   24  N4  UNL     1      14.158 -12.491  20.350  1.00  0.00    -0.061 N 
HETATM   25  C17 UNL     1      13.552 -13.218  21.497  1.00  0.00     0.257 C 
HETATM   26  C21 UNL     1      13.277 -11.396  19.980  1.00  0.00     0.257 C 
HETATM   27  C22 UNL     1      14.189 -13.379  19.217  1.00  0.00     0.265 C 
HETATM   28  C18 UNL     1      12.164 -12.868  21.708  1.00  0.00     0.153 C 
HETATM   29  N5  UNL     1      12.106 -11.453  22.032  1.00  0.00    -0.353 N 
HETATM   30  C19 UNL     1      11.401 -10.950  23.166  1.00  0.00     0.184 C 
HETATM   31  C20 UNL     1      12.799 -10.514  21.092  1.00  0.00     0.153 C 
HETATM   32  N6  UNL     1      10.411 -11.605  23.763  1.00  0.00    -0.374 N 
HETATM   33  N7  UNL     1      11.651  -9.640  23.649  1.00  0.00    -0.064 NA
ATOM     34  H62 UNL     1      10.231 -12.548  23.415  1.00  0.00     0.158 HD
ATOM     35  H61 UNL     1       9.907 -11.246  24.573  1.00  0.00     0.158 HD
HETATM   36  C23 UNL     1      15.027 -12.891  18.103  1.00  0.00     0.265 C 
ENDBRANCH  19  20
ENDBRANCH   1  19
TORSDOF 6
ENDMDL
