MODEL 1
REMARK VINA RESULT: -9.310665352      0.000      0.000
REMARK  7 active torsions:
REMARK  status: ('A' for Active; 'I' for Inactive)
REMARK    1  A    between atoms: C2_2  and  N1_3 
REMARK    2  A    between atoms: C5_7  and  C6_8 
REMARK    3  A    between atoms: C9_13  and  C10_14 
REMARK    4  A    between atoms: C16_20  and  C17_21 
REMARK    5  A    between atoms: C17_21  and  C18_22 
REMARK    6  A    between atoms: N4_31  and  S1_33 
REMARK    7  A    between atoms: S1_33  and  N5_34 
ROOT
HETATM    1  N1  UNL     1      18.461 -12.548  18.093  1.00  0.00    -0.289 N 
HETATM    2  C3  UNL     1      19.626 -12.397  18.925  1.00  0.00     0.263 A 
HETATM    3  O1  UNL     1      20.615 -11.661  18.638  1.00  0.00    -0.267 OA
HETATM    4  C4  UNL     1      19.519 -13.205  20.159  1.00  0.00     0.043 A 
HETATM    5  C5  UNL     1      20.671 -13.378  20.980  1.00  0.00     0.048 C 
HETATM    6  C14 UNL     1      18.384 -13.809  20.087  1.00  0.00    -0.019 A 
HETATM    7  C15 UNL     1      17.750 -14.772  21.032  1.00  0.00     0.052 C 
HETATM    8  C16 UNL     1      17.651 -13.440  18.791  1.00  0.00     0.050 A 
ENDROOT
BRANCH   8   9
HETATM    9  C17 UNL     1      16.561 -14.063  18.480  1.00  0.00     0.046 C 
BRANCH   9  10
HETATM   10  C18 UNL     1      15.411 -14.597  19.112  1.00  0.00     0.017 A 
HETATM   11  C19 UNL     1      15.040 -15.929  18.908  1.00  0.00    -0.046 A 
HETATM   12  C20 UNL     1      15.940 -16.816  18.104  1.00  0.00     0.049 C 
HETATM   13  C21 UNL     1      13.866 -16.406  19.442  1.00  0.00     0.032 A 
HETATM   14  C22 UNL     1      13.023 -15.604  20.187  1.00  0.00     0.007 A 
HETATM   15  C23 UNL     1      11.754 -16.117  20.763  1.00  0.00     0.068 C 
HETATM   16  N3  UNL     1      13.387 -14.324  20.377  1.00  0.00    -0.345 N 
HETATM   17  C24 UNL     1      14.522 -13.824  19.874  1.00  0.00     0.127 A 
ATOM     18  H3  UNL     1      12.778 -13.714  20.924  1.00  0.00     0.167 HD
HETATM   19  N4  UNL     1      14.869 -12.611  20.056  1.00  0.00    -0.252 N 
ATOM     20  H4  UNL     1      15.753 -12.331  19.631  1.00  0.00     0.182 HD
BRANCH  19  21
HETATM   21  S1  UNL     1      14.043 -11.404  20.919  1.00  0.00     0.318 S 
HETATM   22  O2  UNL     1      13.622 -11.789  22.292  1.00  0.00    -0.183 OA
HETATM   23  O3  UNL     1      12.752 -11.116  20.156  1.00  0.00    -0.183 OA
BRANCH  21  24
HETATM   24  N5  UNL     1      14.893  -9.900  20.969  1.00  0.00    -0.311 N 
ATOM     25  H52 UNL     1      15.866  -9.830  21.265  1.00  0.00     0.170 HD
ATOM     26  H51 UNL     1      14.323  -9.106  20.674  1.00  0.00     0.170 HD
ENDBRANCH  21  24
ENDBRANCH  19  21
ENDBRANCH   9  10
ENDBRANCH   8   9
BRANCH   1  27
HETATM   27  C2  UNL     1      18.333 -11.821  16.903  1.00  0.00     0.090 C 
HETATM   28  C1  UNL     1      17.419 -11.376  16.168  1.00  0.00     0.030 C 
ENDBRANCH   1  27
BRANCH   5  29
HETATM   29  C6  UNL     1      20.995 -13.641  22.192  1.00  0.00     0.043 A 
HETATM   30  N2  UNL     1      22.326 -13.624  22.594  1.00  0.00    -0.359 N 
HETATM   31  C7  UNL     1      22.453 -13.698  23.897  1.00  0.00     0.013 A 
ATOM     32  H2  UNL     1      23.114 -13.561  21.949  1.00  0.00     0.166 HD
HETATM   33  C8  UNL     1      23.817 -13.696  24.580  1.00  0.00     0.068 C 
HETATM   34  C9  UNL     1      21.253 -13.766  24.469  1.00  0.00    -0.025 A 
HETATM   35  C12 UNL     1      20.329 -13.723  23.401  1.00  0.00    -0.011 A 
HETATM   36  C13 UNL     1      19.058 -13.535  23.688  1.00  0.00     0.026 C 
BRANCH  34  37
HETATM   37  C10 UNL     1      20.986 -13.868  25.920  1.00  0.00     0.037 C 
HETATM   38  C11 UNL     1      21.034 -12.478  26.568  1.00  0.00     0.010 C 
ENDBRANCH  34  37
ENDBRANCH   5  29
TORSDOF 7
ENDMDL
MODEL 2
REMARK VINA RESULT: -9.227237410      1.354      1.618
REMARK  7 active torsions:
REMARK  status: ('A' for Active; 'I' for Inactive)
REMARK    1  A    between atoms: C2_2  and  N1_3 
REMARK    2  A    between atoms: C5_7  and  C6_8 
REMARK    3  A    between atoms: C9_13  and  C10_14 
REMARK    4  A    between atoms: C16_20  and  C17_21 
REMARK    5  A    between atoms: C17_21  and  C18_22 
REMARK    6  A    between atoms: N4_31  and  S1_33 
REMARK    7  A    between atoms: S1_33  and  N5_34 
ROOT
HETATM    1  N1  UNL     1      17.297 -13.359  18.944  1.00  0.00    -0.289 N 
HETATM    2  C3  UNL     1      18.454 -12.841  19.624  1.00  0.00     0.263 A 
HETATM    3  O1  UNL     1      19.042 -11.764  19.311  1.00  0.00    -0.267 OA
HETATM    4  C4  UNL     1      18.867 -13.721  20.738  1.00  0.00     0.043 A 
HETATM    5  C5  UNL     1      20.129 -13.507  21.365  1.00  0.00     0.048 C 
HETATM    6  C14 UNL     1      18.035 -14.705  20.736  1.00  0.00    -0.019 A 
HETATM    7  C15 UNL     1      17.971 -15.906  21.616  1.00  0.00     0.052 C 
HETATM    8  C16 UNL     1      17.002 -14.543  19.614  1.00  0.00     0.050 A 
ENDROOT
BRANCH   8   9
HETATM    9  C17 UNL     1      16.176 -15.507  19.370  1.00  0.00     0.046 C 
BRANCH   9  10
HETATM   10  C18 UNL     1      14.788 -15.708  19.169  1.00  0.00     0.017 A 
HETATM   11  C19 UNL     1      14.329 -16.743  18.349  1.00  0.00    -0.046 A 
HETATM   12  C20 UNL     1      15.322 -17.707  17.778  1.00  0.00     0.049 C 
HETATM   13  C21 UNL     1      12.986 -16.863  18.078  1.00  0.00     0.032 A 
HETATM   14  C22 UNL     1      12.054 -15.984  18.595  1.00  0.00     0.007 A 
HETATM   15  C23 UNL     1      10.604 -16.111  18.303  1.00  0.00     0.068 C 
HETATM   16  N3  UNL     1      12.505 -14.991  19.383  1.00  0.00    -0.345 N 
HETATM   17  C24 UNL     1      13.804 -14.842  19.669  1.00  0.00     0.127 A 
ATOM     18  H3  UNL     1      11.834 -14.330  19.775  1.00  0.00     0.167 HD
HETATM   19  N4  UNL     1      14.230 -13.903  20.417  1.00  0.00    -0.252 N 
ATOM     20  H4  UNL     1      15.238 -13.879  20.573  1.00  0.00     0.182 HD
BRANCH  19  21
HETATM   21  S1  UNL     1      13.329 -12.685  21.186  1.00  0.00     0.318 S 
HETATM   22  O2  UNL     1      12.426 -11.912  20.293  1.00  0.00    -0.183 OA
HETATM   23  O3  UNL     1      14.329 -11.673  21.739  1.00  0.00    -0.183 OA
BRANCH  21  24
HETATM   24  N5  UNL     1      12.445 -13.256  22.557  1.00  0.00    -0.311 N 
ATOM     25  H52 UNL     1      12.748 -14.057  23.110  1.00  0.00     0.170 HD
ATOM     26  H51 UNL     1      11.603 -12.712  22.747  1.00  0.00     0.170 HD
ENDBRANCH  21  24
ENDBRANCH  19  21
ENDBRANCH   9  10
ENDBRANCH   8   9
BRANCH   1  27
HETATM   27  C2  UNL     1      16.705 -12.645  17.893  1.00  0.00     0.090 C 
HETATM   28  C1  UNL     1      15.644 -12.016  17.665  1.00  0.00     0.030 C 
ENDBRANCH   1  27
BRANCH   5  29
HETATM   29  C6  UNL     1      20.734 -13.719  22.474  1.00  0.00     0.043 A 
HETATM   30  N2  UNL     1      22.110 -13.544  22.581  1.00  0.00    -0.359 N 
HETATM   31  C7  UNL     1      22.522 -13.592  23.825  1.00  0.00     0.013 A 
ATOM     32  H2  UNL     1      22.728 -13.395  21.783  1.00  0.00     0.166 HD
HETATM   33  C8  UNL     1      23.992 -13.426  24.199  1.00  0.00     0.068 C 
HETATM   34  C9  UNL     1      21.490 -13.794  24.640  1.00  0.00    -0.025 A 
HETATM   35  C12 UNL     1      20.358 -13.868  23.797  1.00  0.00    -0.011 A 
HETATM   36  C13 UNL     1      19.166 -13.826  24.354  1.00  0.00     0.026 C 
BRANCH  34  37
HETATM   37  C10 UNL     1      21.555 -13.914  26.113  1.00  0.00     0.037 C 
HETATM   38  C11 UNL     1      21.154 -12.588  26.771  1.00  0.00     0.010 C 
ENDBRANCH  34  37
ENDBRANCH   5  29
TORSDOF 7
ENDMDL
MODEL 3
REMARK VINA RESULT: -8.804331929      3.677      7.434
REMARK  7 active torsions:
REMARK  status: ('A' for Active; 'I' for Inactive)
REMARK    1  A    between atoms: C2_2  and  N1_3 
REMARK    2  A    between atoms: C5_7  and  C6_8 
REMARK    3  A    between atoms: C9_13  and  C10_14 
REMARK    4  A    between atoms: C16_20  and  C17_21 
REMARK    5  A    between atoms: C17_21  and  C18_22 
REMARK    6  A    between atoms: N4_31  and  S1_33 
REMARK    7  A    between atoms: S1_33  and  N5_34 
ROOT
HETATM    1  N1  UNL     1      13.826 -15.173  19.112  1.00  0.00    -0.289 N 
HETATM    2  C3  UNL     1      12.736 -14.333  19.534  1.00  0.00     0.263 A 
HETATM    3  O1  UNL     1      11.541 -14.467  19.140  1.00  0.00    -0.267 OA
HETATM    4  C4  UNL     1      13.188 -13.297  20.487  1.00  0.00     0.043 A 
HETATM    5  C5  UNL     1      12.309 -12.226  20.821  1.00  0.00     0.048 C 
HETATM    6  C14 UNL     1      14.454 -13.482  20.634  1.00  0.00    -0.019 A 
HETATM    7  C15 UNL     1      15.443 -12.726  21.455  1.00  0.00     0.052 C 
HETATM    8  C16 UNL     1      14.935 -14.663  19.783  1.00  0.00     0.050 A 
ENDROOT
BRANCH   8   9
HETATM    9  C17 UNL     1      16.203 -14.904  19.692  1.00  0.00     0.046 C 
BRANCH   9  10
HETATM   10  C18 UNL     1      17.428 -14.197  19.629  1.00  0.00     0.017 A 
HETATM   11  C19 UNL     1      18.407 -14.380  20.610  1.00  0.00    -0.046 A 
HETATM   12  C20 UNL     1      18.189 -15.419  21.665  1.00  0.00     0.049 C 
HETATM   13  C21 UNL     1      19.548 -13.612  20.595  1.00  0.00     0.032 A 
HETATM   14  C22 UNL     1      19.769 -12.649  19.630  1.00  0.00     0.007 A 
HETATM   15  C23 UNL     1      21.000 -11.817  19.613  1.00  0.00     0.068 C 
HETATM   16  N3  UNL     1      18.822 -12.480  18.690  1.00  0.00    -0.345 N 
HETATM   17  C24 UNL     1      17.699 -13.208  18.671  1.00  0.00     0.127 A 
ATOM     18  H3  UNL     1      18.964 -11.773  17.968  1.00  0.00     0.167 HD
HETATM   19  N4  UNL     1      16.803 -13.049  17.780  1.00  0.00    -0.252 N 
ATOM     20  H4  UNL     1      15.986 -13.656  17.855  1.00  0.00     0.182 HD
BRANCH  19  21
HETATM   21  S1  UNL     1      16.798 -11.954  16.482  1.00  0.00     0.318 S 
HETATM   22  O2  UNL     1      18.075 -11.872  15.724  1.00  0.00    -0.183 OA
HETATM   23  O3  UNL     1      16.578 -10.564  17.073  1.00  0.00    -0.183 OA
BRANCH  21  24
HETATM   24  N5  UNL     1      15.484 -12.202  15.386  1.00  0.00    -0.311 N 
ATOM     25  H52 UNL     1      15.130 -13.130  15.156  1.00  0.00     0.170 HD
ATOM     26  H51 UNL     1      15.111 -11.333  15.004  1.00  0.00     0.170 HD
ENDBRANCH  21  24
ENDBRANCH  19  21
ENDBRANCH   9  10
ENDBRANCH   8   9
BRANCH   1  27
HETATM   27  C2  UNL     1      13.604 -16.257  18.253  1.00  0.00     0.090 C 
HETATM   28  C1  UNL     1      13.840 -16.576  17.063  1.00  0.00     0.030 C 
ENDBRANCH   1  27
BRANCH   5  29
HETATM   29  C6  UNL     1      12.090 -11.376  21.755  1.00  0.00     0.043 A 
HETATM   30  N2  UNL     1      11.550 -11.777  22.972  1.00  0.00    -0.359 N 
HETATM   31  C7  UNL     1      11.598 -10.827  23.875  1.00  0.00     0.013 A 
ATOM     32  H2  UNL     1      11.160 -12.704  23.143  1.00  0.00     0.166 HD
HETATM   33  C8  UNL     1      11.067 -11.026  25.291  1.00  0.00     0.068 C 
HETATM   34  C9  UNL     1      12.162  -9.737  23.359  1.00  0.00    -0.025 A 
HETATM   35  C12 UNL     1      12.482 -10.078  22.026  1.00  0.00    -0.011 A 
HETATM   36  C13 UNL     1      13.266  -9.265  21.349  1.00  0.00     0.026 C 
BRANCH  34  37
HETATM   37  C10 UNL     1      12.386  -8.457  24.066  1.00  0.00     0.037 C 
HETATM   38  C11 UNL     1      11.044  -7.798  24.408  1.00  0.00     0.010 C 
ENDBRANCH  34  37
ENDBRANCH   5  29
TORSDOF 7
ENDMDL
MODEL 4
REMARK VINA RESULT: -8.741493311      2.499      4.186
REMARK  7 active torsions:
REMARK  status: ('A' for Active; 'I' for Inactive)
REMARK    1  A    between atoms: C2_2  and  N1_3 
REMARK    2  A    between atoms: C5_7  and  C6_8 
REMARK    3  A    between atoms: C9_13  and  C10_14 
REMARK    4  A    between atoms: C16_20  and  C17_21 
REMARK    5  A    between atoms: C17_21  and  C18_22 
REMARK    6  A    between atoms: N4_31  and  S1_33 
REMARK    7  A    between atoms: S1_33  and  N5_34 
ROOT
HETATM    1  N1  UNL     1      15.304 -16.156  21.425  1.00  0.00    -0.289 N 
HETATM    2  C3  UNL     1      16.442 -16.321  22.290  1.00  0.00     0.263 A 
HETATM    3  O1  UNL     1      16.739 -17.402  22.878  1.00  0.00    -0.267 OA
HETATM    4  C4  UNL     1      17.222 -15.070  22.404  1.00  0.00     0.043 A 
HETATM    5  C5  UNL     1      18.232 -14.967  23.402  1.00  0.00     0.048 C 
HETATM    6  C14 UNL     1      16.608 -14.205  21.672  1.00  0.00    -0.019 A 
HETATM    7  C15 UNL     1      16.921 -12.769  21.421  1.00  0.00     0.052 C 
HETATM    8  C16 UNL     1      15.369 -14.827  21.016  1.00  0.00     0.050 A 
ENDROOT
BRANCH   8   9
HETATM    9  C17 UNL     1      14.550 -14.068  20.363  1.00  0.00     0.046 C 
BRANCH   9  10
HETATM   10  C18 UNL     1      14.534 -13.249  19.207  1.00  0.00     0.017 A 
HETATM   11  C19 UNL     1      14.998 -13.737  17.982  1.00  0.00    -0.046 A 
HETATM   12  C20 UNL     1      15.405 -15.175  17.884  1.00  0.00     0.049 C 
HETATM   13  C21 UNL     1      15.076 -12.902  16.893  1.00  0.00     0.032 A 
HETATM   14  C22 UNL     1      14.705 -11.572  16.963  1.00  0.00     0.007 A 
HETATM   15  C23 UNL     1      14.790 -10.668  15.788  1.00  0.00     0.068 C 
HETATM   16  N3  UNL     1      14.261 -11.111  18.146  1.00  0.00    -0.345 N 
HETATM   17  C24 UNL     1      14.171 -11.894  19.228  1.00  0.00     0.127 A 
ATOM     18  H3  UNL     1      13.983 -10.132  18.220  1.00  0.00     0.167 HD
HETATM   19  N4  UNL     1      13.748 -11.458  20.347  1.00  0.00    -0.252 N 
ATOM     20  H4  UNL     1      13.717 -12.137  21.108  1.00  0.00     0.182 HD
BRANCH  19  21
HETATM   21  S1  UNL     1      13.228  -9.887  20.731  1.00  0.00     0.318 S 
HETATM   22  O2  UNL     1      12.829  -9.055  19.565  1.00  0.00    -0.183 OA
HETATM   23  O3  UNL     1      14.415  -9.168  21.366  1.00  0.00    -0.183 OA
BRANCH  21  24
HETATM   24  N5  UNL     1      11.978  -9.856  21.925  1.00  0.00    -0.311 N 
ATOM     25  H52 UNL     1      11.380 -10.660  22.113  1.00  0.00     0.170 HD
ATOM     26  H51 UNL     1      11.908  -8.961  22.410  1.00  0.00     0.170 HD
ENDBRANCH  21  24
ENDBRANCH  19  21
ENDBRANCH   9  10
ENDBRANCH   8   9
BRANCH   1  27
HETATM   27  C2  UNL     1      14.464 -17.239  21.134  1.00  0.00     0.090 C 
HETATM   28  C1  UNL     1      13.971 -17.801  20.126  1.00  0.00     0.030 C 
ENDBRANCH   1  27
BRANCH   5  29
HETATM   29  C6  UNL     1      19.313 -14.327  23.659  1.00  0.00     0.043 A 
HETATM   30  N2  UNL     1      19.490 -13.686  24.880  1.00  0.00    -0.359 N 
HETATM   31  C7  UNL     1      20.723 -13.274  25.052  1.00  0.00     0.013 A 
ATOM     32  H2  UNL     1      18.745 -13.552  25.565  1.00  0.00     0.166 HD
HETATM   33  C8  UNL     1      21.165 -12.543  26.315  1.00  0.00     0.068 C 
HETATM   34  C9  UNL     1      21.463 -13.595  23.993  1.00  0.00    -0.025 A 
HETATM   35  C12 UNL     1      20.583 -14.266  23.114  1.00  0.00    -0.011 A 
HETATM   36  C13 UNL     1      21.101 -14.906  22.086  1.00  0.00     0.026 C 
BRANCH  34  37
HETATM   37  C10 UNL     1      22.899 -13.293  23.811  1.00  0.00     0.037 C 
HETATM   38  C11 UNL     1      23.757 -14.397  24.440  1.00  0.00     0.010 C 
ENDBRANCH  34  37
ENDBRANCH   5  29
TORSDOF 7
ENDMDL
MODEL 5
REMARK VINA RESULT: -8.706728109      2.529      4.293
REMARK  7 active torsions:
REMARK  status: ('A' for Active; 'I' for Inactive)
REMARK    1  A    between atoms: C2_2  and  N1_3 
REMARK    2  A    between atoms: C5_7  and  C6_8 
REMARK    3  A    between atoms: C9_13  and  C10_14 
REMARK    4  A    between atoms: C16_20  and  C17_21 
REMARK    5  A    between atoms: C17_21  and  C18_22 
REMARK    6  A    between atoms: N4_31  and  S1_33 
REMARK    7  A    between atoms: S1_33  and  N5_34 
ROOT
HETATM    1  N1  UNL     1      14.793 -16.493  21.237  1.00  0.00    -0.289 N 
HETATM    2  C3  UNL     1      15.841 -16.906  22.132  1.00  0.00     0.263 A 
HETATM    3  O1  UNL     1      15.972 -18.082  22.579  1.00  0.00    -0.267 OA
HETATM    4  C4  UNL     1      16.748 -15.784  22.458  1.00  0.00     0.043 A 
HETATM    5  C5  UNL     1      17.691 -15.936  23.515  1.00  0.00     0.048 C 
HETATM    6  C14 UNL     1      16.289 -14.763  21.821  1.00  0.00    -0.019 A 
HETATM    7  C15 UNL     1      16.779 -13.356  21.788  1.00  0.00     0.052 C 
HETATM    8  C16 UNL     1      15.037 -15.139  21.019  1.00  0.00     0.050 A 
ENDROOT
BRANCH   8   9
HETATM    9  C17 UNL     1      14.357 -14.208  20.433  1.00  0.00     0.046 C 
BRANCH   9  10
HETATM   10  C18 UNL     1      14.411 -13.414  19.261  1.00  0.00     0.017 A 
HETATM   11  C19 UNL     1      14.899 -13.945  18.063  1.00  0.00    -0.046 A 
HETATM   12  C20 UNL     1      15.255 -15.398  18.008  1.00  0.00     0.049 C 
HETATM   13  C21 UNL     1      15.044 -13.137  16.960  1.00  0.00     0.032 A 
HETATM   14  C22 UNL     1      14.721 -11.794  16.990  1.00  0.00     0.007 A 
HETATM   15  C23 UNL     1      14.879 -10.918  15.801  1.00  0.00     0.068 C 
HETATM   16  N3  UNL     1      14.252 -11.291  18.147  1.00  0.00    -0.345 N 
HETATM   17  C24 UNL     1      14.097 -12.047  19.241  1.00  0.00     0.127 A 
ATOM     18  H3  UNL     1      14.008 -10.302  18.191  1.00  0.00     0.167 HD
HETATM   19  N4  UNL     1      13.651 -11.572  20.336  1.00  0.00    -0.252 N 
ATOM     20  H4  UNL     1      13.570 -12.232  21.109  1.00  0.00     0.182 HD
BRANCH  19  21
HETATM   21  S1  UNL     1      13.176  -9.975  20.668  1.00  0.00     0.318 S 
HETATM   22  O2  UNL     1      12.855  -9.152  19.472  1.00  0.00    -0.183 OA
HETATM   23  O3  UNL     1      14.363  -9.287  21.337  1.00  0.00    -0.183 OA
BRANCH  21  24
HETATM   24  N5  UNL     1      11.882  -9.874  21.810  1.00  0.00    -0.311 N 
ATOM     25  H52 UNL     1      10.986  -9.444  21.587  1.00  0.00     0.170 HD
ATOM     26  H51 UNL     1      12.112 -10.286  22.715  1.00  0.00     0.170 HD
ENDBRANCH  21  24
ENDBRANCH  19  21
ENDBRANCH   9  10
ENDBRANCH   8   9
BRANCH   1  27
HETATM   27  C2  UNL     1      13.858 -17.418  20.754  1.00  0.00     0.090 C 
HETATM   28  C1  UNL     1      12.613 -17.568  20.727  1.00  0.00     0.030 C 
ENDBRANCH   1  27
BRANCH   5  29
HETATM   29  C6  UNL     1      18.816 -15.471  23.916  1.00  0.00     0.043 A 
HETATM   30  N2  UNL     1      19.706 -14.889  23.020  1.00  0.00    -0.359 N 
HETATM   31  C7  UNL     1      20.696 -14.279  23.627  1.00  0.00     0.013 A 
ATOM     32  H2  UNL     1      19.602 -14.931  22.006  1.00  0.00     0.166 HD
HETATM   33  C8  UNL     1      21.802 -13.563  22.858  1.00  0.00     0.068 C 
HETATM   34  C9  UNL     1      20.560 -14.392  24.947  1.00  0.00    -0.025 A 
HETATM   35  C12 UNL     1      19.374 -15.136  25.136  1.00  0.00    -0.011 A 
HETATM   36  C13 UNL     1      18.866 -15.195  26.350  1.00  0.00     0.026 C 
BRANCH  34  37
HETATM   37  C10 UNL     1      21.481 -13.843  25.966  1.00  0.00     0.037 C 
HETATM   38  C11 UNL     1      21.047 -12.426  26.364  1.00  0.00     0.010 C 
ENDBRANCH  34  37
ENDBRANCH   5  29
TORSDOF 7
ENDMDL
