MODEL 1
REMARK VINA RESULT: -9.623338032      0.000      0.000
REMARK  5 active torsions:
REMARK  status: ('A' for Active; 'I' for Inactive)
REMARK    1  A    between atoms: C2_2  and  C4_4 
REMARK       I    between atoms: N2_12  and  C9_13 
REMARK    2  A    between atoms: C9_13  and  C10_15 
REMARK    3  A    between atoms: N3_17  and  N4_19 
REMARK    4  A    between atoms: N4_19  and  C12_21 
REMARK    5  A    between atoms: C20_29  and  C21_30 
REMARK       I    between atoms: C21_30  and  N5_32 
ROOT
HETATM    1  C10 UNL     1      14.191 -12.896  20.271  1.00  0.00     0.138 C 
HETATM    2  C11 UNL     1      15.422 -12.868  19.430  1.00  0.00     0.017 C 
HETATM    3  N3  UNL     1      16.653 -13.050  19.666  1.00  0.00    -0.312 N 
ATOM      4  H3  UNL     1      16.938 -13.266  20.621  1.00  0.00     0.186 HD
HETATM    5  C18 UNL     1      14.890 -12.504  18.054  1.00  0.00     0.056 C 
HETATM    6  C19 UNL     1      14.045 -11.312  18.418  1.00  0.00     0.021 C 
HETATM    7  C20 UNL     1      13.444 -11.667  19.749  1.00  0.00     0.097 C 
ENDROOT
BRANCH   1   8
HETATM    8  C9  UNL     1      13.360 -14.087  19.975  1.00  0.00     0.235 C 
HETATM    9  N2  UNL     1      13.764 -15.401  20.266  1.00  0.00    -0.314 N 
HETATM   10  C4  UNL     1      13.069 -16.640  20.022  1.00  0.00     0.018 C 
HETATM   11  C8  UNL     1      15.061 -15.585  20.974  1.00  0.00     0.234 C 
HETATM   12  C5  UNL     1      13.952 -17.634  19.393  1.00  0.00     0.127 C 
HETATM   13  C6  UNL     1      13.443 -18.399  18.204  1.00  0.00     0.038 C 
HETATM   14  N1  UNL     1      15.266 -17.103  19.045  1.00  0.00    -0.350 N 
HETATM   15  C7  UNL     1      15.921 -16.347  20.043  1.00  0.00     0.236 C 
ATOM     16  H1  UNL     1      15.689 -17.268  18.132  1.00  0.00     0.163 HD
HETATM   17  O1  UNL     1      17.193 -16.324  20.134  1.00  0.00    -0.272 OA
HETATM   18  O2  UNL     1      12.241 -13.788  19.427  1.00  0.00    -0.272 OA
BRANCH  10  19
HETATM   19  C2  UNL     1      11.670 -16.578  19.592  1.00  0.00     0.025 C 
HETATM   20  C1  UNL     1      11.349 -16.498  18.150  1.00  0.00     0.016 C 
HETATM   21  C3  UNL     1      10.879 -17.714  20.278  1.00  0.00     0.016 C 
ENDBRANCH  10  19
ENDBRANCH   1   8
BRANCH   7  22
HETATM   22  C21 UNL     1      13.557 -10.551  20.727  1.00  0.00     0.225 C 
HETATM   23  O3  UNL     1      14.395  -9.643  20.509  1.00  0.00    -0.273 OA
HETATM   24  N5  UNL     1      12.758 -10.476  21.890  1.00  0.00    -0.352 N 
HETATM   25  C22 UNL     1      11.763 -11.477  22.229  1.00  0.00     0.126 C 
HETATM   26  C25 UNL     1      12.811  -9.435  22.874  1.00  0.00     0.126 C 
HETATM   27  C23 UNL     1      11.553 -11.237  23.711  1.00  0.00     0.021 C 
HETATM   28  C24 UNL     1      11.676  -9.747  23.799  1.00  0.00     0.021 C 
ENDBRANCH   7  22
BRANCH   3  29
HETATM   29  N4  UNL     1      17.627 -12.968  18.689  1.00  0.00    -0.332 N 
ATOM     30  H4  UNL     1      17.510 -13.475  17.812  1.00  0.00     0.180 HD
BRANCH  29  31
HETATM   31  C12 UNL     1      18.807 -12.170  18.907  1.00  0.00     0.099 C 
HETATM   32  C13 UNL     1      19.978 -12.811  18.189  1.00  0.00     0.026 C 
HETATM   33  C14 UNL     1      21.205 -11.998  18.451  1.00  0.00     0.002 C 
HETATM   34  C15 UNL     1      21.480 -11.953  19.937  1.00  0.00     0.000 C 
HETATM   35  C16 UNL     1      20.388 -12.689  20.709  1.00  0.00     0.002 C 
HETATM   36  C17 UNL     1      19.091 -11.999  20.382  1.00  0.00     0.026 C 
ENDBRANCH  29  31
ENDBRANCH   3  29
TORSDOF 5
ENDMDL
MODEL 2
REMARK VINA RESULT: -8.980691302      3.011      5.538
REMARK  5 active torsions:
REMARK  status: ('A' for Active; 'I' for Inactive)
REMARK    1  A    between atoms: C2_2  and  C4_4 
REMARK       I    between atoms: N2_12  and  C9_13 
REMARK    2  A    between atoms: C9_13  and  C10_15 
REMARK    3  A    between atoms: N3_17  and  N4_19 
REMARK    4  A    between atoms: N4_19  and  C12_21 
REMARK    5  A    between atoms: C20_29  and  C21_30 
REMARK       I    between atoms: C21_30  and  N5_32 
ROOT
HETATM    1  C10 UNL     1      16.705 -12.127  19.849  1.00  0.00     0.138 C 
HETATM    2  C11 UNL     1      17.210 -12.587  18.524  1.00  0.00     0.017 C 
HETATM    3  N3  UNL     1      17.946 -12.066  17.635  1.00  0.00    -0.312 N 
ATOM      4  H3  UNL     1      18.309 -11.125  17.793  1.00  0.00     0.186 HD
HETATM    5  C18 UNL     1      16.586 -13.964  18.377  1.00  0.00     0.056 C 
HETATM    6  C19 UNL     1      15.156 -13.628  18.705  1.00  0.00     0.021 C 
HETATM    7  C20 UNL     1      15.250 -12.596  19.794  1.00  0.00     0.097 C 
ENDROOT
BRANCH   1   8
HETATM    8  C9  UNL     1      17.368 -12.849  20.961  1.00  0.00     0.235 C 
HETATM    9  N2  UNL     1      18.725 -12.684  21.287  1.00  0.00    -0.314 N 
HETATM   10  C4  UNL     1      19.495 -13.326  22.323  1.00  0.00     0.018 C 
HETATM   11  C8  UNL     1      19.504 -11.677  20.515  1.00  0.00     0.234 C 
HETATM   12  C5  UNL     1      20.772 -13.837  21.802  1.00  0.00     0.127 C 
HETATM   13  C6  UNL     1      21.189 -15.234  22.163  1.00  0.00     0.038 C 
HETATM   14  N1  UNL     1      20.904 -13.697  20.355  1.00  0.00    -0.350 N 
HETATM   15  C7  UNL     1      20.559 -12.439  19.812  1.00  0.00     0.236 C 
ATOM     16  H1  UNL     1      21.228 -14.465  19.768  1.00  0.00     0.163 HD
HETATM   17  O1  UNL     1      21.131 -11.985  18.767  1.00  0.00    -0.272 OA
HETATM   18  O2  UNL     1      16.573 -13.634  21.588  1.00  0.00    -0.272 OA
BRANCH  10  19
HETATM   19  C2  UNL     1      18.782 -14.121  23.326  1.00  0.00     0.025 C 
HETATM   20  C1  UNL     1      18.597 -15.573  23.113  1.00  0.00     0.016 C 
HETATM   21  C3  UNL     1      19.382 -13.832  24.720  1.00  0.00     0.016 C 
ENDBRANCH  10  19
ENDBRANCH   1   8
BRANCH   7  22
HETATM   22  C21 UNL     1      14.351 -11.437  19.541  1.00  0.00     0.225 C 
HETATM   23  O3  UNL     1      14.267 -10.983  18.375  1.00  0.00    -0.273 OA
HETATM   24  N5  UNL     1      13.591 -10.828  20.566  1.00  0.00    -0.352 N 
HETATM   25  C22 UNL     1      13.621 -11.280  21.944  1.00  0.00     0.126 C 
HETATM   26  C25 UNL     1      12.707  -9.712  20.398  1.00  0.00     0.126 C 
HETATM   27  C23 UNL     1      13.077 -10.077  22.691  1.00  0.00     0.021 C 
HETATM   28  C24 UNL     1      12.047  -9.563  21.733  1.00  0.00     0.021 C 
ENDBRANCH   7  22
BRANCH   3  29
HETATM   29  N4  UNL     1      18.280 -12.713  16.460  1.00  0.00    -0.332 N 
ATOM     30  H4  UNL     1      19.161 -13.224  16.395  1.00  0.00     0.180 HD
BRANCH  29  31
HETATM   31  C12 UNL     1      17.390 -12.667  15.329  1.00  0.00     0.099 C 
HETATM   32  C13 UNL     1      18.204 -12.751  14.053  1.00  0.00     0.026 C 
HETATM   33  C14 UNL     1      17.276 -12.666  12.884  1.00  0.00     0.002 C 
HETATM   34  C15 UNL     1      16.525 -11.354  12.924  1.00  0.00     0.000 C 
HETATM   35  C16 UNL     1      16.894 -10.560  14.175  1.00  0.00     0.002 C 
HETATM   36  C17 UNL     1      16.532 -11.423  15.354  1.00  0.00     0.026 C 
ENDBRANCH  29  31
ENDBRANCH   3  29
TORSDOF 5
ENDMDL
MODEL 3
REMARK VINA RESULT: -8.956987592      3.048      5.598
REMARK  5 active torsions:
REMARK  status: ('A' for Active; 'I' for Inactive)
REMARK    1  A    between atoms: C2_2  and  C4_4 
REMARK       I    between atoms: N2_12  and  C9_13 
REMARK    2  A    between atoms: C9_13  and  C10_15 
REMARK    3  A    between atoms: N3_17  and  N4_19 
REMARK    4  A    between atoms: N4_19  and  C12_21 
REMARK    5  A    between atoms: C20_29  and  C21_30 
REMARK       I    between atoms: C21_30  and  N5_32 
ROOT
HETATM    1  C10 UNL     1      17.198 -12.092  20.840  1.00  0.00     0.138 C 
HETATM    2  C11 UNL     1      17.321 -12.741  19.503  1.00  0.00     0.017 C 
HETATM    3  N3  UNL     1      17.891 -12.418  18.419  1.00  0.00    -0.312 N 
ATOM      4  H3  UNL     1      18.395 -11.532  18.379  1.00  0.00     0.186 HD
HETATM    5  C18 UNL     1      16.512 -14.017  19.664  1.00  0.00     0.056 C 
HETATM    6  C19 UNL     1      15.251 -13.442  20.251  1.00  0.00     0.021 C 
HETATM    7  C20 UNL     1      15.722 -12.342  21.158  1.00  0.00     0.097 C 
ENDROOT
BRANCH   1   8
HETATM    8  C9  UNL     1      18.004 -12.801  21.862  1.00  0.00     0.235 C 
HETATM    9  N2  UNL     1      19.394 -12.983  21.758  1.00  0.00    -0.314 N 
HETATM   10  C4  UNL     1      20.292 -13.658  22.660  1.00  0.00     0.018 C 
HETATM   11  C8  UNL     1      20.087 -12.364  20.594  1.00  0.00     0.234 C 
HETATM   12  C5  UNL     1      21.182 -14.581  21.940  1.00  0.00     0.127 C 
HETATM   13  C6  UNL     1      21.367 -15.971  22.480  1.00  0.00     0.038 C 
HETATM   14  N1  UNL     1      20.866 -14.699  20.520  1.00  0.00    -0.350 N 
HETATM   15  C7  UNL     1      20.657 -13.489  19.821  1.00  0.00     0.236 C 
ATOM     16  H1  UNL     1      20.801 -15.605  20.057  1.00  0.00     0.163 HD
HETATM   17  O1  UNL     1      20.946 -13.375  18.585  1.00  0.00    -0.272 OA
HETATM   18  O2  UNL     1      17.300 -13.227  22.844  1.00  0.00    -0.272 OA
BRANCH  10  19
HETATM   19  C2  UNL     1      19.783 -14.061  23.973  1.00  0.00     0.025 C 
HETATM   20  C1  UNL     1      19.459 -15.482  24.229  1.00  0.00     0.016 C 
HETATM   21  C3  UNL     1      20.709 -13.493  25.072  1.00  0.00     0.016 C 
ENDBRANCH  10  19
ENDBRANCH   1   8
BRANCH   7  22
HETATM   22  C21 UNL     1      14.942 -11.089  20.967  1.00  0.00     0.225 C 
HETATM   23  O3  UNL     1      15.392 -10.213  20.190  1.00  0.00    -0.273 OA
HETATM   24  N5  UNL     1      13.715 -10.850  21.627  1.00  0.00    -0.352 N 
HETATM   25  C22 UNL     1      13.114 -11.802  22.543  1.00  0.00     0.126 C 
HETATM   26  C25 UNL     1      12.911  -9.671  21.492  1.00  0.00     0.126 C 
HETATM   27  C23 UNL     1      12.145 -10.934  23.322  1.00  0.00     0.021 C 
HETATM   28  C24 UNL     1      11.669  -9.984  22.266  1.00  0.00     0.021 C 
ENDBRANCH   7  22
BRANCH   3  29
HETATM   29  N4  UNL     1      17.860 -13.212  17.288  1.00  0.00    -0.332 N 
ATOM     30  H4  UNL     1      18.352 -14.106  17.281  1.00  0.00     0.180 HD
BRANCH  29  31
HETATM   31  C12 UNL     1      17.137 -12.781  16.119  1.00  0.00     0.099 C 
HETATM   32  C13 UNL     1      18.085 -12.738  14.937  1.00  0.00     0.026 C 
HETATM   33  C14 UNL     1      17.335 -12.254  13.738  1.00  0.00     0.002 C 
HETATM   34  C15 UNL     1      16.788 -10.870  14.002  1.00  0.00     0.000 C 
HETATM   35  C16 UNL     1      17.110 -10.427  15.428  1.00  0.00     0.002 C 
HETATM   36  C17 UNL     1      16.477 -11.439  16.344  1.00  0.00     0.026 C 
ENDBRANCH  29  31
ENDBRANCH   3  29
TORSDOF 5
ENDMDL
MODEL 4
REMARK VINA RESULT: -8.813815098      1.061      1.472
REMARK  5 active torsions:
REMARK  status: ('A' for Active; 'I' for Inactive)
REMARK    1  A    between atoms: C2_2  and  C4_4 
REMARK       I    between atoms: N2_12  and  C9_13 
REMARK    2  A    between atoms: C9_13  and  C10_15 
REMARK    3  A    between atoms: N3_17  and  N4_19 
REMARK    4  A    between atoms: N4_19  and  C12_21 
REMARK    5  A    between atoms: C20_29  and  C21_30 
REMARK       I    between atoms: C21_30  and  N5_32 
ROOT
HETATM    1  C10 UNL     1      14.342 -13.230  20.596  1.00  0.00     0.138 C 
HETATM    2  C11 UNL     1      15.723 -13.411  20.066  1.00  0.00     0.017 C 
HETATM    3  N3  UNL     1      16.829 -13.743  20.587  1.00  0.00    -0.312 N 
ATOM      4  H3  UNL     1      16.854 -13.945  21.587  1.00  0.00     0.186 HD
HETATM    5  C18 UNL     1      15.578 -13.054  18.596  1.00  0.00     0.056 C 
HETATM    6  C19 UNL     1      14.851 -11.742  18.728  1.00  0.00     0.021 C 
HETATM    7  C20 UNL     1      13.917 -11.942  19.889  1.00  0.00     0.097 C 
ENDROOT
BRANCH   1   8
HETATM    8  C9  UNL     1      13.440 -14.312  20.139  1.00  0.00     0.235 C 
HETATM    9  N2  UNL     1      13.510 -15.631  20.621  1.00  0.00    -0.314 N 
HETATM   10  C4  UNL     1      12.713 -16.776  20.257  1.00  0.00     0.018 C 
HETATM   11  C8  UNL     1      14.497 -15.921  21.697  1.00  0.00     0.234 C 
HETATM   12  C5  UNL     1      13.556 -17.950  19.988  1.00  0.00     0.127 C 
HETATM   13  C6  UNL     1      13.286 -18.761  18.752  1.00  0.00     0.038 C 
HETATM   14  N1  UNL     1      14.985 -17.658  20.021  1.00  0.00    -0.350 N 
HETATM   15  C7  UNL     1      15.445 -16.899  21.120  1.00  0.00     0.236 C 
ATOM     16  H1  UNL     1      15.617 -17.984  19.290  1.00  0.00     0.163 HD
HETATM   17  O1  UNL     1      16.621 -17.051  21.589  1.00  0.00    -0.272 OA
HETATM   18  O2  UNL     1      12.593 -13.918  19.261  1.00  0.00    -0.272 OA
BRANCH  10  19
HETATM   19  C2  UNL     1      11.529 -16.559  19.422  1.00  0.00     0.025 C 
HETATM   20  C1  UNL     1      11.620 -16.751  17.958  1.00  0.00     0.016 C 
HETATM   21  C3  UNL     1      10.340 -17.347  20.017  1.00  0.00     0.016 C 
ENDBRANCH  10  19
ENDBRANCH   1   8
BRANCH   7  22
HETATM   22  C21 UNL     1      13.962 -10.799  20.842  1.00  0.00     0.225 C 
HETATM   23  O3  UNL     1      14.886  -9.959  20.732  1.00  0.00    -0.273 OA
HETATM   24  N5  UNL     1      13.002 -10.627  21.866  1.00  0.00    -0.352 N 
HETATM   25  C22 UNL     1      11.897 -11.545  22.074  1.00  0.00     0.126 C 
HETATM   26  C25 UNL     1      12.981  -9.556  22.819  1.00  0.00     0.126 C 
HETATM   27  C23 UNL     1      11.483 -11.236  23.499  1.00  0.00     0.021 C 
HETATM   28  C24 UNL     1      11.700  -9.755  23.566  1.00  0.00     0.021 C 
ENDBRANCH   7  22
BRANCH   3  29
HETATM   29  N4  UNL     1      18.002 -13.845  19.864  1.00  0.00    -0.332 N 
ATOM     30  H4  UNL     1      17.993 -13.686  18.856  1.00  0.00     0.180 HD
BRANCH  29  31
HETATM   31  C12 UNL     1      19.237 -14.175  20.528  1.00  0.00     0.099 C 
HETATM   32  C13 UNL     1      19.222 -13.588  21.925  1.00  0.00     0.026 C 
HETATM   33  C14 UNL     1      20.521 -13.903  22.593  1.00  0.00     0.002 C 
HETATM   34  C15 UNL     1      21.660 -13.303  21.800  1.00  0.00     0.000 C 
HETATM   35  C16 UNL     1      21.139 -12.626  20.536  1.00  0.00     0.002 C 
HETATM   36  C17 UNL     1      20.432 -13.690  19.739  1.00  0.00     0.026 C 
ENDBRANCH  29  31
ENDBRANCH   3  29
TORSDOF 5
ENDMDL
MODEL 5
REMARK VINA RESULT: -8.685521151      3.160      6.401
REMARK  5 active torsions:
REMARK  status: ('A' for Active; 'I' for Inactive)
REMARK    1  A    between atoms: C2_2  and  C4_4 
REMARK       I    between atoms: N2_12  and  C9_13 
REMARK    2  A    between atoms: C9_13  and  C10_15 
REMARK    3  A    between atoms: N3_17  and  N4_19 
REMARK    4  A    between atoms: N4_19  and  C12_21 
REMARK    5  A    between atoms: C20_29  and  C21_30 
REMARK       I    between atoms: C21_30  and  N5_32 
ROOT
HETATM    1  C10 UNL     1      18.013 -13.964  21.401  1.00  0.00     0.138 C 
HETATM    2  C11 UNL     1      18.361 -14.471  22.760  1.00  0.00     0.017 C 
HETATM    3  N3  UNL     1      18.436 -13.935  23.905  1.00  0.00    -0.312 N 
ATOM      4  H3  UNL     1      18.226 -12.941  23.992  1.00  0.00     0.186 HD
HETATM    5  C18 UNL     1      18.687 -15.933  22.509  1.00  0.00     0.056 C 
HETATM    6  C19 UNL     1      19.642 -15.782  21.354  1.00  0.00     0.021 C 
HETATM    7  C20 UNL     1      19.081 -14.647  20.545  1.00  0.00     0.097 C 
ENDROOT
BRANCH   1   8
HETATM    8  C9  UNL     1      16.692 -14.467  20.958  1.00  0.00     0.235 C 
HETATM    9  N2  UNL     1      15.847 -13.755  20.089  1.00  0.00    -0.314 N 
HETATM   10  C4  UNL     1      14.542 -14.115  19.592  1.00  0.00     0.018 C 
HETATM   11  C8  UNL     1      16.349 -12.467  19.538  1.00  0.00     0.234 C 
HETATM   12  C5  UNL     1      13.592 -13.001  19.728  1.00  0.00     0.127 C 
HETATM   13  C6  UNL     1      12.231 -13.282  20.299  1.00  0.00     0.038 C 
HETATM   14  N1  UNL     1      14.142 -11.854  20.442  1.00  0.00    -0.350 N 
HETATM   15  C7  UNL     1      15.429 -11.426  20.046  1.00  0.00     0.236 C 
ATOM     16  H1  UNL     1      13.626 -11.387  21.188  1.00  0.00     0.163 HD
HETATM   17  O1  UNL     1      15.777 -10.202  20.124  1.00  0.00    -0.272 OA
HETATM   18  O2  UNL     1      16.406 -15.615  21.450  1.00  0.00    -0.272 OA
BRANCH  10  19
HETATM   19  C2  UNL     1      14.060 -15.477  19.832  1.00  0.00     0.025 C 
HETATM   20  C1  UNL     1      13.034 -15.719  20.871  1.00  0.00     0.016 C 
HETATM   21  C3  UNL     1      13.654 -16.115  18.485  1.00  0.00     0.016 C 
ENDBRANCH  10  19
ENDBRANCH   1   8
BRANCH   7  22
HETATM   22  C21 UNL     1      20.131 -13.664  20.163  1.00  0.00     0.225 C 
HETATM   23  O3  UNL     1      21.011 -13.365  21.005  1.00  0.00    -0.273 OA
HETATM   24  N5  UNL     1      20.173 -13.054  18.888  1.00  0.00    -0.352 N 
HETATM   25  C22 UNL     1      19.200 -13.334  17.848  1.00  0.00     0.126 C 
HETATM   26  C25 UNL     1      21.150 -12.101  18.450  1.00  0.00     0.126 C 
HETATM   27  C23 UNL     1      19.362 -12.143  16.924  1.00  0.00     0.021 C 
HETATM   28  C24 UNL     1      20.837 -11.894  17.002  1.00  0.00     0.021 C 
ENDBRANCH   7  22
BRANCH   3  29
HETATM   29  N4  UNL     1      18.789 -14.637  25.042  1.00  0.00    -0.332 N 
ATOM     30  H4  UNL     1      18.125 -15.285  25.466  1.00  0.00     0.180 HD
BRANCH  29  31
HETATM   31  C12 UNL     1      20.091 -14.455  25.632  1.00  0.00     0.099 C 
HETATM   32  C13 UNL     1      20.537 -13.023  25.416  1.00  0.00     0.026 C 
HETATM   33  C14 UNL     1      21.904 -12.853  25.997  1.00  0.00     0.002 C 
HETATM   34  C15 UNL     1      22.869 -13.795  25.314  1.00  0.00     0.000 C 
HETATM   35  C16 UNL     1      22.139 -14.671  24.299  1.00  0.00     0.002 C 
HETATM   36  C17 UNL     1      21.093 -15.435  25.065  1.00  0.00     0.026 C 
ENDBRANCH  29  31
ENDBRANCH   3  29
TORSDOF 5
ENDMDL
