MODEL 1
REMARK VINA RESULT: -7.244310115      0.000      0.000
REMARK  7 active torsions:
REMARK  status: ('A' for Active; 'I' for Inactive)
REMARK    1  A    between atoms: C1_4  and  N2_5 
REMARK    2  A    between atoms: C1_4  and  C7_16 
REMARK    3  A    between atoms: N2_5  and  C2_7 
REMARK    4  A    between atoms: C2_7  and  C3_8 
REMARK    5  A    between atoms: C3_8  and  C4_9 
REMARK    6  A    between atoms: C8_20  and  N5_21 
REMARK    7  A    between atoms: C9_28  and  N7_29 
ROOT
HETATM    1  C7  UNL     1      17.457  36.875  -7.447  1.00  0.00     0.321 C 
HETATM    2  N4  UNL     1      16.917  38.236  -7.520  1.00  0.00    -0.001 N 
ATOM      3  H41 UNL     1      16.044  38.303  -6.996  1.00  0.00     0.283 HD
ATOM      4  H42 UNL     1      16.571  38.433  -8.458  1.00  0.00     0.283 HD
HETATM    5  C8  UNL     1      17.829  39.245  -7.102  1.00  0.00     0.582 C 
HETATM    6  N6  UNL     1      17.978  39.380  -5.675  1.00  0.00     0.017 N 
ATOM      7  H61 UNL     1      17.585  40.265  -5.354  1.00  0.00     0.285 HD
ATOM      8  H62 UNL     1      18.957  39.529  -5.428  1.00  0.00     0.285 HD
HETATM    9  C9  UNL     1      17.429  38.285  -4.931  1.00  0.00     0.449 C 
HETATM   10  S2  UNL     1      18.089  36.765  -5.721  1.00  0.00    -0.068 SA
ENDROOT
BRANCH   1  11
HETATM   11  C1  UNL     1      16.346  35.932  -7.557  1.00  0.00     0.112 C 
HETATM   12  N1  UNL     1      15.359  36.186  -8.389  1.00  0.00    -0.387 N 
ATOM     13  H12 UNL     1      14.583  35.527  -8.467  1.00  0.00     0.157 HD
ATOM     14  H11 UNL     1      15.464  37.058  -8.908  1.00  0.00     0.157 HD
BRANCH  11  15
HETATM   15  N2  UNL     1      16.199  34.718  -6.836  1.00  0.00    -0.378 N 
ATOM     16  H2  UNL     1      16.828  34.465  -6.074  1.00  0.00     0.160 HD
BRANCH  15  17
HETATM   17  C2  UNL     1      15.110  33.861  -7.242  1.00  0.00     0.123 C 
BRANCH  17  18
HETATM   18  C3  UNL     1      15.603  32.568  -7.858  1.00  0.00     0.063 C 
BRANCH  18  19
HETATM   19  C4  UNL     1      14.697  31.471  -7.377  1.00  0.00     0.248 C 
HETATM   20  N3  UNL     1      13.991  30.796  -8.424  1.00  0.00    -0.061 N 
HETATM   21  C5  UNL     1      14.896  29.831  -9.016  1.00  0.00     0.243 C 
ATOM     22  H32 UNL     1      13.117  30.378  -8.107  1.00  0.00     0.278 HD
ATOM     23  H31 UNL     1      13.592  31.437  -9.110  1.00  0.00     0.278 HD
HETATM   24  C6  UNL     1      15.325  28.870  -7.913  1.00  0.00     0.103 C 
HETATM   25  S1  UNL     1      15.610  30.118  -6.588  1.00  0.00    -0.135 SA
ENDBRANCH  18  19
ENDBRANCH  17  18
ENDBRANCH  15  17
ENDBRANCH  11  15
ENDBRANCH   1  11
BRANCH   5  26
HETATM   26  N5  UNL     1      19.139  39.132  -7.704  1.00  0.00    -0.025 N 
ATOM     27  H53 UNL     1      19.862  39.079  -6.986  1.00  0.00     0.278 HD
ATOM     28  H52 UNL     1      19.259  38.215  -8.135  1.00  0.00     0.278 HD
ATOM     29  H51 UNL     1      19.350  39.873  -8.371  1.00  0.00     0.278 HD
ENDBRANCH   5  26
BRANCH   9  30
HETATM   30  N7  UNL     1      17.772  38.382  -3.551  1.00  0.00    -0.041 N 
ATOM     31  H73 UNL     1      18.580  38.986  -3.405  1.00  0.00     0.277 HD
ATOM     32  H72 UNL     1      17.080  38.920  -3.029  1.00  0.00     0.277 HD
ATOM     33  H71 UNL     1      17.915  37.457  -3.144  1.00  0.00     0.277 HD
ENDBRANCH   9  30
TORSDOF 7
ENDMDL
MODEL 2
REMARK VINA RESULT: -7.065986771      1.699      7.691
REMARK  7 active torsions:
REMARK  status: ('A' for Active; 'I' for Inactive)
REMARK    1  A    between atoms: C1_4  and  N2_5 
REMARK    2  A    between atoms: C1_4  and  C7_16 
REMARK    3  A    between atoms: N2_5  and  C2_7 
REMARK    4  A    between atoms: C2_7  and  C3_8 
REMARK    5  A    between atoms: C3_8  and  C4_9 
REMARK    6  A    between atoms: C8_20  and  N5_21 
REMARK    7  A    between atoms: C9_28  and  N7_29 
ROOT
HETATM    1  C7  UNL     1      14.388  33.372  -7.962  1.00  0.00     0.321 C 
HETATM    2  N4  UNL     1      13.473  33.140  -9.084  1.00  0.00    -0.001 N 
ATOM      3  H41 UNL     1      13.995  32.907  -9.929  1.00  0.00     0.283 HD
ATOM      4  H42 UNL     1      13.043  34.015  -9.382  1.00  0.00     0.283 HD
HETATM    5  C8  UNL     1      12.476  32.157  -8.826  1.00  0.00     0.582 C 
HETATM    6  N6  UNL     1      12.929  30.792  -8.912  1.00  0.00     0.017 N 
ATOM      7  H61 UNL     1      12.511  30.324  -9.716  1.00  0.00     0.285 HD
ATOM      8  H62 UNL     1      12.527  30.231  -8.161  1.00  0.00     0.285 HD
HETATM    9  C9  UNL     1      14.356  30.657  -8.935  1.00  0.00     0.449 C 
HETATM   10  S2  UNL     1      14.975  31.678  -7.541  1.00  0.00    -0.068 SA
ENDROOT
BRANCH   1  11
HETATM   11  C1  UNL     1      15.543  34.116  -8.457  1.00  0.00     0.112 C 
HETATM   12  N1  UNL     1      16.655  33.474  -8.745  1.00  0.00    -0.387 N 
ATOM     13  H12 UNL     1      17.462  33.994  -9.091  1.00  0.00     0.157 HD
ATOM     14  H11 UNL     1      16.606  32.467  -8.592  1.00  0.00     0.157 HD
BRANCH  11  15
HETATM   15  N2  UNL     1      15.611  35.518  -8.671  1.00  0.00    -0.378 N 
ATOM     16  H2  UNL     1      15.085  35.975  -9.416  1.00  0.00     0.160 HD
BRANCH  15  17
HETATM   17  C2  UNL     1      16.467  36.261  -7.775  1.00  0.00     0.123 C 
BRANCH  17  18
HETATM   18  C3  UNL     1      17.604  36.941  -8.509  1.00  0.00     0.063 C 
BRANCH  18  19
HETATM   19  C4  UNL     1      18.585  37.412  -7.474  1.00  0.00     0.248 C 
HETATM   20  N3  UNL     1      18.887  38.810  -7.550  1.00  0.00    -0.061 N 
HETATM   21  C5  UNL     1      17.811  39.530  -6.901  1.00  0.00     0.243 C 
ATOM     22  H32 UNL     1      19.805  39.038  -7.167  1.00  0.00     0.278 HD
ATOM     23  H31 UNL     1      19.058  39.127  -8.505  1.00  0.00     0.278 HD
HETATM   24  C6  UNL     1      17.740  39.044  -5.458  1.00  0.00     0.103 C 
HETATM   25  S1  UNL     1      17.943  37.243  -5.787  1.00  0.00    -0.135 SA
ENDBRANCH  18  19
ENDBRANCH  17  18
ENDBRANCH  15  17
ENDBRANCH  11  15
ENDBRANCH   1  11
BRANCH   5  26
HETATM   26  N5  UNL     1      11.783  32.346  -7.571  1.00  0.00    -0.025 N 
ATOM     27  H53 UNL     1      12.358  32.026  -6.791  1.00  0.00     0.278 HD
ATOM     28  H52 UNL     1      11.718  33.337  -7.341  1.00  0.00     0.278 HD
ATOM     29  H51 UNL     1      10.862  31.909  -7.541  1.00  0.00     0.278 HD
ENDBRANCH   5  26
BRANCH   9  30
HETATM   30  N7  UNL     1      14.742  29.289  -8.829  1.00  0.00    -0.041 N 
ATOM     31  H73 UNL     1      13.945  28.688  -8.617  1.00  0.00     0.277 HD
ATOM     32  H72 UNL     1      14.993  28.898  -9.737  1.00  0.00     0.277 HD
ATOM     33  H71 UNL     1      15.493  29.173  -8.148  1.00  0.00     0.277 HD
ENDBRANCH   9  30
TORSDOF 7
ENDMDL
MODEL 3
REMARK VINA RESULT: -6.986479124      2.118      7.339
REMARK  7 active torsions:
REMARK  status: ('A' for Active; 'I' for Inactive)
REMARK    1  A    between atoms: C1_4  and  N2_5 
REMARK    2  A    between atoms: C1_4  and  C7_16 
REMARK    3  A    between atoms: N2_5  and  C2_7 
REMARK    4  A    between atoms: C2_7  and  C3_8 
REMARK    5  A    between atoms: C3_8  and  C4_9 
REMARK    6  A    between atoms: C8_20  and  N5_21 
REMARK    7  A    between atoms: C9_28  and  N7_29 
ROOT
HETATM    1  C7  UNL     1      16.221  33.115  -8.875  1.00  0.00     0.321 C 
HETATM    2  N4  UNL     1      15.811  32.932  -7.479  1.00  0.00    -0.001 N 
ATOM      3  H41 UNL     1      15.059  33.578  -7.240  1.00  0.00     0.283 HD
ATOM      4  H42 UNL     1      16.536  33.268  -6.847  1.00  0.00     0.283 HD
HETATM    5  C8  UNL     1      15.445  31.596  -7.152  1.00  0.00     0.582 C 
HETATM    6  N6  UNL     1      14.131  31.199  -7.590  1.00  0.00     0.017 N 
ATOM      7  H61 UNL     1      13.511  31.063  -6.792  1.00  0.00     0.285 HD
ATOM      8  H62 UNL     1      14.147  30.247  -7.958  1.00  0.00     0.285 HD
HETATM    9  C9  UNL     1      13.543  32.097  -8.540  1.00  0.00     0.449 C 
HETATM   10  S2  UNL     1      14.825  32.376  -9.823  1.00  0.00    -0.068 SA
ENDROOT
BRANCH   1  11
HETATM   11  C1  UNL     1      16.229  34.546  -9.169  1.00  0.00     0.112 C 
HETATM   12  N1  UNL     1      15.384  35.342  -8.548  1.00  0.00    -0.387 N 
ATOM     13  H12 UNL     1      15.390  36.341  -8.752  1.00  0.00     0.157 HD
ATOM     14  H11 UNL     1      14.773  34.865  -7.885  1.00  0.00     0.157 HD
BRANCH  11  15
HETATM   15  N2  UNL     1      17.080  35.211 -10.091  1.00  0.00    -0.378 N 
ATOM     16  H2  UNL     1      16.844  35.290 -11.080  1.00  0.00     0.160 HD
BRANCH  15  17
HETATM   17  C2  UNL     1      18.298  35.767  -9.550  1.00  0.00     0.123 C 
BRANCH  17  18
HETATM   18  C3  UNL     1      18.114  37.200  -9.095  1.00  0.00     0.063 C 
BRANCH  18  19
HETATM   19  C4  UNL     1      18.836  37.349  -7.786  1.00  0.00     0.248 C 
HETATM   20  N3  UNL     1      19.265  38.686  -7.505  1.00  0.00    -0.061 N 
HETATM   21  C5  UNL     1      18.123  39.417  -6.993  1.00  0.00     0.243 C 
ATOM     22  H32 UNL     1      20.070  38.720  -6.880  1.00  0.00     0.278 HD
ATOM     23  H31 UNL     1      19.699  39.141  -8.309  1.00  0.00     0.278 HD
HETATM   24  C6  UNL     1      17.647  38.700  -5.736  1.00  0.00     0.103 C 
HETATM   25  S1  UNL     1      17.774  36.974  -6.366  1.00  0.00    -0.135 SA
ENDBRANCH  18  19
ENDBRANCH  17  18
ENDBRANCH  15  17
ENDBRANCH  11  15
ENDBRANCH   1  11
BRANCH   5  26
HETATM   26  N5  UNL     1      16.406  30.606  -7.586  1.00  0.00    -0.025 N 
ATOM     27  H53 UNL     1      16.247  30.353  -8.562  1.00  0.00     0.278 HD
ATOM     28  H52 UNL     1      17.336  31.017  -7.666  1.00  0.00     0.278 HD
ATOM     29  H51 UNL     1      16.431  29.773  -6.999  1.00  0.00     0.278 HD
ENDBRANCH   5  26
BRANCH   9  30
HETATM   30  N7  UNL     1      12.337  31.558  -9.075  1.00  0.00    -0.041 N 
ATOM     31  H73 UNL     1      12.509  30.703  -9.605  1.00  0.00     0.277 HD
ATOM     32  H72 UNL     1      11.742  31.169  -8.343  1.00  0.00     0.277 HD
ATOM     33  H71 UNL     1      11.842  32.254  -9.633  1.00  0.00     0.277 HD
ENDBRANCH   9  30
TORSDOF 7
ENDMDL
MODEL 4
REMARK VINA RESULT: -6.875162700      1.726      2.568
REMARK  7 active torsions:
REMARK  status: ('A' for Active; 'I' for Inactive)
REMARK    1  A    between atoms: C1_4  and  N2_5 
REMARK    2  A    between atoms: C1_4  and  C7_16 
REMARK    3  A    between atoms: N2_5  and  C2_7 
REMARK    4  A    between atoms: C2_7  and  C3_8 
REMARK    5  A    between atoms: C3_8  and  C4_9 
REMARK    6  A    between atoms: C8_20  and  N5_21 
REMARK    7  A    between atoms: C9_28  and  N7_29 
ROOT
HETATM    1  C7  UNL     1      16.531  36.709  -7.974  1.00  0.00     0.321 C 
HETATM    2  N4  UNL     1      17.396  36.980  -6.821  1.00  0.00    -0.001 N 
ATOM      3  H41 UNL     1      18.003  36.181  -6.634  1.00  0.00     0.283 HD
ATOM      4  H42 UNL     1      16.851  36.988  -5.960  1.00  0.00     0.283 HD
HETATM    5  C8  UNL     1      18.162  38.173  -6.938  1.00  0.00     0.582 C 
HETATM    6  N6  UNL     1      19.323  38.072  -7.786  1.00  0.00     0.017 N 
ATOM      7  H61 UNL     1      20.178  38.137  -7.234  1.00  0.00     0.285 HD
ATOM      8  H62 UNL     1      19.425  38.910  -8.358  1.00  0.00     0.285 HD
HETATM    9  C9  UNL     1      19.339  36.896  -8.605  1.00  0.00     0.449 C 
HETATM   10  S2  UNL     1      17.688  36.821  -9.403  1.00  0.00    -0.068 SA
ENDROOT
BRANCH   1  11
HETATM   11  C1  UNL     1      16.080  35.322  -7.895  1.00  0.00     0.112 C 
HETATM   12  N1  UNL     1      16.140  34.683  -6.747  1.00  0.00    -0.387 N 
ATOM     13  H12 UNL     1      15.824  33.714  -6.692  1.00  0.00     0.157 HD
ATOM     14  H11 UNL     1      16.511  35.241  -5.978  1.00  0.00     0.157 HD
BRANCH  11  15
HETATM   15  N2  UNL     1      15.562  34.545  -8.965  1.00  0.00    -0.378 N 
ATOM     16  H2  UNL     1      14.865  34.915  -9.611  1.00  0.00     0.160 HD
BRANCH  15  17
HETATM   17  C2  UNL     1      16.076  33.200  -9.086  1.00  0.00     0.123 C 
BRANCH  17  18
HETATM   18  C3  UNL     1      15.092  32.275  -9.770  1.00  0.00     0.063 C 
BRANCH  18  19
HETATM   19  C4  UNL     1      14.339  31.548  -8.693  1.00  0.00     0.248 C 
HETATM   20  N3  UNL     1      13.912  30.233  -9.066  1.00  0.00    -0.061 N 
HETATM   21  C5  UNL     1      15.045  29.342  -8.918  1.00  0.00     0.243 C 
ATOM     22  H32 UNL     1      13.091  29.921  -8.546  1.00  0.00     0.278 HD
ATOM     23  H31 UNL     1      13.501  30.200  -9.999  1.00  0.00     0.278 HD
HETATM   24  C6  UNL     1      15.486  29.401  -7.460  1.00  0.00     0.103 C 
HETATM   25  S1  UNL     1      15.364  31.225  -7.233  1.00  0.00    -0.135 SA
ENDBRANCH  18  19
ENDBRANCH  17  18
ENDBRANCH  15  17
ENDBRANCH  11  15
ENDBRANCH   1  11
BRANCH   5  26
HETATM   26  N5  UNL     1      17.387  39.327  -7.337  1.00  0.00    -0.025 N 
ATOM     27  H53 UNL     1      16.449  39.048  -7.626  1.00  0.00     0.278 HD
ATOM     28  H52 UNL     1      17.152  39.900  -6.527  1.00  0.00     0.278 HD
ATOM     29  H51 UNL     1      17.832  39.892  -8.060  1.00  0.00     0.278 HD
ENDBRANCH   5  26
BRANCH   9  30
HETATM   30  N7  UNL     1      20.405  36.946  -9.550  1.00  0.00    -0.041 N 
ATOM     31  H73 UNL     1      20.855  37.861  -9.562  1.00  0.00     0.277 HD
ATOM     32  H72 UNL     1      21.202  36.386  -9.247  1.00  0.00     0.277 HD
ATOM     33  H71 UNL     1      20.083  36.672 -10.479  1.00  0.00     0.277 HD
ENDBRANCH   9  30
TORSDOF 7
ENDMDL
MODEL 5
REMARK VINA RESULT: -6.867475251      1.852      7.694
REMARK  7 active torsions:
REMARK  status: ('A' for Active; 'I' for Inactive)
REMARK    1  A    between atoms: C1_4  and  N2_5 
REMARK    2  A    between atoms: C1_4  and  C7_16 
REMARK    3  A    between atoms: N2_5  and  C2_7 
REMARK    4  A    between atoms: C2_7  and  C3_8 
REMARK    5  A    between atoms: C3_8  and  C4_9 
REMARK    6  A    between atoms: C8_20  and  N5_21 
REMARK    7  A    between atoms: C9_28  and  N7_29 
ROOT
HETATM    1  C7  UNL     1      16.002  32.575  -8.965  1.00  0.00     0.321 C 
HETATM    2  N4  UNL     1      15.790  31.604  -7.887  1.00  0.00    -0.001 N 
ATOM      3  H41 UNL     1      15.234  32.016  -7.138  1.00  0.00     0.283 HD
ATOM      4  H42 UNL     1      16.660  31.435  -7.383  1.00  0.00     0.283 HD
HETATM    5  C8  UNL     1      15.216  30.375  -8.317  1.00  0.00     0.582 C 
HETATM    6  N6  UNL     1      13.796  30.416  -8.558  1.00  0.00     0.017 N 
ATOM      7  H61 UNL     1      13.297  29.862  -7.863  1.00  0.00     0.285 HD
ATOM      8  H62 UNL     1      13.559  29.889  -9.399  1.00  0.00     0.285 HD
HETATM    9  C9  UNL     1      13.261  31.744  -8.625  1.00  0.00     0.449 C 
HETATM   10  S2  UNL     1      14.352  32.664  -9.779  1.00  0.00    -0.068 SA
ENDROOT
BRANCH   1  11
HETATM   11  C1  UNL     1      16.255  33.883  -8.364  1.00  0.00     0.112 C 
HETATM   12  N1  UNL     1      15.957  34.085  -7.098  1.00  0.00    -0.387 N 
ATOM     13  H12 UNL     1      16.134  34.997  -6.678  1.00  0.00     0.157 HD
ATOM     14  H11 UNL     1      15.560  33.271  -6.628  1.00  0.00     0.157 HD
BRANCH  11  15
HETATM   15  N2  UNL     1      16.808  35.015  -9.017  1.00  0.00    -0.378 N 
ATOM     16  H2  UNL     1      17.197  34.957  -9.959  1.00  0.00     0.160 HD
BRANCH  15  17
HETATM   17  C2  UNL     1      16.791  36.254  -8.274  1.00  0.00     0.123 C 
BRANCH  17  18
HETATM   18  C3  UNL     1      17.841  37.227  -8.767  1.00  0.00     0.063 C 
BRANCH  18  19
HETATM   19  C4  UNL     1      18.720  37.566  -7.597  1.00  0.00     0.248 C 
HETATM   20  N3  UNL     1      18.960  38.968  -7.436  1.00  0.00    -0.061 N 
HETATM   21  C5  UNL     1      17.806  39.541  -6.774  1.00  0.00     0.243 C 
ATOM     22  H32 UNL     1      19.835  39.166  -6.950  1.00  0.00     0.278 HD
ATOM     23  H31 UNL     1      19.186  39.436  -8.315  1.00  0.00     0.278 HD
HETATM   24  C6  UNL     1      17.652  38.836  -5.431  1.00  0.00     0.103 C 
HETATM   25  S1  UNL     1      17.963  37.116  -6.012  1.00  0.00    -0.135 SA
ENDBRANCH  18  19
ENDBRANCH  17  18
ENDBRANCH  15  17
ENDBRANCH  11  15
ENDBRANCH   1  11
BRANCH   5  26
HETATM   26  N5  UNL     1      15.873  29.797  -9.468  1.00  0.00    -0.025 N 
ATOM     27  H53 UNL     1      15.253  29.804 -10.278  1.00  0.00     0.278 HD
ATOM     28  H52 UNL     1      16.609  30.414  -9.811  1.00  0.00     0.278 HD
ATOM     29  H51 UNL     1      16.239  28.859  -9.305  1.00  0.00     0.278 HD
ENDBRANCH   5  26
BRANCH   9  30
HETATM   30  N7  UNL     1      11.900  31.725  -9.051  1.00  0.00    -0.041 N 
ATOM     31  H73 UNL     1      11.290  31.315  -8.344  1.00  0.00     0.277 HD
ATOM     32  H72 UNL     1      11.500  32.664  -9.074  1.00  0.00     0.277 HD
ATOM     33  H71 UNL     1      11.805  31.254  -9.951  1.00  0.00     0.277 HD
ENDBRANCH   9  30
TORSDOF 7
ENDMDL
