MODEL 1
REMARK VINA RESULT: -8.047924053      0.000      0.000
REMARK  8 active torsions:
REMARK  status: ('A' for Active; 'I' for Inactive)
REMARK    1  A    between atoms: O1_3  and  N2_4 
REMARK    2  A    between atoms: N2_4  and  C2_6 
REMARK    3  A    between atoms: C2_6  and  O2_7 
REMARK    4  A    between atoms: C2_6  and  O3_9 
REMARK    5  A    between atoms: O3_9  and  C3_10 
REMARK    6  A    between atoms: C4_11  and  N3_12 
REMARK    7  A    between atoms: C8_18  and  N5_19 
REMARK    8  A    between atoms: C9_24  and  N7_25 
ROOT
HETATM    1  N1  UNL     1      15.861  29.875  -6.325  1.00  0.00    -0.162 NA
HETATM    2  C1  UNL     1      15.500  29.919  -7.419  1.00  0.00     0.252 C 
HETATM    3  O1  UNL     1      15.056  29.975  -8.693  1.00  0.00    -0.160 OA
ENDROOT
BRANCH   3   4
HETATM    4  N2  UNL     1      15.800  30.244  -9.789  1.00  0.00    -0.232 N 
ATOM      5  H2  UNL     1      15.816  29.629 -10.603  1.00  0.00     0.194 HD
BRANCH   4   6
HETATM    6  C2  UNL     1      16.572  31.461  -9.727  1.00  0.00     0.395 C 
BRANCH   6   7
HETATM    7  O2  UNL     1      17.741  31.289 -10.502  1.00  0.00    -0.353 OA
ATOM      8  H2  UNL     1      18.496  31.435  -9.944  1.00  0.00     0.214 HD
ENDBRANCH   6   7
BRANCH   6   9
HETATM    9  O3  UNL     1      15.919  32.596 -10.230  1.00  0.00    -0.295 OA
BRANCH   9  10
HETATM   10  C3  UNL     1      15.210  33.508  -9.459  1.00  0.00     0.147 A 
HETATM   11  C4  UNL     1      15.609  34.716  -9.000  1.00  0.00     0.140 A 
HETATM   12  N4  UNL     1      14.550  35.221  -8.291  1.00  0.00    -0.335 N 
HETATM   13  C7  UNL     1      13.519  34.362  -8.301  1.00  0.00     0.109 A 
ATOM     14  H4  UNL     1      14.546  36.126  -7.820  1.00  0.00     0.168 HD
HETATM   15  C8  UNL     1      12.253  34.411  -7.741  1.00  0.00     0.144 A 
HETATM   16  C10 UNL     1      13.894  33.265  -9.029  1.00  0.00     0.117 A 
HETATM   17  N6  UNL     1      11.420  33.394  -7.919  1.00  0.00    -0.175 N 
HETATM   18  C9  UNL     1      11.786  32.309  -8.636  1.00  0.00     0.678 A 
ATOM     19  H6  UNL     1      10.488  33.432  -7.507  1.00  0.00     0.186 HD
HETATM   20  N8  UNL     1      13.024  32.260  -9.183  1.00  0.00    -0.187 N 
ATOM     21  H8  UNL     1      13.299  31.441  -9.725  1.00  0.00     0.184 HD
BRANCH  11  22
HETATM   22  N3  UNL     1      16.843  35.390  -9.176  1.00  0.00    -0.362 N 
HETATM   23  C5  UNL     1      17.848  36.437  -8.787  1.00  0.00     0.144 A 
HETATM   24  C6  UNL     1      18.087  35.563  -9.939  1.00  0.00     0.144 A 
ENDBRANCH  11  22
BRANCH  15  25
HETATM   25  N5  UNL     1      11.918  35.460  -7.056  1.00  0.00    -0.383 N 
ATOM     26  H52 UNL     1      12.448  35.763  -6.239  1.00  0.00     0.157 HD
ATOM     27  H51 UNL     1      11.097  35.992  -7.348  1.00  0.00     0.157 HD
ENDBRANCH  15  25
BRANCH  18  28
HETATM   28  N7  UNL     1      10.975  31.319  -8.808  1.00  0.00    -0.234 N 
ATOM     29  H72 UNL     1      10.398  31.001  -8.029  1.00  0.00     0.174 HD
ATOM     30  H71 UNL     1      10.901  30.849  -9.710  1.00  0.00     0.174 HD
ENDBRANCH  18  28
ENDBRANCH   9  10
ENDBRANCH   6   9
ENDBRANCH   4   6
ENDBRANCH   3   4
TORSDOF 8
ENDMDL
MODEL 2
REMARK VINA RESULT: -7.760985793      2.843      5.063
REMARK  8 active torsions:
REMARK  status: ('A' for Active; 'I' for Inactive)
REMARK    1  A    between atoms: O1_3  and  N2_4 
REMARK    2  A    between atoms: N2_4  and  C2_6 
REMARK    3  A    between atoms: C2_6  and  O2_7 
REMARK    4  A    between atoms: C2_6  and  O3_9 
REMARK    5  A    between atoms: O3_9  and  C3_10 
REMARK    6  A    between atoms: C4_11  and  N3_12 
REMARK    7  A    between atoms: C8_18  and  N5_19 
REMARK    8  A    between atoms: C9_24  and  N7_25 
ROOT
HETATM    1  N1  UNL     1      19.496  39.211  -7.411  1.00  0.00    -0.162 NA
HETATM    2  C1  UNL     1      18.363  39.032  -7.306  1.00  0.00     0.252 C 
HETATM    3  O1  UNL     1      17.030  38.837  -7.201  1.00  0.00    -0.160 OA
ENDROOT
BRANCH   3   4
HETATM    4  N2  UNL     1      16.420  37.759  -6.661  1.00  0.00    -0.232 N 
ATOM      5  H2  UNL     1      15.776  37.833  -5.872  1.00  0.00     0.194 HD
BRANCH   4   6
HETATM    6  C2  UNL     1      16.741  36.495  -7.277  1.00  0.00     0.395 C 
BRANCH   6   7
HETATM    7  O2  UNL     1      16.798  35.507  -6.268  1.00  0.00    -0.353 OA
ATOM      8  H2  UNL     1      17.557  34.957  -6.428  1.00  0.00     0.214 HD
ENDBRANCH   6   7
BRANCH   6   9
HETATM    9  O3  UNL     1      15.807  36.049  -8.224  1.00  0.00    -0.295 OA
BRANCH   9  10
HETATM   10  C3  UNL     1      15.805  34.785  -8.799  1.00  0.00     0.147 A 
HETATM   11  C4  UNL     1      16.678  34.260  -9.688  1.00  0.00     0.140 A 
HETATM   12  N4  UNL     1      16.239  32.986  -9.944  1.00  0.00    -0.335 N 
HETATM   13  C7  UNL     1      15.129  32.716  -9.242  1.00  0.00     0.109 A 
ATOM     14  H4  UNL     1      16.696  32.333 -10.581  1.00  0.00     0.168 HD
HETATM   15  C8  UNL     1      14.324  31.593  -9.156  1.00  0.00     0.144 A 
HETATM   16  C10 UNL     1      14.819  33.827  -8.504  1.00  0.00     0.117 A 
HETATM   17  N6  UNL     1      13.263  31.608  -8.359  1.00  0.00    -0.175 N 
HETATM   18  C9  UNL     1      12.953  32.702  -7.629  1.00  0.00     0.678 A 
ATOM     19  H6  UNL     1      12.672  30.780  -8.296  1.00  0.00     0.186 HD
HETATM   20  N8  UNL     1      13.740  33.801  -7.713  1.00  0.00    -0.187 N 
ATOM     21  H8  UNL     1      13.505  34.626  -7.161  1.00  0.00     0.184 HD
BRANCH  11  22
HETATM   22  N3  UNL     1      17.830  34.838 -10.275  1.00  0.00    -0.362 N 
HETATM   23  C5  UNL     1      18.959  34.828 -11.269  1.00  0.00     0.144 A 
HETATM   24  C6  UNL     1      18.818  35.926 -10.308  1.00  0.00     0.144 A 
ENDBRANCH  11  22
BRANCH  15  25
HETATM   25  N5  UNL     1      14.636  30.551  -9.863  1.00  0.00    -0.383 N 
ATOM     26  H52 UNL     1      15.565  30.132  -9.826  1.00  0.00     0.157 HD
ATOM     27  H51 UNL     1      13.925  30.145 -10.473  1.00  0.00     0.157 HD
ENDBRANCH  15  25
BRANCH  18  28
HETATM   28  N7  UNL     1      11.920  32.715  -6.855  1.00  0.00    -0.234 N 
ATOM     29  H72 UNL     1      11.497  31.834  -6.566  1.00  0.00     0.174 HD
ATOM     30  H71 UNL     1      11.520  33.594  -6.526  1.00  0.00     0.174 HD
ENDBRANCH  18  28
ENDBRANCH   9  10
ENDBRANCH   6   9
ENDBRANCH   4   6
ENDBRANCH   3   4
TORSDOF 8
ENDMDL
MODEL 3
REMARK VINA RESULT: -7.589960526      2.019      5.186
REMARK  8 active torsions:
REMARK  status: ('A' for Active; 'I' for Inactive)
REMARK    1  A    between atoms: O1_3  and  N2_4 
REMARK    2  A    between atoms: N2_4  and  C2_6 
REMARK    3  A    between atoms: C2_6  and  O2_7 
REMARK    4  A    between atoms: C2_6  and  O3_9 
REMARK    5  A    between atoms: O3_9  and  C3_10 
REMARK    6  A    between atoms: C4_11  and  N3_12 
REMARK    7  A    between atoms: C8_18  and  N5_19 
REMARK    8  A    between atoms: C9_24  and  N7_25 
ROOT
HETATM    1  N1  UNL     1      14.615  29.743  -7.578  1.00  0.00    -0.162 NA
HETATM    2  C1  UNL     1      14.644  30.210  -8.631  1.00  0.00     0.252 C 
HETATM    3  O1  UNL     1      14.668  30.739  -9.873  1.00  0.00    -0.160 OA
ENDROOT
BRANCH   3   4
HETATM    4  N2  UNL     1      14.812  32.047 -10.183  1.00  0.00    -0.232 N 
ATOM      5  H2  UNL     1      14.122  32.557 -10.736  1.00  0.00     0.194 HD
BRANCH   4   6
HETATM    6  C2  UNL     1      16.010  32.673  -9.678  1.00  0.00     0.395 C 
BRANCH   6   7
HETATM    7  O2  UNL     1      17.125  32.081 -10.313  1.00  0.00    -0.353 OA
ATOM      8  H2  UNL     1      17.107  32.316 -11.233  1.00  0.00     0.214 HD
ENDBRANCH   6   7
BRANCH   6   9
HETATM    9  O3  UNL     1      16.097  34.053  -9.916  1.00  0.00    -0.295 OA
BRANCH   9  10
HETATM   10  C3  UNL     1      16.298  35.014  -8.934  1.00  0.00     0.147 A 
HETATM   11  C4  UNL     1      15.485  35.356  -7.909  1.00  0.00     0.140 A 
HETATM   12  N4  UNL     1      16.134  36.354  -7.228  1.00  0.00    -0.335 N 
HETATM   13  C7  UNL     1      17.314  36.632  -7.802  1.00  0.00     0.109 A 
ATOM     14  H4  UNL     1      15.769  36.821  -6.397  1.00  0.00     0.168 HD
HETATM   15  C8  UNL     1      18.315  37.539  -7.497  1.00  0.00     0.144 A 
HETATM   16  C10 UNL     1      17.457  35.807  -8.885  1.00  0.00     0.117 A 
HETATM   17  N6  UNL     1      19.400  37.595  -8.258  1.00  0.00    -0.175 N 
HETATM   18  C9  UNL     1      19.546  36.784  -9.328  1.00  0.00     0.678 A 
ATOM     19  H6  UNL     1      20.136  38.263  -8.031  1.00  0.00     0.186 HD
HETATM   20  N8  UNL     1      18.567  35.897  -9.627  1.00  0.00    -0.187 N 
ATOM     21  H8  UNL     1      18.679  35.284 -10.435  1.00  0.00     0.184 HD
BRANCH  11  22
HETATM   22  N3  UNL     1      14.218  34.838  -7.545  1.00  0.00    -0.362 N 
HETATM   23  C5  UNL     1      12.774  35.012  -7.165  1.00  0.00     0.144 A 
HETATM   24  C6  UNL     1      13.372  33.676  -7.237  1.00  0.00     0.144 A 
ENDBRANCH  11  22
BRANCH  15  25
HETATM   25  N5  UNL     1      18.159  38.311  -6.465  1.00  0.00    -0.383 N 
ATOM     26  H52 UNL     1      18.435  38.020  -5.528  1.00  0.00     0.157 HD
ATOM     27  H51 UNL     1      17.746  39.233  -6.605  1.00  0.00     0.157 HD
ENDBRANCH  15  25
BRANCH  18  28
HETATM   28  N7  UNL     1      20.603  36.840 -10.068  1.00  0.00    -0.234 N 
ATOM     29  H72 UNL     1      21.222  37.648  -9.999  1.00  0.00     0.174 HD
ATOM     30  H71 UNL     1      20.829  36.090 -10.721  1.00  0.00     0.174 HD
ENDBRANCH  18  28
ENDBRANCH   9  10
ENDBRANCH   6   9
ENDBRANCH   4   6
ENDBRANCH   3   4
TORSDOF 8
ENDMDL
MODEL 4
REMARK VINA RESULT: -7.586248574      1.418      4.632
REMARK  8 active torsions:
REMARK  status: ('A' for Active; 'I' for Inactive)
REMARK    1  A    between atoms: O1_3  and  N2_4 
REMARK    2  A    between atoms: N2_4  and  C2_6 
REMARK    3  A    between atoms: C2_6  and  O2_7 
REMARK    4  A    between atoms: C2_6  and  O3_9 
REMARK    5  A    between atoms: O3_9  and  C3_10 
REMARK    6  A    between atoms: C4_11  and  N3_12 
REMARK    7  A    between atoms: C8_18  and  N5_19 
REMARK    8  A    between atoms: C9_24  and  N7_25 
ROOT
HETATM    1  N1  UNL     1      15.821  30.189  -6.295  1.00  0.00    -0.162 NA
HETATM    2  C1  UNL     1      15.455  30.098  -7.383  1.00  0.00     0.252 C 
HETATM    3  O1  UNL     1      15.003  29.992  -8.652  1.00  0.00    -0.160 OA
ENDROOT
BRANCH   3   4
HETATM    4  N2  UNL     1      15.696  30.289  -9.775  1.00  0.00    -0.232 N 
ATOM      5  H2  UNL     1      15.621  29.731 -10.626  1.00  0.00     0.194 HD
BRANCH   4   6
HETATM    6  C2  UNL     1      16.547  31.450  -9.685  1.00  0.00     0.395 C 
BRANCH   6   7
HETATM    7  O2  UNL     1      17.685  31.234 -10.495  1.00  0.00    -0.353 OA
ATOM      8  H2  UNL     1      17.796  31.986 -11.065  1.00  0.00     0.214 HD
ENDBRANCH   6   7
BRANCH   6   9
HETATM    9  O3  UNL     1      15.959  32.644 -10.128  1.00  0.00    -0.295 OA
BRANCH   9  10
HETATM   10  C3  UNL     1      15.884  33.813  -9.381  1.00  0.00     0.147 A 
HETATM   11  C4  UNL     1      14.903  34.217  -8.543  1.00  0.00     0.140 A 
HETATM   12  N4  UNL     1      15.300  35.436  -8.054  1.00  0.00    -0.335 N 
HETATM   13  C7  UNL     1      16.488  35.789  -8.567  1.00  0.00     0.109 A 
ATOM     14  H4  UNL     1      14.764  35.997  -7.392  1.00  0.00     0.168 HD
HETATM   15  C8  UNL     1      17.292  36.902  -8.389  1.00  0.00     0.144 A 
HETATM   16  C10 UNL     1      16.894  34.790  -9.411  1.00  0.00     0.117 A 
HETATM   17  N6  UNL     1      18.446  36.986  -9.040  1.00  0.00    -0.175 N 
HETATM   18  C9  UNL     1      18.850  36.003  -9.874  1.00  0.00     0.678 A 
ATOM     19  H6  UNL     1      19.037  37.805  -8.907  1.00  0.00     0.186 HD
HETATM   20  N8  UNL     1      18.064  34.914 -10.048  1.00  0.00    -0.187 N 
ATOM     21  H8  UNL     1      18.370  34.173 -10.678  1.00  0.00     0.184 HD
BRANCH  11  22
HETATM   22  N3  UNL     1      13.693  33.573  -8.186  1.00  0.00    -0.362 N 
HETATM   23  C5  UNL     1      12.592  33.266  -7.209  1.00  0.00     0.144 A 
HETATM   24  C6  UNL     1      12.594  32.665  -8.546  1.00  0.00     0.144 A 
ENDBRANCH  11  22
BRANCH  15  25
HETATM   25  N5  UNL     1      16.889  37.836  -7.584  1.00  0.00    -0.383 N 
ATOM     26  H52 UNL     1      16.200  37.658  -6.854  1.00  0.00     0.157 HD
ATOM     27  H51 UNL     1      17.277  38.774  -7.692  1.00  0.00     0.157 HD
ENDBRANCH  15  25
BRANCH  18  28
HETATM   28  N7  UNL     1      19.973  36.086 -10.507  1.00  0.00    -0.234 N 
ATOM     29  H72 UNL     1      20.347  37.004 -10.749  1.00  0.00     0.174 HD
ATOM     30  H71 UNL     1      20.493  35.249 -10.769  1.00  0.00     0.174 HD
ENDBRANCH  18  28
ENDBRANCH   9  10
ENDBRANCH   6   9
ENDBRANCH   4   6
ENDBRANCH   3   4
TORSDOF 8
ENDMDL
MODEL 5
REMARK VINA RESULT: -7.568692954      2.440      4.088
REMARK  8 active torsions:
REMARK  status: ('A' for Active; 'I' for Inactive)
REMARK    1  A    between atoms: O1_3  and  N2_4 
REMARK    2  A    between atoms: N2_4  and  C2_6 
REMARK    3  A    between atoms: C2_6  and  O2_7 
REMARK    4  A    between atoms: C2_6  and  O3_9 
REMARK    5  A    between atoms: O3_9  and  C3_10 
REMARK    6  A    between atoms: C4_11  and  N3_12 
REMARK    7  A    between atoms: C8_18  and  N5_19 
REMARK    8  A    between atoms: C9_24  and  N7_25 
ROOT
HETATM    1  N1  UNL     1      18.460  35.089 -14.622  1.00  0.00    -0.162 NA
HETATM    2  C1  UNL     1      18.804  35.045 -13.523  1.00  0.00     0.252 C 
HETATM    3  O1  UNL     1      19.215  35.014 -12.237  1.00  0.00    -0.160 OA
ENDROOT
BRANCH   3   4
HETATM    4  N2  UNL     1      18.730  34.214 -11.261  1.00  0.00    -0.232 N 
ATOM      5  H2  UNL     1      19.051  33.254 -11.131  1.00  0.00     0.194 HD
BRANCH   4   6
HETATM    6  C2  UNL     1      17.727  34.812 -10.414  1.00  0.00     0.395 C 
BRANCH   6   7
HETATM    7  O2  UNL     1      16.552  35.000 -11.177  1.00  0.00    -0.353 OA
ATOM      8  H2  UNL     1      16.797  35.355 -12.024  1.00  0.00     0.214 HD
ENDBRANCH   6   7
BRANCH   6   9
HETATM    9  O3  UNL     1      17.364  34.042  -9.300  1.00  0.00    -0.295 OA
BRANCH   9  10
HETATM   10  C3  UNL     1      16.204  34.222  -8.557  1.00  0.00     0.147 A 
HETATM   11  C4  UNL     1      15.838  35.287  -7.808  1.00  0.00     0.140 A 
HETATM   12  N4  UNL     1      14.612  34.975  -7.279  1.00  0.00    -0.335 N 
HETATM   13  C7  UNL     1      14.219  33.756  -7.678  1.00  0.00     0.109 A 
ATOM     14  H4  UNL     1      14.073  35.586  -6.665  1.00  0.00     0.168 HD
HETATM   15  C8  UNL     1      13.083  33.007  -7.422  1.00  0.00     0.144 A 
HETATM   16  C10 UNL     1      15.196  33.244  -8.489  1.00  0.00     0.117 A 
HETATM   17  N6  UNL     1      12.957  31.803  -7.965  1.00  0.00    -0.175 N 
HETATM   18  C9  UNL     1      13.919  31.294  -8.765  1.00  0.00     0.678 A 
ATOM     19  H6  UNL     1      12.119  31.253  -7.776  1.00  0.00     0.186 HD
HETATM   20  N8  UNL     1      15.030  32.026  -9.017  1.00  0.00    -0.187 N 
ATOM     21  H8  UNL     1      15.756  31.641  -9.621  1.00  0.00     0.184 HD
BRANCH  11  22
HETATM   22  N3  UNL     1      16.518  36.507  -7.574  1.00  0.00    -0.362 N 
HETATM   23  C5  UNL     1      16.950  37.633  -6.677  1.00  0.00     0.144 A 
HETATM   24  C6  UNL     1      17.320  37.624  -8.095  1.00  0.00     0.144 A 
ENDBRANCH  11  22
BRANCH  15  25
HETATM   25  N5  UNL     1      12.168  33.511  -6.652  1.00  0.00    -0.383 N 
ATOM     26  H52 UNL     1      11.843  33.029  -5.813  1.00  0.00     0.157 HD
ATOM     27  H51 UNL     1      11.766  34.415  -6.899  1.00  0.00     0.157 HD
ENDBRANCH  15  25
BRANCH  18  28
HETATM   28  N7  UNL     1      13.795  30.122  -9.293  1.00  0.00    -0.234 N 
ATOM     29  H72 UNL     1      14.249  29.322  -8.854  1.00  0.00     0.174 HD
ATOM     30  H71 UNL     1      13.250  29.983 -10.144  1.00  0.00     0.174 HD
ENDBRANCH  18  28
ENDBRANCH   9  10
ENDBRANCH   6   9
ENDBRANCH   4   6
ENDBRANCH   3   4
TORSDOF 8
ENDMDL
