MODEL 1
REMARK VINA RESULT: -7.961746929      0.000      0.000
REMARK  6 active torsions:
REMARK  status: ('A' for Active; 'I' for Inactive)
REMARK    1  A    between atoms: N1_2  and  C2_4 
REMARK    2  A    between atoms: C3_7  and  N3_8 
REMARK    3  A    between atoms: C4_13  and  N5_14 
REMARK    4  A    between atoms: C5_17  and  N6_18 
REMARK    5  A    between atoms: N7_20  and  N8_22 
REMARK       I    between atoms: N8_22  and  C7_24 
REMARK       I    between atoms: C7_24  and  N10_28 
REMARK    6  A    between atoms: N10_28  and  N11_30 
ROOT
HETATM    1  C2  UNL     1      18.098  35.505  -9.862  1.00  0.00     0.148 A 
HETATM    2  N2  UNL     1      18.832  36.637  -9.699  1.00  0.00    -0.175 N 
ATOM      3  H2  UNL     1      19.650  36.786 -10.290  1.00  0.00     0.186 HD
HETATM    4  C3  UNL     1      18.512  37.565  -8.780  1.00  0.00     0.679 A 
HETATM    5  N4  UNL     1      17.433  37.395  -7.978  1.00  0.00    -0.175 N 
ATOM      6  H4  UNL     1      17.198  38.105  -7.283  1.00  0.00     0.186 HD
HETATM    7  C4  UNL     1      16.671  36.295  -8.097  1.00  0.00     0.146 A 
HETATM    8  C5  UNL     1      17.000  35.334  -9.046  1.00  0.00     0.138 A 
ENDROOT
BRANCH   8   9
HETATM    9  N6  UNL     1      16.237  34.158  -9.217  1.00  0.00    -0.279 N 
HETATM   10  N7  UNL     1      16.231  33.170  -8.450  1.00  0.00    -0.226 N 
ATOM     11  H7  UNL     1      16.810  33.159  -7.610  1.00  0.00     0.209 HD
ATOM     12  H6  UNL     1      15.636  34.109 -10.040  1.00  0.00     0.189 HD
BRANCH  10  13
HETATM   13  N8  UNL     1      15.419  32.089  -8.768  1.00  0.00    -0.113 N 
HETATM   14  C6  UNL     1      13.998  32.228  -8.552  1.00  0.00     0.199 C 
HETATM   15  C7  UNL     1      15.901  30.869  -9.285  1.00  0.00     0.712 C 
HETATM   16  N9  UNL     1      16.874  30.890 -10.118  1.00  0.00    -0.232 N 
HETATM   17  N10 UNL     1      15.364  29.598  -8.934  1.00  0.00    -0.071 N 
ATOM     18  H92 UNL     1      17.259  31.800 -10.370  1.00  0.00     0.174 HD
ATOM     19  H91 UNL     1      17.223  30.007 -10.492  1.00  0.00     0.174 HD
ATOM     20  H10 UNL     1      14.917  29.020  -9.645  1.00  0.00     0.212 HD
BRANCH  17  21
HETATM   21  N11 UNL     1      15.449  29.142  -7.617  1.00  0.00    -0.024 N 
HETATM   22  O1  UNL     1      14.625  28.336  -7.147  1.00  0.00    -0.516 OA
HETATM   23  O2  UNL     1      16.479  29.611  -6.842  1.00  0.00    -0.516 OA
ENDBRANCH  17  21
ENDBRANCH  10  13
ENDBRANCH   8   9
BRANCH   1  24
HETATM   24  N1  UNL     1      18.475  34.555 -10.847  1.00  0.00    -0.378 N 
HETATM   25  C1  UNL     1      19.260  34.908 -12.002  1.00  0.00     0.147 C 
ATOM     26  H1  UNL     1      18.179  33.586 -10.732  1.00  0.00     0.160 HD
ENDBRANCH   1  24
BRANCH   7  27
HETATM   27  N5  UNL     1      15.627  36.086  -7.354  1.00  0.00    -0.383 N 
ATOM     28  H52 UNL     1      15.168  36.894  -6.935  1.00  0.00     0.157 HD
ATOM     29  H51 UNL     1      15.256  35.152  -7.180  1.00  0.00     0.157 HD
ENDBRANCH   7  27
BRANCH   4  30
HETATM   30  N3  UNL     1      19.231  38.645  -8.640  1.00  0.00    -0.234 N 
ATOM     31  H32 UNL     1      20.213  38.619  -8.916  1.00  0.00     0.174 HD
ATOM     32  H31 UNL     1      18.823  39.501  -8.263  1.00  0.00     0.174 HD
ENDBRANCH   4  30
TORSDOF 6
ENDMDL
MODEL 2
REMARK VINA RESULT: -7.172246207      1.777      2.043
REMARK  6 active torsions:
REMARK  status: ('A' for Active; 'I' for Inactive)
REMARK    1  A    between atoms: N1_2  and  C2_4 
REMARK    2  A    between atoms: C3_7  and  N3_8 
REMARK    3  A    between atoms: C4_13  and  N5_14 
REMARK    4  A    between atoms: C5_17  and  N6_18 
REMARK    5  A    between atoms: N7_20  and  N8_22 
REMARK       I    between atoms: N8_22  and  C7_24 
REMARK       I    between atoms: C7_24  and  N10_28 
REMARK    6  A    between atoms: N10_28  and  N11_30 
ROOT
HETATM    1  C2  UNL     1      18.244  35.528  -9.987  1.00  0.00     0.148 A 
HETATM    2  N2  UNL     1      18.928  36.698  -9.890  1.00  0.00    -0.175 N 
ATOM      3  H2  UNL     1      19.723  36.860 -10.508  1.00  0.00     0.186 HD
HETATM    4  C3  UNL     1      18.588  37.649  -9.001  1.00  0.00     0.679 A 
HETATM    5  N4  UNL     1      17.537  37.463  -8.165  1.00  0.00    -0.175 N 
ATOM      6  H4  UNL     1      17.287  38.189  -7.493  1.00  0.00     0.186 HD
HETATM    7  C4  UNL     1      16.825  36.325  -8.218  1.00  0.00     0.146 A 
HETATM    8  C5  UNL     1      17.175  35.341  -9.136  1.00  0.00     0.138 A 
ENDROOT
BRANCH   8   9
HETATM    9  N6  UNL     1      16.464  34.125  -9.239  1.00  0.00    -0.279 N 
HETATM   10  N7  UNL     1      16.622  33.120  -8.512  1.00  0.00    -0.226 N 
ATOM     11  H7  UNL     1      17.312  33.124  -7.761  1.00  0.00     0.209 HD
ATOM     12  H6  UNL     1      15.758  34.061  -9.973  1.00  0.00     0.189 HD
BRANCH  10  13
HETATM   13  N8  UNL     1      15.836  31.999  -8.750  1.00  0.00    -0.113 N 
HETATM   14  C6  UNL     1      15.667  31.575 -10.119  1.00  0.00     0.199 C 
HETATM   15  C7  UNL     1      15.196  31.258  -7.736  1.00  0.00     0.712 C 
HETATM   16  N9  UNL     1      15.800  31.087  -6.618  1.00  0.00    -0.232 N 
HETATM   17  N10 UNL     1      13.905  30.679  -7.879  1.00  0.00    -0.071 N 
ATOM     18  H92 UNL     1      16.726  31.502  -6.515  1.00  0.00     0.174 HD
ATOM     19  H91 UNL     1      15.337  30.551  -5.884  1.00  0.00     0.174 HD
ATOM     20  H10 UNL     1      13.794  29.665  -7.845  1.00  0.00     0.212 HD
BRANCH  17  21
HETATM   21  N11 UNL     1      12.788  31.496  -8.068  1.00  0.00    -0.024 N 
HETATM   22  O1  UNL     1      12.020  31.345  -9.036  1.00  0.00    -0.516 OA
HETATM   23  O2  UNL     1      12.556  32.485  -7.147  1.00  0.00    -0.516 OA
ENDBRANCH  17  21
ENDBRANCH  10  13
ENDBRANCH   8   9
BRANCH   1  24
HETATM   24  N1  UNL     1      18.641  34.556 -10.942  1.00  0.00    -0.378 N 
HETATM   25  C1  UNL     1      19.220  34.911 -12.212  1.00  0.00     0.147 C 
ATOM     26  H1  UNL     1      18.511  33.569 -10.720  1.00  0.00     0.160 HD
ENDBRANCH   1  24
BRANCH   7  27
HETATM   27  N5  UNL     1      15.811  36.100  -7.441  1.00  0.00    -0.383 N 
ATOM     28  H52 UNL     1      15.814  36.525  -6.514  1.00  0.00     0.157 HD
ATOM     29  H51 UNL     1      15.021  35.519  -7.724  1.00  0.00     0.157 HD
ENDBRANCH   7  27
BRANCH   4  30
HETATM   30  N3  UNL     1      19.258  38.765  -8.924  1.00  0.00    -0.234 N 
ATOM     31  H32 UNL     1      19.072  39.395  -8.143  1.00  0.00     0.174 HD
ATOM     32  H31 UNL     1      19.955  39.007  -9.628  1.00  0.00     0.174 HD
ENDBRANCH   4  30
TORSDOF 6
ENDMDL
MODEL 3
REMARK VINA RESULT: -7.072002184      1.523      2.822
REMARK  6 active torsions:
REMARK  status: ('A' for Active; 'I' for Inactive)
REMARK    1  A    between atoms: N1_2  and  C2_4 
REMARK    2  A    between atoms: C3_7  and  N3_8 
REMARK    3  A    between atoms: C4_13  and  N5_14 
REMARK    4  A    between atoms: C5_17  and  N6_18 
REMARK    5  A    between atoms: N7_20  and  N8_22 
REMARK       I    between atoms: N8_22  and  C7_24 
REMARK       I    between atoms: C7_24  and  N10_28 
REMARK    6  A    between atoms: N10_28  and  N11_30 
ROOT
HETATM    1  C2  UNL     1      18.329  36.576  -8.940  1.00  0.00     0.148 A 
HETATM    2  N2  UNL     1      19.464  37.220  -9.317  1.00  0.00    -0.175 N 
ATOM      3  H2  UNL     1      19.734  38.075  -8.831  1.00  0.00     0.186 HD
HETATM    4  C3  UNL     1      20.243  36.762 -10.315  1.00  0.00     0.679 A 
HETATM    5  N4  UNL     1      19.911  35.630 -10.981  1.00  0.00    -0.175 N 
ATOM      6  H4  UNL     1      20.507  35.291 -11.736  1.00  0.00     0.186 HD
HETATM    7  C4  UNL     1      18.799  34.953 -10.649  1.00  0.00     0.146 A 
HETATM    8  C5  UNL     1      17.993  35.424  -9.618  1.00  0.00     0.138 A 
ENDROOT
BRANCH   8   9
HETATM    9  N6  UNL     1      16.813  34.755  -9.225  1.00  0.00    -0.279 N 
HETATM   10  N7  UNL     1      16.758  33.704  -8.551  1.00  0.00    -0.226 N 
ATOM     11  H7  UNL     1      17.610  33.244  -8.230  1.00  0.00     0.209 HD
ATOM     12  H6  UNL     1      15.927  35.167  -9.516  1.00  0.00     0.189 HD
BRANCH  10  13
HETATM   13  N8  UNL     1      15.508  33.174  -8.249  1.00  0.00    -0.113 N 
HETATM   14  C6  UNL     1      14.813  33.704  -7.101  1.00  0.00     0.199 C 
HETATM   15  C7  UNL     1      14.886  32.153  -8.997  1.00  0.00     0.712 C 
HETATM   16  N9  UNL     1      15.021  32.148 -10.272  1.00  0.00    -0.232 N 
HETATM   17  N10 UNL     1      14.107  31.115  -8.415  1.00  0.00    -0.071 N 
ATOM     18  H92 UNL     1      15.579  32.893 -10.689  1.00  0.00     0.174 HD
ATOM     19  H91 UNL     1      14.570  31.410 -10.813  1.00  0.00     0.174 HD
ATOM     20  H10 UNL     1      13.113  31.041  -8.633  1.00  0.00     0.212 HD
BRANCH  17  21
HETATM   21  N11 UNL     1      14.700  30.198  -7.546  1.00  0.00    -0.024 N 
HETATM   22  O1  UNL     1      14.361  30.112  -6.350  1.00  0.00    -0.516 OA
HETATM   23  O2  UNL     1      15.682  29.383  -8.047  1.00  0.00    -0.516 OA
ENDBRANCH  17  21
ENDBRANCH  10  13
ENDBRANCH   8   9
BRANCH   1  24
HETATM   24  N1  UNL     1      17.541  37.098  -7.881  1.00  0.00    -0.378 N 
HETATM   25  C1  UNL     1      17.928  36.983  -6.498  1.00  0.00     0.147 C 
ATOM     26  H1  UNL     1      16.667  37.573  -8.108  1.00  0.00     0.160 HD
ENDBRANCH   1  24
BRANCH   7  27
HETATM   27  N5  UNL     1      18.439  33.864 -11.255  1.00  0.00    -0.383 N 
ATOM     28  H52 UNL     1      18.574  33.810 -12.264  1.00  0.00     0.157 HD
ATOM     29  H51 UNL     1      18.031  33.070 -10.761  1.00  0.00     0.157 HD
ENDBRANCH   7  27
BRANCH   4  30
HETATM   30  N3  UNL     1      21.330  37.396 -10.661  1.00  0.00    -0.234 N 
ATOM     31  H32 UNL     1      22.215  37.117 -10.238  1.00  0.00     0.174 HD
ATOM     32  H31 UNL     1      21.299  38.156 -11.341  1.00  0.00     0.174 HD
ENDBRANCH   4  30
TORSDOF 6
ENDMDL
MODEL 4
REMARK VINA RESULT: -7.028893972      1.550      2.947
REMARK  6 active torsions:
REMARK  status: ('A' for Active; 'I' for Inactive)
REMARK    1  A    between atoms: N1_2  and  C2_4 
REMARK    2  A    between atoms: C3_7  and  N3_8 
REMARK    3  A    between atoms: C4_13  and  N5_14 
REMARK    4  A    between atoms: C5_17  and  N6_18 
REMARK    5  A    between atoms: N7_20  and  N8_22 
REMARK       I    between atoms: N8_22  and  C7_24 
REMARK       I    between atoms: C7_24  and  N10_28 
REMARK    6  A    between atoms: N10_28  and  N11_30 
ROOT
HETATM    1  C2  UNL     1      17.262  36.638  -7.849  1.00  0.00     0.148 A 
HETATM    2  N2  UNL     1      18.188  37.570  -8.195  1.00  0.00    -0.175 N 
ATOM      3  H2  UNL     1      18.374  38.344  -7.556  1.00  0.00     0.186 HD
HETATM    4  C3  UNL     1      18.866  37.503  -9.355  1.00  0.00     0.679 A 
HETATM    5  N4  UNL     1      18.641  36.488 -10.224  1.00  0.00    -0.175 N 
ATOM      6  H4  UNL     1      19.159  36.445 -11.102  1.00  0.00     0.186 HD
HETATM    7  C4  UNL     1      17.736  35.538  -9.933  1.00  0.00     0.146 A 
HETATM    8  C5  UNL     1      17.034  35.606  -8.735  1.00  0.00     0.138 A 
ENDROOT
BRANCH   8   9
HETATM    9  N6  UNL     1      16.072  34.637  -8.374  1.00  0.00    -0.279 N 
HETATM   10  N7  UNL     1      14.884  34.604  -8.762  1.00  0.00    -0.226 N 
ATOM     11  H7  UNL     1      14.524  35.316  -9.398  1.00  0.00     0.209 HD
ATOM     12  H6  UNL     1      16.374  33.897  -7.740  1.00  0.00     0.189 HD
BRANCH  10  13
HETATM   13  N8  UNL     1      14.066  33.576  -8.309  1.00  0.00    -0.113 N 
HETATM   14  C6  UNL     1      13.129  33.878  -7.253  1.00  0.00     0.199 C 
HETATM   15  C7  UNL     1      14.101  32.262  -8.818  1.00  0.00     0.712 C 
HETATM   16  N9  UNL     1      14.296  32.087 -10.073  1.00  0.00    -0.232 N 
HETATM   17  N10 UNL     1      13.929  31.101  -8.013  1.00  0.00    -0.071 N 
ATOM     18  H92 UNL     1      14.419  32.920 -10.650  1.00  0.00     0.174 HD
ATOM     19  H91 UNL     1      14.320  31.136 -10.441  1.00  0.00     0.174 HD
ATOM     20  H10 UNL     1      13.128  30.488  -8.167  1.00  0.00     0.212 HD
BRANCH  17  21
HETATM   21  N11 UNL     1      14.854  30.801  -7.012  1.00  0.00    -0.024 N 
HETATM   22  O1  UNL     1      15.834  31.533  -6.781  1.00  0.00    -0.516 OA
HETATM   23  O2  UNL     1      14.655  29.660  -6.277  1.00  0.00    -0.516 OA
ENDBRANCH  17  21
ENDBRANCH  10  13
ENDBRANCH   8   9
BRANCH   1  24
HETATM   24  N1  UNL     1      16.573  36.752  -6.613  1.00  0.00    -0.378 N 
HETATM   25  C1  UNL     1      16.952  37.704  -5.601  1.00  0.00     0.147 C 
ATOM     26  H1  UNL     1      15.780  36.136  -6.436  1.00  0.00     0.160 HD
ENDBRANCH   1  24
BRANCH   7  27
HETATM   27  N5  UNL     1      17.485  34.546 -10.731  1.00  0.00    -0.383 N 
ATOM     28  H52 UNL     1      16.524  34.420 -11.050  1.00  0.00     0.157 HD
ATOM     29  H51 UNL     1      18.208  33.899 -11.047  1.00  0.00     0.157 HD
ENDBRANCH   7  27
BRANCH   4  30
HETATM   30  N3  UNL     1      19.752  38.409  -9.667  1.00  0.00    -0.234 N 
ATOM     31  H32 UNL     1      20.413  38.713  -8.952  1.00  0.00     0.174 HD
ATOM     32  H31 UNL     1      19.785  38.807 -10.605  1.00  0.00     0.174 HD
ENDBRANCH   4  30
TORSDOF 6
ENDMDL
MODEL 5
REMARK VINA RESULT: -7.003186707      5.228      7.606
REMARK  6 active torsions:
REMARK  status: ('A' for Active; 'I' for Inactive)
REMARK    1  A    between atoms: N1_2  and  C2_4 
REMARK    2  A    between atoms: C3_7  and  N3_8 
REMARK    3  A    between atoms: C4_13  and  N5_14 
REMARK    4  A    between atoms: C5_17  and  N6_18 
REMARK    5  A    between atoms: N7_20  and  N8_22 
REMARK       I    between atoms: N8_22  and  C7_24 
REMARK       I    between atoms: C7_24  and  N10_28 
REMARK    6  A    between atoms: N10_28  and  N11_30 
ROOT
HETATM    1  C2  UNL     1      13.880  34.053  -8.454  1.00  0.00     0.148 A 
HETATM    2  N2  UNL     1      14.708  33.136  -9.021  1.00  0.00    -0.175 N 
ATOM      3  H2  UNL     1      15.679  33.389  -9.200  1.00  0.00     0.186 HD
HETATM    4  C3  UNL     1      14.282  31.904  -9.354  1.00  0.00     0.679 A 
HETATM    5  N4  UNL     1      12.997  31.537  -9.130  1.00  0.00    -0.175 N 
ATOM      6  H4  UNL     1      12.682  30.601  -9.387  1.00  0.00     0.186 HD
HETATM    7  C4  UNL     1      12.135  32.404  -8.572  1.00  0.00     0.146 A 
HETATM    8  C5  UNL     1      12.573  33.678  -8.228  1.00  0.00     0.138 A 
ENDROOT
BRANCH   8   9
HETATM    9  N6  UNL     1      11.714  34.631  -7.638  1.00  0.00    -0.279 N 
HETATM   10  N7  UNL     1      11.489  34.757  -6.415  1.00  0.00    -0.226 N 
ATOM     11  H7  UNL     1      11.940  34.143  -5.736  1.00  0.00     0.209 HD
ATOM     12  H6  UNL     1      11.234  35.275  -8.267  1.00  0.00     0.189 HD
BRANCH  10  13
HETATM   13  N8  UNL     1      10.611  35.752  -6.000  1.00  0.00    -0.113 N 
HETATM   14  C6  UNL     1      10.273  36.787  -6.947  1.00  0.00     0.199 C 
HETATM   15  C7  UNL     1      10.037  35.807  -4.714  1.00  0.00     0.712 C 
HETATM   16  N9  UNL     1       9.694  34.714  -4.140  1.00  0.00    -0.232 N 
HETATM   17  N10 UNL     1       9.811  37.020  -4.005  1.00  0.00    -0.071 N 
ATOM     18  H92 UNL     1       9.856  33.844  -4.648  1.00  0.00     0.174 HD
ATOM     19  H91 UNL     1       9.279  34.754  -3.209  1.00  0.00     0.174 HD
ATOM     20  H10 UNL     1       8.859  37.306  -3.775  1.00  0.00     0.212 HD
BRANCH  17  21
HETATM   21  N11 UNL     1      10.890  37.819  -3.622  1.00  0.00    -0.024 N 
HETATM   22  O1  UNL     1      10.824  39.062  -3.634  1.00  0.00    -0.516 OA
HETATM   23  O2  UNL     1      12.044  37.191  -3.228  1.00  0.00    -0.516 OA
ENDBRANCH  17  21
ENDBRANCH  10  13
ENDBRANCH   8   9
BRANCH   1  24
HETATM   24  N1  UNL     1      14.377  35.340  -8.120  1.00  0.00    -0.378 N 
HETATM   25  C1  UNL     1      15.753  35.570  -7.763  1.00  0.00     0.147 C 
ATOM     26  H1  UNL     1      13.734  36.132  -8.133  1.00  0.00     0.160 HD
ENDBRANCH   1  24
BRANCH   7  27
HETATM   27  N5  UNL     1      10.895  32.102  -8.337  1.00  0.00    -0.383 N 
ATOM     28  H52 UNL     1      10.702  31.263  -7.790  1.00  0.00     0.157 HD
ATOM     29  H51 UNL     1      10.118  32.669  -8.677  1.00  0.00     0.157 HD
ENDBRANCH   7  27
BRANCH   4  30
HETATM   30  N3  UNL     1      15.094  31.038  -9.897  1.00  0.00    -0.234 N 
ATOM     31  H32 UNL     1      15.917  31.383 -10.392  1.00  0.00     0.174 HD
ATOM     32  H31 UNL     1      14.913  30.037  -9.830  1.00  0.00     0.174 HD
ENDBRANCH   4  30
TORSDOF 6
ENDMDL
