MODEL 1
REMARK VINA RESULT: -7.061720158      0.000      0.000
REMARK  8 active torsions:
REMARK  status: ('A' for Active; 'I' for Inactive)
REMARK    1  A    between atoms: N1_1  and  C1_4 
REMARK    2  A    between atoms: C3_9  and  N4_10 
REMARK    3  A    between atoms: C4_13  and  O3_14 
REMARK    4  A    between atoms: O3_14  and  C5_15 
REMARK    5  A    between atoms: C9_19  and  N5_20 
REMARK    6  A    between atoms: C10_24  and  C11_25 
REMARK    7  A    between atoms: C11_25  and  N6_26 
REMARK    8  A    between atoms: C11_25  and  N7_30 
ROOT
HETATM    1  C1  UNL     1      19.934  36.875  -9.805  1.00  0.00     0.113 A 
HETATM    2  N2  UNL     1      19.789  37.648  -8.737  1.00  0.00    -0.329 N 
ATOM      3  H2  UNL     1      20.516  38.321  -8.499  1.00  0.00     0.168 HD
HETATM    4  C2  UNL     1      18.696  37.553  -7.968  1.00  0.00     0.154 A 
HETATM    5  N3  UNL     1      18.579  38.403  -6.828  1.00  0.00    -0.080 NA
HETATM    6  C3  UNL     1      17.688  36.633  -8.282  1.00  0.00     0.177 A 
HETATM    7  C4  UNL     1      17.799  35.799  -9.397  1.00  0.00     0.119 A 
HETATM    8  C10 UNL     1      18.937  35.944 -10.139  1.00  0.00     0.078 A 
ENDROOT
BRANCH   7   9
HETATM    9  O3  UNL     1      16.847  34.902  -9.735  1.00  0.00    -0.340 OA
BRANCH   9  10
HETATM   10  C5  UNL     1      16.264  33.870  -9.004  1.00  0.00     0.159 C 
HETATM   11  C6  UNL     1      14.829  34.034  -8.630  1.00  0.00     0.035 C 
HETATM   12  C7  UNL     1      14.171  32.664  -8.819  1.00  0.00     0.005 C 
HETATM   13  C8  UNL     1      14.840  32.215 -10.092  1.00  0.00     0.035 C 
HETATM   14  C9  UNL     1      16.284  32.614  -9.874  1.00  0.00     0.212 C 
BRANCH  14  15
HETATM   15  N5  UNL     1      17.008  31.526  -9.245  1.00  0.00    -0.073 N 
ATOM     16  H53 UNL     1      18.015  31.675  -9.294  1.00  0.00     0.274 HD
ATOM     17  H52 UNL     1      16.892  31.542  -8.232  1.00  0.00     0.274 HD
ATOM     18  H51 UNL     1      16.750  30.618  -9.632  1.00  0.00     0.274 HD
ENDBRANCH  14  15
ENDBRANCH   9  10
ENDBRANCH   7   9
BRANCH   6  19
HETATM   19  N4  UNL     1      16.588  36.594  -7.420  1.00  0.00    -0.109 N 
HETATM   20  O1  UNL     1      15.526  37.143  -7.750  1.00  0.00    -0.532 OA
HETATM   21  O2  UNL     1      16.644  35.970  -6.204  1.00  0.00    -0.532 OA
ENDBRANCH   6  19
BRANCH   8  22
HETATM   22  C11 UNL     1      19.216  35.136 -11.332  1.00  0.00     0.417 C 
BRANCH  22  23
HETATM   23  N6  UNL     1      18.222  35.350 -12.379  1.00  0.00    -0.046 N 
ATOM     24  H63 UNL     1      18.531  36.057 -13.046  1.00  0.00     0.277 HD
ATOM     25  H62 UNL     1      18.168  34.549 -13.008  1.00  0.00     0.277 HD
ATOM     26  H61 UNL     1      17.306  35.580 -11.992  1.00  0.00     0.277 HD
ENDBRANCH  22  23
BRANCH  22  27
HETATM   27  N7  UNL     1      19.279  33.714 -11.071  1.00  0.00    -0.046 N 
ATOM     28  H73 UNL     1      19.711  33.224 -11.854  1.00  0.00     0.277 HD
ATOM     29  H72 UNL     1      19.964  33.513 -10.343  1.00  0.00     0.277 HD
ATOM     30  H71 UNL     1      18.376  33.299 -10.841  1.00  0.00     0.277 HD
ENDBRANCH  22  27
ENDBRANCH   8  22
BRANCH   1  31
HETATM   31  N1  UNL     1      20.989  36.972 -10.539  1.00  0.00    -0.385 N 
ATOM     32  H12 UNL     1      21.034  36.475 -11.429  1.00  0.00     0.157 HD
ATOM     33  H11 UNL     1      21.777  37.542 -10.232  1.00  0.00     0.157 HD
ENDBRANCH   1  31
TORSDOF 8
ENDMDL
MODEL 2
REMARK VINA RESULT: -6.793938637      1.387      1.798
REMARK  8 active torsions:
REMARK  status: ('A' for Active; 'I' for Inactive)
REMARK    1  A    between atoms: N1_1  and  C1_4 
REMARK    2  A    between atoms: C3_9  and  N4_10 
REMARK    3  A    between atoms: C4_13  and  O3_14 
REMARK    4  A    between atoms: O3_14  and  C5_15 
REMARK    5  A    between atoms: C9_19  and  N5_20 
REMARK    6  A    between atoms: C10_24  and  C11_25 
REMARK    7  A    between atoms: C11_25  and  N6_26 
REMARK    8  A    between atoms: C11_25  and  N7_30 
ROOT
HETATM    1  C1  UNL     1      18.556  36.934  -9.096  1.00  0.00     0.113 A 
HETATM    2  N2  UNL     1      18.096  37.420  -7.951  1.00  0.00    -0.329 N 
ATOM      3  H2  UNL     1      18.551  38.228  -7.527  1.00  0.00     0.168 HD
HETATM    4  C2  UNL     1      17.039  36.862  -7.346  1.00  0.00     0.154 A 
HETATM    5  N3  UNL     1      16.576  37.416  -6.116  1.00  0.00    -0.080 NA
HETATM    6  C3  UNL     1      16.404  35.752  -7.916  1.00  0.00     0.177 A 
HETATM    7  C4  UNL     1      16.855  35.206  -9.120  1.00  0.00     0.119 A 
HETATM    8  C10 UNL     1      17.936  35.820  -9.685  1.00  0.00     0.078 A 
ENDROOT
BRANCH   7   9
HETATM    9  O3  UNL     1      16.266  34.138  -9.703  1.00  0.00    -0.340 OA
BRANCH   9  10
HETATM   10  C5  UNL     1      15.461  33.136  -9.170  1.00  0.00     0.159 C 
HETATM   11  C6  UNL     1      14.547  32.429 -10.116  1.00  0.00     0.035 C 
HETATM   12  C7  UNL     1      14.586  30.947  -9.733  1.00  0.00     0.005 C 
HETATM   13  C8  UNL     1      16.053  30.783  -9.431  1.00  0.00     0.035 C 
HETATM   14  C9  UNL     1      16.378  32.034  -8.641  1.00  0.00     0.212 C 
BRANCH  14  15
HETATM   15  N5  UNL     1      16.177  31.790  -7.225  1.00  0.00    -0.073 N 
ATOM     16  H53 UNL     1      16.079  30.793  -7.033  1.00  0.00     0.274 HD
ATOM     17  H52 UNL     1      17.028  31.974  -6.694  1.00  0.00     0.274 HD
ATOM     18  H51 UNL     1      15.387  32.317  -6.852  1.00  0.00     0.274 HD
ENDBRANCH  14  15
ENDBRANCH   9  10
ENDBRANCH   7   9
BRANCH   6  19
HETATM   19  N4  UNL     1      15.316  35.226  -7.212  1.00  0.00    -0.109 N 
HETATM   20  O1  UNL     1      15.505  34.364  -6.341  1.00  0.00    -0.532 OA
HETATM   21  O2  UNL     1      14.032  35.629  -7.458  1.00  0.00    -0.532 OA
ENDBRANCH   6  19
BRANCH   8  22
HETATM   22  C11 UNL     1      18.543  35.363 -10.941  1.00  0.00     0.417 C 
BRANCH  22  23
HETATM   23  N6  UNL     1      17.682  35.628 -12.089  1.00  0.00    -0.046 N 
ATOM     24  H63 UNL     1      18.008  35.133 -12.920  1.00  0.00     0.277 HD
ATOM     25  H62 UNL     1      16.772  35.179 -11.982  1.00  0.00     0.277 HD
ATOM     26  H61 UNL     1      17.583  36.627 -12.268  1.00  0.00     0.277 HD
ENDBRANCH  22  23
BRANCH  22  27
HETATM   27  N7  UNL     1      18.868  33.954 -10.953  1.00  0.00    -0.046 N 
ATOM     28  H73 UNL     1      19.632  33.756 -10.307  1.00  0.00     0.277 HD
ATOM     29  H72 UNL     1      18.126  33.411 -10.510  1.00  0.00     0.277 HD
ATOM     30  H71 UNL     1      19.077  33.588 -11.882  1.00  0.00     0.277 HD
ENDBRANCH  22  27
ENDBRANCH   8  22
BRANCH   1  31
HETATM   31  N1  UNL     1      19.574  37.477  -9.670  1.00  0.00    -0.385 N 
ATOM     32  H12 UNL     1      19.803  38.452  -9.477  1.00  0.00     0.157 HD
ATOM     33  H11 UNL     1      20.148  36.936 -10.317  1.00  0.00     0.157 HD
ENDBRANCH   1  31
TORSDOF 8
ENDMDL
MODEL 3
REMARK VINA RESULT: -6.759582460      1.610      3.718
REMARK  8 active torsions:
REMARK  status: ('A' for Active; 'I' for Inactive)
REMARK    1  A    between atoms: N1_1  and  C1_4 
REMARK    2  A    between atoms: C3_9  and  N4_10 
REMARK    3  A    between atoms: C4_13  and  O3_14 
REMARK    4  A    between atoms: O3_14  and  C5_15 
REMARK    5  A    between atoms: C9_19  and  N5_20 
REMARK    6  A    between atoms: C10_24  and  C11_25 
REMARK    7  A    between atoms: C11_25  and  N6_26 
REMARK    8  A    between atoms: C11_25  and  N7_30 
ROOT
HETATM    1  C1  UNL     1      19.040  37.451  -8.296  1.00  0.00     0.113 A 
HETATM    2  N2  UNL     1      19.700  36.996  -9.353  1.00  0.00    -0.329 N 
ATOM      3  H2  UNL     1      20.637  37.347  -9.551  1.00  0.00     0.168 HD
HETATM    4  C2  UNL     1      19.150  36.081 -10.161  1.00  0.00     0.154 A 
HETATM    5  N3  UNL     1      19.894  35.619 -11.287  1.00  0.00    -0.080 NA
HETATM    6  C3  UNL     1      17.864  35.590  -9.902  1.00  0.00     0.177 A 
HETATM    7  C4  UNL     1      17.133  36.041  -8.801  1.00  0.00     0.119 A 
HETATM    8  C10 UNL     1      17.749  36.974  -8.017  1.00  0.00     0.078 A 
ENDROOT
BRANCH   7   9
HETATM    9  O3  UNL     1      15.891  35.589  -8.515  1.00  0.00    -0.340 OA
BRANCH   9  10
HETATM   10  C5  UNL     1      15.432  34.311  -8.214  1.00  0.00     0.159 C 
HETATM   11  C6  UNL     1      14.669  34.149  -6.941  1.00  0.00     0.035 C 
HETATM   12  C7  UNL     1      13.509  33.196  -7.248  1.00  0.00     0.005 C 
HETATM   13  C8  UNL     1      13.106  33.690  -8.613  1.00  0.00     0.035 C 
HETATM   14  C9  UNL     1      14.438  33.905  -9.302  1.00  0.00     0.212 C 
BRANCH  14  15
HETATM   15  N5  UNL     1      14.842  32.691  -9.986  1.00  0.00    -0.073 N 
ATOM     16  H53 UNL     1      15.536  32.887 -10.706  1.00  0.00     0.274 HD
ATOM     17  H52 UNL     1      15.404  32.094  -9.378  1.00  0.00     0.274 HD
ATOM     18  H51 UNL     1      14.045  32.182 -10.369  1.00  0.00     0.274 HD
ENDBRANCH  14  15
ENDBRANCH   9  10
ENDBRANCH   7   9
BRANCH   6  19
HETATM   19  N4  UNL     1      17.364  34.646 -10.803  1.00  0.00    -0.109 N 
HETATM   20  O1  UNL     1      17.712  33.459 -10.709  1.00  0.00    -0.532 OA
HETATM   21  O2  UNL     1      16.497  34.989 -11.804  1.00  0.00    -0.532 OA
ENDBRANCH   6  19
BRANCH   8  22
HETATM   22  C11 UNL     1      17.112  37.562  -6.832  1.00  0.00     0.417 C 
BRANCH  22  23
HETATM   23  N6  UNL     1      17.021  39.016  -6.929  1.00  0.00    -0.046 N 
ATOM     24  H63 UNL     1      17.938  39.436  -7.083  1.00  0.00     0.277 HD
ATOM     25  H62 UNL     1      16.566  39.302  -7.796  1.00  0.00     0.277 HD
ATOM     26  H61 UNL     1      16.558  39.423  -6.116  1.00  0.00     0.277 HD
ENDBRANCH  22  23
BRANCH  22  27
HETATM   27  N7  UNL     1      17.786  37.248  -5.592  1.00  0.00    -0.046 N 
ATOM     28  H73 UNL     1      18.720  37.657  -5.577  1.00  0.00     0.277 HD
ATOM     29  H72 UNL     1      17.364  37.756  -4.815  1.00  0.00     0.277 HD
ATOM     30  H71 UNL     1      17.827  36.249  -5.388  1.00  0.00     0.277 HD
ENDBRANCH  22  27
ENDBRANCH   8  22
BRANCH   1  31
HETATM   31  N1  UNL     1      19.577  38.332  -7.524  1.00  0.00    -0.385 N 
ATOM     32  H12 UNL     1      19.049  39.165  -7.263  1.00  0.00     0.157 HD
ATOM     33  H11 UNL     1      20.526  38.199  -7.175  1.00  0.00     0.157 HD
ENDBRANCH   1  31
TORSDOF 8
ENDMDL
MODEL 4
REMARK VINA RESULT: -6.682415039      2.684      4.987
REMARK  8 active torsions:
REMARK  status: ('A' for Active; 'I' for Inactive)
REMARK    1  A    between atoms: N1_1  and  C1_4 
REMARK    2  A    between atoms: C3_9  and  N4_10 
REMARK    3  A    between atoms: C4_13  and  O3_14 
REMARK    4  A    between atoms: O3_14  and  C5_15 
REMARK    5  A    between atoms: C9_19  and  N5_20 
REMARK    6  A    between atoms: C10_24  and  C11_25 
REMARK    7  A    between atoms: C11_25  and  N6_26 
REMARK    8  A    between atoms: C11_25  and  N7_30 
ROOT
HETATM    1  C1  UNL     1      16.457  31.978  -9.482  1.00  0.00     0.113 A 
HETATM    2  N2  UNL     1      17.231  33.016  -9.772  1.00  0.00    -0.329 N 
ATOM      3  H2  UNL     1      17.982  32.910 -10.454  1.00  0.00     0.168 HD
HETATM    4  C2  UNL     1      17.037  34.200  -9.180  1.00  0.00     0.154 A 
HETATM    5  N3  UNL     1      17.892  35.291  -9.519  1.00  0.00    -0.080 NA
HETATM    6  C3  UNL     1      16.010  34.361  -8.241  1.00  0.00     0.177 A 
HETATM    7  C4  UNL     1      15.171  33.296  -7.905  1.00  0.00     0.119 A 
HETATM    8  C10 UNL     1      15.423  32.116  -8.544  1.00  0.00     0.078 A 
ENDROOT
BRANCH   7   9
HETATM    9  O3  UNL     1      14.168  33.413  -7.007  1.00  0.00    -0.340 OA
BRANCH   9  10
HETATM   10  C5  UNL     1      12.951  34.083  -7.080  1.00  0.00     0.159 C 
HETATM   11  C6  UNL     1      12.424  34.382  -8.445  1.00  0.00     0.035 C 
HETATM   12  C7  UNL     1      10.915  34.122  -8.394  1.00  0.00     0.005 C 
HETATM   13  C8  UNL     1      10.882  32.877  -7.547  1.00  0.00     0.035 C 
HETATM   14  C9  UNL     1      11.885  33.185  -6.454  1.00  0.00     0.212 C 
BRANCH  14  15
HETATM   15  N5  UNL     1      11.218  33.826  -5.337  1.00  0.00    -0.073 N 
ATOM     16  H53 UNL     1      10.497  33.222  -4.942  1.00  0.00     0.274 HD
ATOM     17  H52 UNL     1      11.834  33.891  -4.527  1.00  0.00     0.274 HD
ATOM     18  H51 UNL     1      10.838  34.738  -5.588  1.00  0.00     0.274 HD
ENDBRANCH  14  15
ENDBRANCH   9  10
ENDBRANCH   7   9
BRANCH   6  19
HETATM   19  N4  UNL     1      15.885  35.629  -7.663  1.00  0.00    -0.109 N 
HETATM   20  O1  UNL     1      15.278  36.524  -8.269  1.00  0.00    -0.532 OA
HETATM   21  O2  UNL     1      16.423  35.922  -6.441  1.00  0.00    -0.532 OA
ENDBRANCH   6  19
BRANCH   8  22
HETATM   22  C11 UNL     1      14.644  30.896  -8.294  1.00  0.00     0.417 C 
BRANCH  22  23
HETATM   23  N6  UNL     1      13.328  30.952  -8.924  1.00  0.00    -0.046 N 
ATOM     24  H63 UNL     1      13.209  30.199  -9.602  1.00  0.00     0.277 HD
ATOM     25  H62 UNL     1      12.592  30.695  -8.267  1.00  0.00     0.277 HD
ATOM     26  H61 UNL     1      13.147  31.863  -9.346  1.00  0.00     0.277 HD
ENDBRANCH  22  23
BRANCH  22  27
HETATM   27  N7  UNL     1      14.446  30.607  -6.891  1.00  0.00    -0.046 N 
ATOM     28  H73 UNL     1      15.211  30.988  -6.334  1.00  0.00     0.277 HD
ATOM     29  H72 UNL     1      13.672  31.157  -6.518  1.00  0.00     0.277 HD
ATOM     30  H71 UNL     1      14.313  29.616  -6.690  1.00  0.00     0.277 HD
ENDBRANCH  22  27
ENDBRANCH   8  22
BRANCH   1  31
HETATM   31  N1  UNL     1      16.652  30.842 -10.058  1.00  0.00    -0.385 N 
ATOM     32  H12 UNL     1      16.142  30.018  -9.737  1.00  0.00     0.157 HD
ATOM     33  H11 UNL     1      17.315  30.763 -10.829  1.00  0.00     0.157 HD
ENDBRANCH   1  31
TORSDOF 8
ENDMDL
MODEL 5
REMARK VINA RESULT: -6.655160481      2.039      5.005
REMARK  8 active torsions:
REMARK  status: ('A' for Active; 'I' for Inactive)
REMARK    1  A    between atoms: N1_1  and  C1_4 
REMARK    2  A    between atoms: C3_9  and  N4_10 
REMARK    3  A    between atoms: C4_13  and  O3_14 
REMARK    4  A    between atoms: O3_14  and  C5_15 
REMARK    5  A    between atoms: C9_19  and  N5_20 
REMARK    6  A    between atoms: C10_24  and  C11_25 
REMARK    7  A    between atoms: C11_25  and  N6_26 
REMARK    8  A    between atoms: C11_25  and  N7_30 
ROOT
HETATM    1  C1  UNL     1      17.839  35.483 -10.702  1.00  0.00     0.113 A 
HETATM    2  N2  UNL     1      16.748  34.731 -10.758  1.00  0.00    -0.329 N 
ATOM      3  H2  UNL     1      16.498  34.270 -11.633  1.00  0.00     0.168 HD
HETATM    4  C2  UNL     1      15.972  34.570  -9.679  1.00  0.00     0.154 A 
HETATM    5  N3  UNL     1      14.806  33.754  -9.783  1.00  0.00    -0.080 NA
HETATM    6  C3  UNL     1      16.302  35.198  -8.471  1.00  0.00     0.177 A 
HETATM    7  C4  UNL     1      17.441  35.998  -8.366  1.00  0.00     0.119 A 
HETATM    8  C10 UNL     1      18.189  36.122  -9.502  1.00  0.00     0.078 A 
ENDROOT
BRANCH   7   9
HETATM    9  O3  UNL     1      17.795  36.617  -7.218  1.00  0.00    -0.340 OA
BRANCH   9  10
HETATM   10  C5  UNL     1      17.191  37.658  -6.518  1.00  0.00     0.159 C 
HETATM   11  C6  UNL     1      17.455  37.727  -5.050  1.00  0.00     0.035 C 
HETATM   12  C7  UNL     1      17.651  39.209  -4.714  1.00  0.00     0.005 C 
HETATM   13  C8  UNL     1      18.452  39.655  -5.908  1.00  0.00     0.035 C 
HETATM   14  C9  UNL     1      17.749  38.971  -7.062  1.00  0.00     0.212 C 
BRANCH  14  15
HETATM   15  N5  UNL     1      16.705  39.833  -7.585  1.00  0.00    -0.073 N 
ATOM     16  H53 UNL     1      17.026  40.798  -7.660  1.00  0.00     0.274 HD
ATOM     17  H52 UNL     1      16.530  39.644  -8.572  1.00  0.00     0.274 HD
ATOM     18  H51 UNL     1      15.846  39.771  -7.039  1.00  0.00     0.274 HD
ENDBRANCH  14  15
ENDBRANCH   9  10
ENDBRANCH   7   9
BRANCH   6  19
HETATM   19  N4  UNL     1      15.430  34.985  -7.399  1.00  0.00    -0.109 N 
HETATM   20  O1  UNL     1      15.670  34.086  -6.579  1.00  0.00    -0.532 OA
HETATM   21  O2  UNL     1      14.301  35.737  -7.224  1.00  0.00    -0.532 OA
ENDBRANCH   6  19
BRANCH   8  22
HETATM   22  C11 UNL     1      19.408  36.939  -9.566  1.00  0.00     0.417 C 
BRANCH  22  23
HETATM   23  N6  UNL     1      20.282  36.702  -8.420  1.00  0.00    -0.046 N 
ATOM     24  H63 UNL     1      19.746  36.613  -7.557  1.00  0.00     0.277 HD
ATOM     25  H62 UNL     1      20.689  35.768  -8.453  1.00  0.00     0.277 HD
ATOM     26  H61 UNL     1      21.003  37.419  -8.338  1.00  0.00     0.277 HD
ENDBRANCH  22  23
BRANCH  22  27
HETATM   27  N7  UNL     1      19.153  38.361  -9.635  1.00  0.00    -0.046 N 
ATOM     28  H73 UNL     1      19.286  38.703 -10.587  1.00  0.00     0.277 HD
ATOM     29  H72 UNL     1      18.158  38.553  -9.521  1.00  0.00     0.277 HD
ATOM     30  H71 UNL     1      19.704  38.910  -8.975  1.00  0.00     0.277 HD
ENDBRANCH  22  27
ENDBRANCH   8  22
BRANCH   1  31
HETATM   31  N1  UNL     1      18.580  35.632 -11.745  1.00  0.00    -0.385 N 
ATOM     32  H12 UNL     1      18.247  36.198 -12.526  1.00  0.00     0.157 HD
ATOM     33  H11 UNL     1      19.496  35.184 -11.794  1.00  0.00     0.157 HD
ENDBRANCH   1  31
TORSDOF 8
ENDMDL
