MODEL 1
REMARK VINA RESULT: -9.003685107      0.000      0.000
REMARK  8 active torsions:
REMARK  status: ('A' for Active; 'I' for Inactive)
REMARK    1  A    between atoms: C3_4  and  N2_5 
REMARK    2  A    between atoms: C4_7  and  C5_8 
REMARK    3  A    between atoms: C5_8  and  C7_11 
REMARK    4  A    between atoms: C7_11  and  C9_14 
REMARK    5  A    between atoms: C9_14  and  N5_15 
REMARK    6  A    between atoms: C9_14  and  O1_19 
REMARK    7  A    between atoms: C10_23  and  N7_24 
REMARK    8  A    between atoms: C11_29  and  N9_30 
ROOT
HETATM    1  N1  UNL     1      16.967  33.932 -10.724  1.00  0.00    -0.191 NA
HETATM    2  C1  UNL     1      16.070  33.737 -10.006  1.00  0.00     0.107 C 
HETATM    3  C2  UNL     1      14.958  33.479  -9.126  1.00  0.00     0.133 A 
HETATM    4  C3  UNL     1      14.562  34.423  -8.172  1.00  0.00     0.145 A 
HETATM    5  N6  UNL     1      13.524  34.134  -7.380  1.00  0.00    -0.175 N 
ATOM      6  H6  UNL     1      13.245  34.829  -6.688  1.00  0.00     0.186 HD
HETATM    7  C10 UNL     1      12.824  32.988  -7.435  1.00  0.00     0.679 A 
HETATM    8  N8  UNL     1      13.192  32.070  -8.347  1.00  0.00    -0.176 N 
ATOM      9  H8  UNL     1      12.683  31.189  -8.416  1.00  0.00     0.186 HD
HETATM   10  C11 UNL     1      14.231  32.312  -9.168  1.00  0.00     0.139 A 
ENDROOT
BRANCH   4  11
HETATM   11  N2  UNL     1      15.284  35.646  -8.089  1.00  0.00    -0.353 N 
HETATM   12  C4  UNL     1      16.256  35.838  -7.276  1.00  0.00     0.083 C 
ATOM     13  H2  UNL     1      15.014  36.410  -8.708  1.00  0.00     0.166 HD
BRANCH  12  14
HETATM   14  C5  UNL     1      16.947  37.144  -7.262  1.00  0.00     0.153 C 
HETATM   15  C6  UNL     1      17.132  37.547  -5.853  1.00  0.00     0.070 C 
HETATM   16  N3  UNL     1      17.270  37.861  -4.749  1.00  0.00    -0.197 NA
BRANCH  14  17
HETATM   17  C7  UNL     1      18.328  37.069  -7.868  1.00  0.00     0.171 C 
HETATM   18  C8  UNL     1      18.930  38.411  -7.705  1.00  0.00     0.070 C 
HETATM   19  N4  UNL     1      19.393  39.462  -7.559  1.00  0.00    -0.197 NA
BRANCH  17  20
HETATM   20  C9  UNL     1      18.300  36.784  -9.344  1.00  0.00     0.335 C 
BRANCH  20  21
HETATM   21  N5  UNL     1      19.653  36.446  -9.748  1.00  0.00    -0.052 N 
ATOM     22  H53 UNL     1      20.028  35.641  -9.246  1.00  0.00     0.277 HD
ATOM     23  H52 UNL     1      19.700  36.051 -10.687  1.00  0.00     0.277 HD
ATOM     24  H51 UNL     1      20.224  37.284  -9.639  1.00  0.00     0.277 HD
ENDBRANCH  20  21
BRANCH  20  25
HETATM   25  O1  UNL     1      17.881  37.923 -10.025  1.00  0.00    -0.369 OA
ATOM     26  H1  UNL     1      16.936  37.996  -9.963  1.00  0.00     0.212 HD
ENDBRANCH  20  25
ENDBRANCH  17  20
ENDBRANCH  14  17
ENDBRANCH  12  14
ENDBRANCH   4  11
BRANCH  10  27
HETATM   27  N9  UNL     1      14.595  31.424 -10.059  1.00  0.00    -0.384 N 
ATOM     28  H92 UNL     1      15.112  31.707 -10.891  1.00  0.00     0.157 HD
ATOM     29  H91 UNL     1      14.336  30.455  -9.873  1.00  0.00     0.157 HD
ENDBRANCH  10  27
BRANCH   7  30
HETATM   30  N7  UNL     1      11.824  32.754  -6.644  1.00  0.00    -0.234 N 
ATOM     31  H72 UNL     1      11.157  33.495  -6.429  1.00  0.00     0.174 HD
ATOM     32  H71 UNL     1      11.673  31.839  -6.218  1.00  0.00     0.174 HD
ENDBRANCH   7  30
TORSDOF 8
ENDMDL
MODEL 2
REMARK VINA RESULT: -8.632303538      0.998      2.518
REMARK  8 active torsions:
REMARK  status: ('A' for Active; 'I' for Inactive)
REMARK    1  A    between atoms: C3_4  and  N2_5 
REMARK    2  A    between atoms: C4_7  and  C5_8 
REMARK    3  A    between atoms: C5_8  and  C7_11 
REMARK    4  A    between atoms: C7_11  and  C9_14 
REMARK    5  A    between atoms: C9_14  and  N5_15 
REMARK    6  A    between atoms: C9_14  and  O1_19 
REMARK    7  A    between atoms: C10_23  and  N7_24 
REMARK    8  A    between atoms: C11_29  and  N9_30 
ROOT
HETATM    1  N1  UNL     1      12.297  35.933  -6.260  1.00  0.00    -0.191 NA
HETATM    2  C1  UNL     1      12.763  35.076  -6.897  1.00  0.00     0.107 C 
HETATM    3  C2  UNL     1      13.325  34.004  -7.681  1.00  0.00     0.133 A 
HETATM    4  C3  UNL     1      14.541  34.167  -8.352  1.00  0.00     0.145 A 
HETATM    5  N6  UNL     1      15.019  33.141  -9.066  1.00  0.00    -0.175 N 
ATOM      6  H6  UNL     1      15.906  33.272  -9.552  1.00  0.00     0.186 HD
HETATM    7  C10 UNL     1      14.407  31.950  -9.185  1.00  0.00     0.679 A 
HETATM    8  N8  UNL     1      13.237  31.778  -8.544  1.00  0.00    -0.176 N 
ATOM      9  H8  UNL     1      12.746  30.887  -8.613  1.00  0.00     0.186 HD
HETATM   10  C11 UNL     1      12.713  32.780  -7.813  1.00  0.00     0.139 A 
ENDROOT
BRANCH   4  11
HETATM   11  N2  UNL     1      15.213  35.417  -8.246  1.00  0.00    -0.353 N 
HETATM   12  C4  UNL     1      16.252  35.599  -7.518  1.00  0.00     0.083 C 
ATOM     13  H2  UNL     1      14.849  36.208  -8.777  1.00  0.00     0.166 HD
BRANCH  12  14
HETATM   14  C5  UNL     1      16.882  36.935  -7.471  1.00  0.00     0.153 C 
HETATM   15  C6  UNL     1      16.988  37.340  -6.055  1.00  0.00     0.070 C 
HETATM   16  N3  UNL     1      17.064  37.655  -4.945  1.00  0.00    -0.197 NA
BRANCH  14  17
HETATM   17  C7  UNL     1      18.291  36.924  -8.017  1.00  0.00     0.171 C 
HETATM   18  C8  UNL     1      18.840  38.279  -7.784  1.00  0.00     0.070 C 
HETATM   19  N4  UNL     1      19.261  39.338  -7.585  1.00  0.00    -0.197 NA
BRANCH  17  20
HETATM   20  C9  UNL     1      18.337  36.688  -9.501  1.00  0.00     0.335 C 
BRANCH  20  21
HETATM   21  N5  UNL     1      19.724  36.461  -9.863  1.00  0.00    -0.052 N 
ATOM     22  H53 UNL     1      20.244  35.955  -9.147  1.00  0.00     0.277 HD
ATOM     23  H52 UNL     1      19.833  35.779 -10.613  1.00  0.00     0.277 HD
ATOM     24  H51 UNL     1      20.134  37.368 -10.087  1.00  0.00     0.277 HD
ENDBRANCH  20  21
BRANCH  20  25
HETATM   25  O1  UNL     1      17.860  37.816 -10.162  1.00  0.00    -0.369 OA
ATOM     26  H1  UNL     1      18.461  38.048 -10.859  1.00  0.00     0.212 HD
ENDBRANCH  20  25
ENDBRANCH  17  20
ENDBRANCH  14  17
ENDBRANCH  12  14
ENDBRANCH   4  11
BRANCH  10  27
HETATM   27  N9  UNL     1      11.575  32.620  -7.187  1.00  0.00    -0.384 N 
ATOM     28  H92 UNL     1      11.504  32.805  -6.186  1.00  0.00     0.157 HD
ATOM     29  H91 UNL     1      10.783  32.305  -7.748  1.00  0.00     0.157 HD
ENDBRANCH  10  27
BRANCH   7  30
HETATM   30  N7  UNL     1      14.912  30.985  -9.889  1.00  0.00    -0.234 N 
ATOM     31  H72 UNL     1      15.791  30.552  -9.609  1.00  0.00     0.174 HD
ATOM     32  H71 UNL     1      14.455  30.635 -10.731  1.00  0.00     0.174 HD
ENDBRANCH   7  30
TORSDOF 8
ENDMDL
MODEL 3
REMARK VINA RESULT: -8.581108434      2.328      6.589
REMARK  8 active torsions:
REMARK  status: ('A' for Active; 'I' for Inactive)
REMARK    1  A    between atoms: C3_4  and  N2_5 
REMARK    2  A    between atoms: C4_7  and  C5_8 
REMARK    3  A    between atoms: C5_8  and  C7_11 
REMARK    4  A    between atoms: C7_11  and  C9_14 
REMARK    5  A    between atoms: C9_14  and  N5_15 
REMARK    6  A    between atoms: C9_14  and  O1_19 
REMARK    7  A    between atoms: C10_23  and  N7_24 
REMARK    8  A    between atoms: C11_29  and  N9_30 
ROOT
HETATM    1  N1  UNL     1      16.543  37.596  -6.003  1.00  0.00    -0.191 NA
HETATM    2  C1  UNL     1      17.018  37.161  -6.974  1.00  0.00     0.107 C 
HETATM    3  C2  UNL     1      17.620  36.632  -8.173  1.00  0.00     0.133 A 
HETATM    4  C3  UNL     1      16.985  35.631  -8.915  1.00  0.00     0.145 A 
HETATM    5  N6  UNL     1      17.586  35.176 -10.019  1.00  0.00    -0.175 N 
ATOM      6  H6  UNL     1      17.114  34.445 -10.552  1.00  0.00     0.186 HD
HETATM    7  C10 UNL     1      18.771  35.617 -10.474  1.00  0.00     0.679 A 
HETATM    8  N8  UNL     1      19.395  36.580  -9.772  1.00  0.00    -0.176 N 
ATOM      9  H8  UNL     1      20.296  36.938 -10.088  1.00  0.00     0.186 HD
HETATM   10  C11 UNL     1      18.831  37.072  -8.652  1.00  0.00     0.139 A 
ENDROOT
BRANCH   4  11
HETATM   11  N2  UNL     1      15.728  35.143  -8.459  1.00  0.00    -0.353 N 
HETATM   12  C4  UNL     1      15.573  33.990  -7.919  1.00  0.00     0.083 C 
ATOM     13  H2  UNL     1      14.909  35.740  -8.567  1.00  0.00     0.166 HD
BRANCH  12  14
HETATM   14  C5  UNL     1      14.228  33.570  -7.476  1.00  0.00     0.153 C 
HETATM   15  C6  UNL     1      13.459  34.784  -7.138  1.00  0.00     0.070 C 
HETATM   16  N3  UNL     1      12.862  35.738  -6.870  1.00  0.00    -0.197 NA
BRANCH  14  17
HETATM   17  C7  UNL     1      13.457  32.867  -8.568  1.00  0.00     0.171 C 
HETATM   18  C8  UNL     1      12.120  32.566  -8.009  1.00  0.00     0.070 C 
HETATM   19  N4  UNL     1      11.074  32.348  -7.564  1.00  0.00    -0.197 NA
BRANCH  17  20
HETATM   20  C9  UNL     1      14.069  31.551  -8.958  1.00  0.00     0.335 C 
BRANCH  20  21
HETATM   21  N5  UNL     1      14.625  31.707 -10.290  1.00  0.00    -0.052 N 
ATOM     22  H53 UNL     1      14.123  32.393 -10.853  1.00  0.00     0.277 HD
ATOM     23  H52 UNL     1      15.532  32.173 -10.291  1.00  0.00     0.277 HD
ATOM     24  H51 UNL     1      14.652  30.782 -10.720  1.00  0.00     0.277 HD
ENDBRANCH  20  21
BRANCH  20  25
HETATM   25  O1  UNL     1      13.082  30.571  -8.976  1.00  0.00    -0.369 OA
ATOM     26  H1  UNL     1      13.267  29.951  -9.671  1.00  0.00     0.212 HD
ENDBRANCH  20  25
ENDBRANCH  17  20
ENDBRANCH  14  17
ENDBRANCH  12  14
ENDBRANCH   4  11
BRANCH  10  27
HETATM   27  N9  UNL     1      19.432  38.010  -7.963  1.00  0.00    -0.384 N 
ATOM     28  H92 UNL     1      19.215  38.993  -8.128  1.00  0.00     0.157 HD
ATOM     29  H91 UNL     1      20.114  37.703  -7.269  1.00  0.00     0.157 HD
ENDBRANCH  10  27
BRANCH   7  30
HETATM   30  N7  UNL     1      19.314  35.143 -11.552  1.00  0.00    -0.234 N 
ATOM     31  H72 UNL     1      18.835  35.231 -12.448  1.00  0.00     0.174 HD
ATOM     32  H71 UNL     1      20.220  34.675 -11.540  1.00  0.00     0.174 HD
ENDBRANCH   7  30
TORSDOF 8
ENDMDL
MODEL 4
REMARK VINA RESULT: -8.445057970      2.247      6.429
REMARK  8 active torsions:
REMARK  status: ('A' for Active; 'I' for Inactive)
REMARK    1  A    between atoms: C3_4  and  N2_5 
REMARK    2  A    between atoms: C4_7  and  C5_8 
REMARK    3  A    between atoms: C5_8  and  C7_11 
REMARK    4  A    between atoms: C7_11  and  C9_14 
REMARK    5  A    between atoms: C9_14  and  N5_15 
REMARK    6  A    between atoms: C9_14  and  O1_19 
REMARK    7  A    between atoms: C10_23  and  N7_24 
REMARK    8  A    between atoms: C11_29  and  N9_30 
ROOT
HETATM    1  N1  UNL     1      16.690  37.937  -6.808  1.00  0.00    -0.191 NA
HETATM    2  C1  UNL     1      17.123  37.300  -7.682  1.00  0.00     0.107 C 
HETATM    3  C2  UNL     1      17.673  36.525  -8.766  1.00  0.00     0.133 A 
HETATM    4  C3  UNL     1      17.127  35.285  -9.112  1.00  0.00     0.145 A 
HETATM    5  N6  UNL     1      17.674  34.606 -10.127  1.00  0.00    -0.175 N 
ATOM      6  H6  UNL     1      17.268  33.703 -10.369  1.00  0.00     0.186 HD
HETATM    7  C10 UNL     1      18.725  35.035 -10.847  1.00  0.00     0.679 A 
HETATM    8  N8  UNL     1      19.262  36.226 -10.526  1.00  0.00    -0.176 N 
ATOM      9  H8  UNL     1      20.060  36.582 -11.051  1.00  0.00     0.186 HD
HETATM   10  C11 UNL     1      18.747  36.948  -9.513  1.00  0.00     0.139 A 
ENDROOT
BRANCH   4  11
HETATM   11  N2  UNL     1      16.014  34.803  -8.368  1.00  0.00    -0.353 N 
HETATM   12  C4  UNL     1      15.974  33.639  -7.832  1.00  0.00     0.083 C 
ATOM     13  H2  UNL     1      15.206  35.415  -8.256  1.00  0.00     0.166 HD
BRANCH  12  14
HETATM   14  C5  UNL     1      14.774  33.227  -7.076  1.00  0.00     0.153 C 
HETATM   15  C6  UNL     1      13.787  34.323  -7.153  1.00  0.00     0.070 C 
HETATM   16  N3  UNL     1      13.020  35.187  -7.211  1.00  0.00    -0.197 NA
BRANCH  14  17
HETATM   17  C7  UNL     1      14.107  32.012  -7.677  1.00  0.00     0.171 C 
HETATM   18  C8  UNL     1      15.169  30.998  -7.860  1.00  0.00     0.070 C 
HETATM   19  N4  UNL     1      16.008  30.210  -7.986  1.00  0.00    -0.197 NA
BRANCH  17  20
HETATM   20  C9  UNL     1      13.526  32.280  -9.037  1.00  0.00     0.335 C 
BRANCH  20  21
HETATM   21  N5  UNL     1      12.197  31.697  -9.066  1.00  0.00    -0.052 N 
ATOM     22  H53 UNL     1      11.650  31.995  -9.873  1.00  0.00     0.277 HD
ATOM     23  H52 UNL     1      12.205  30.699  -9.272  1.00  0.00     0.277 HD
ATOM     24  H51 UNL     1      11.747  31.916  -8.177  1.00  0.00     0.277 HD
ENDBRANCH  20  21
BRANCH  20  25
HETATM   25  O1  UNL     1      14.322  31.676 -10.005  1.00  0.00    -0.369 OA
ATOM     26  H1  UNL     1      13.776  31.393 -10.728  1.00  0.00     0.212 HD
ENDBRANCH  20  25
ENDBRANCH  17  20
ENDBRANCH  14  17
ENDBRANCH  12  14
ENDBRANCH   4  11
BRANCH  10  27
HETATM   27  N9  UNL     1      19.265  38.109  -9.195  1.00  0.00    -0.384 N 
ATOM     28  H92 UNL     1      18.734  38.776  -8.636  1.00  0.00     0.157 HD
ATOM     29  H91 UNL     1      20.208  38.299  -9.535  1.00  0.00     0.157 HD
ENDBRANCH  10  27
BRANCH   7  30
HETATM   30  N7  UNL     1      19.221  34.339 -11.822  1.00  0.00    -0.234 N 
ATOM     31  H72 UNL     1      18.806  34.394 -12.752  1.00  0.00     0.174 HD
ATOM     32  H71 UNL     1      20.026  33.726 -11.694  1.00  0.00     0.174 HD
ENDBRANCH   7  30
TORSDOF 8
ENDMDL
MODEL 5
REMARK VINA RESULT: -8.424517285      1.622      2.615
REMARK  8 active torsions:
REMARK  status: ('A' for Active; 'I' for Inactive)
REMARK    1  A    between atoms: C3_4  and  N2_5 
REMARK    2  A    between atoms: C4_7  and  C5_8 
REMARK    3  A    between atoms: C5_8  and  C7_11 
REMARK    4  A    between atoms: C7_11  and  C9_14 
REMARK    5  A    between atoms: C9_14  and  N5_15 
REMARK    6  A    between atoms: C9_14  and  O1_19 
REMARK    7  A    between atoms: C10_23  and  N7_24 
REMARK    8  A    between atoms: C11_29  and  N9_30 
ROOT
HETATM    1  N1  UNL     1      16.917  32.508  -9.964  1.00  0.00    -0.191 NA
HETATM    2  C1  UNL     1      15.941  32.922  -9.481  1.00  0.00     0.107 C 
HETATM    3  C2  UNL     1      14.723  33.416  -8.887  1.00  0.00     0.133 A 
HETATM    4  C3  UNL     1      14.685  34.670  -8.267  1.00  0.00     0.145 A 
HETATM    5  N6  UNL     1      13.530  35.082  -7.732  1.00  0.00    -0.175 N 
ATOM      6  H6  UNL     1      13.514  35.997  -7.282  1.00  0.00     0.186 HD
HETATM    7  C10 UNL     1      12.390  34.370  -7.747  1.00  0.00     0.679 A 
HETATM    8  N8  UNL     1      12.411  33.163  -8.340  1.00  0.00    -0.176 N 
ATOM      9  H8  UNL     1      11.564  32.596  -8.370  1.00  0.00     0.186 HD
HETATM   10  C11 UNL     1      13.548  32.702  -8.894  1.00  0.00     0.139 A 
ENDROOT
BRANCH   4  11
HETATM   11  N2  UNL     1      15.876  35.447  -8.234  1.00  0.00    -0.353 N 
HETATM   12  C4  UNL     1      16.271  36.089  -7.197  1.00  0.00     0.083 C 
ATOM     13  H2  UNL     1      16.444  35.497  -9.079  1.00  0.00     0.166 HD
BRANCH  12  14
HETATM   14  C5  UNL     1      17.523  36.870  -7.258  1.00  0.00     0.153 C 
HETATM   15  C6  UNL     1      17.886  37.040  -8.679  1.00  0.00     0.070 C 
HETATM   16  N3  UNL     1      18.169  37.166  -9.794  1.00  0.00    -0.197 NA
BRANCH  14  17
HETATM   17  C7  UNL     1      17.361  38.261  -6.691  1.00  0.00     0.171 C 
HETATM   18  C8  UNL     1      18.554  39.027  -7.113  1.00  0.00     0.070 C 
HETATM   19  N4  UNL     1      19.487  39.618  -7.461  1.00  0.00    -0.197 NA
BRANCH  17  20
HETATM   20  C9  UNL     1      17.345  38.277  -5.188  1.00  0.00     0.335 C 
BRANCH  20  21
HETATM   21  N5  UNL     1      17.911  39.544  -4.760  1.00  0.00    -0.052 N 
ATOM     22  H53 UNL     1      18.929  39.529  -4.714  1.00  0.00     0.277 HD
ATOM     23  H52 UNL     1      17.820  40.277  -5.463  1.00  0.00     0.277 HD
ATOM     24  H51 UNL     1      17.475  39.789  -3.871  1.00  0.00     0.277 HD
ENDBRANCH  20  21
BRANCH  20  25
HETATM   25  O1  UNL     1      18.128  37.231  -4.708  1.00  0.00    -0.369 OA
ATOM     26  H1  UNL     1      18.951  37.212  -5.181  1.00  0.00     0.212 HD
ENDBRANCH  20  25
ENDBRANCH  17  20
ENDBRANCH  14  17
ENDBRANCH  12  14
ENDBRANCH   4  11
BRANCH  10  27
HETATM   27  N9  UNL     1      13.577  31.528  -9.473  1.00  0.00    -0.384 N 
ATOM     28  H92 UNL     1      14.153  30.777  -9.092  1.00  0.00     0.157 HD
ATOM     29  H91 UNL     1      13.002  31.414 -10.308  1.00  0.00     0.157 HD
ENDBRANCH  10  27
BRANCH   7  30
HETATM   30  N7  UNL     1      11.295  34.814  -7.214  1.00  0.00    -0.234 N 
ATOM     31  H72 UNL     1      10.906  35.708  -7.512  1.00  0.00     0.174 HD
ATOM     32  H71 UNL     1      10.795  34.294  -6.492  1.00  0.00     0.174 HD
ENDBRANCH   7  30
TORSDOF 8
ENDMDL
