MODEL 1
REMARK VINA RESULT: -8.083247652      0.000      0.000
REMARK  8 active torsions:
REMARK  status: ('A' for Active; 'I' for Inactive)
REMARK    1  A    between atoms: C5_5  and  C6_6 
REMARK    2  A    between atoms: C6_6  and  N1_7 
REMARK       I    between atoms: N1_7  and  C7_9 
REMARK    3  A    between atoms: C7_9  and  S1_11 
REMARK    4  A    between atoms: S1_11  and  N2_12 
REMARK    5  A    between atoms: N2_12  and  N3_13 
REMARK    6  A    between atoms: N2_12  and  C8_16 
REMARK    7  A    between atoms: C8_16  and  O2_17 
REMARK    8  A    between atoms: C8_16  and  N4_19 
REMARK       I    between atoms: N4_19  and  C9_21 
ROOT
HETATM    1  S1  UNL     1      17.665  35.378  -9.747  1.00  0.00     0.070 SA
ENDROOT
BRANCH   1   2
HETATM    2  C7  UNL     1      16.167  34.649  -9.130  1.00  0.00     0.301 C 
HETATM    3  N1  UNL     1      15.727  33.442  -9.708  1.00  0.00    -0.348 N 
ATOM      4  H1  UNL     1      16.258  33.002 -10.459  1.00  0.00     0.163 HD
HETATM    5  O1  UNL     1      15.483  35.158  -8.208  1.00  0.00    -0.259 OA
BRANCH   3   6
HETATM    6  C6  UNL     1      14.507  32.837  -9.216  1.00  0.00     0.156 C 
BRANCH   6   7
HETATM    7  C5  UNL     1      14.649  31.356  -9.133  1.00  0.00     0.206 C 
HETATM    8  C4  UNL     1      16.018  30.904  -8.731  1.00  0.00     0.072 C 
HETATM    9  C2  UNL     1      15.298  30.050  -7.736  1.00  0.00     0.121 C 
HETATM   10  C1  UNL     1      15.755  30.209  -6.302  1.00  0.00     0.046 C 
HETATM   11  C3  UNL     1      15.284  28.600  -8.121  1.00  0.00     0.046 C 
HETATM   12  N7  UNL     1      14.079  30.776  -7.950  1.00  0.00    -0.061 N 
ATOM     13  H72 UNL     1      13.188  30.281  -7.998  1.00  0.00     0.278 HD
ATOM     14  H71 UNL     1      13.701  31.374  -7.215  1.00  0.00     0.278 HD
ENDBRANCH   6   7
ENDBRANCH   3   6
ENDBRANCH   1   2
BRANCH   1  15
HETATM   15  N2  UNL     1      18.190  34.781 -11.264  1.00  0.00    -0.215 N 
BRANCH  15  16
HETATM   16  N3  UNL     1      19.444  34.209 -11.292  1.00  0.00    -0.333 N 
ATOM     17  H32 UNL     1      19.446  33.193 -11.202  1.00  0.00     0.177 HD
ATOM     18  H31 UNL     1      20.104  34.604 -11.961  1.00  0.00     0.177 HD
ENDBRANCH  15  16
BRANCH  15  19
HETATM   19  C8  UNL     1      17.884  35.590 -12.403  1.00  0.00     0.358 C 
BRANCH  19  20
HETATM   20  O2  UNL     1      16.558  35.406 -12.763  1.00  0.00    -0.358 OA
ATOM     21  H2  UNL     1      16.510  35.107 -13.664  1.00  0.00     0.214 HD
ENDBRANCH  19  20
BRANCH  19  22
HETATM   22  N4  UNL     1      18.814  35.376 -13.464  1.00  0.00    -0.320 N 
HETATM   23  C9  UNL     1      18.373  35.273 -14.810  1.00  0.00     0.185 C 
HETATM   24  N5  UNL     1      17.809  36.299 -15.344  1.00  0.00    -0.374 N 
HETATM   25  N6  UNL     1      18.553  34.071 -15.533  1.00  0.00    -0.064 NA
ATOM     26  H52 UNL     1      17.680  37.166 -14.823  1.00  0.00     0.158 HD
ATOM     27  H51 UNL     1      17.493  36.225 -16.311  1.00  0.00     0.158 HD
ATOM     28  H4  UNL     1      19.809  35.297 -13.253  1.00  0.00     0.166 HD
ENDBRANCH  19  22
ENDBRANCH  15  19
ENDBRANCH   1  15
TORSDOF 8
ENDMDL
MODEL 2
REMARK VINA RESULT: -8.058542994      2.013      2.516
REMARK  8 active torsions:
REMARK  status: ('A' for Active; 'I' for Inactive)
REMARK    1  A    between atoms: C5_5  and  C6_6 
REMARK    2  A    between atoms: C6_6  and  N1_7 
REMARK       I    between atoms: N1_7  and  C7_9 
REMARK    3  A    between atoms: C7_9  and  S1_11 
REMARK    4  A    between atoms: S1_11  and  N2_12 
REMARK    5  A    between atoms: N2_12  and  N3_13 
REMARK    6  A    between atoms: N2_12  and  C8_16 
REMARK    7  A    between atoms: C8_16  and  O2_17 
REMARK    8  A    between atoms: C8_16  and  N4_19 
REMARK       I    between atoms: N4_19  and  C9_21 
ROOT
HETATM    1  S1  UNL     1      17.965  37.346  -8.556  1.00  0.00     0.070 SA
ENDROOT
BRANCH   1   2
HETATM    2  C7  UNL     1      16.590  36.560  -7.749  1.00  0.00     0.301 C 
HETATM    3  N1  UNL     1      15.909  35.538  -8.438  1.00  0.00    -0.348 N 
ATOM      4  H1  UNL     1      16.202  35.259  -9.374  1.00  0.00     0.163 HD
HETATM    5  O1  UNL     1      16.197  36.874  -6.598  1.00  0.00    -0.259 OA
BRANCH   3   6
HETATM    6  C6  UNL     1      14.787  34.889  -7.794  1.00  0.00     0.156 C 
BRANCH   6   7
HETATM    7  C5  UNL     1      15.159  33.519  -7.340  1.00  0.00     0.206 C 
HETATM    8  C4  UNL     1      14.162  32.468  -7.717  1.00  0.00     0.072 C 
HETATM    9  C2  UNL     1      15.349  31.714  -8.224  1.00  0.00     0.121 C 
HETATM   10  C1  UNL     1      15.251  31.248  -9.661  1.00  0.00     0.046 C 
HETATM   11  C3  UNL     1      15.732  30.571  -7.330  1.00  0.00     0.046 C 
HETATM   12  N7  UNL     1      16.170  32.888  -8.140  1.00  0.00    -0.061 N 
ATOM     13  H72 UNL     1      17.128  32.822  -7.799  1.00  0.00     0.278 HD
ATOM     14  H71 UNL     1      16.509  33.340  -8.990  1.00  0.00     0.278 HD
ENDBRANCH   6   7
ENDBRANCH   3   6
ENDBRANCH   1   2
BRANCH   1  15
HETATM   15  N2  UNL     1      18.992  36.289  -9.429  1.00  0.00    -0.215 N 
BRANCH  15  16
HETATM   16  N3  UNL     1      20.233  36.787  -9.766  1.00  0.00    -0.333 N 
ATOM     17  H32 UNL     1      20.630  37.429  -9.079  1.00  0.00     0.177 HD
ATOM     18  H31 UNL     1      20.881  36.128 -10.195  1.00  0.00     0.177 HD
ENDBRANCH  15  16
BRANCH  15  19
HETATM   19  C8  UNL     1      18.372  35.506 -10.453  1.00  0.00     0.358 C 
BRANCH  19  20
HETATM   20  O2  UNL     1      18.199  34.205 -10.005  1.00  0.00    -0.358 OA
ATOM     21  H2  UNL     1      17.670  33.720 -10.627  1.00  0.00     0.214 HD
ENDBRANCH  19  20
BRANCH  19  22
HETATM   22  N4  UNL     1      19.073  35.609 -11.691  1.00  0.00    -0.320 N 
HETATM   23  C9  UNL     1      18.434  35.293 -12.919  1.00  0.00     0.185 C 
HETATM   24  N5  UNL     1      17.431  36.012 -13.284  1.00  0.00    -0.374 N 
HETATM   25  N6  UNL     1      18.896  34.215 -13.710  1.00  0.00    -0.064 NA
ATOM     26  H52 UNL     1      17.099  36.789 -12.714  1.00  0.00     0.158 HD
ATOM     27  H51 UNL     1      16.973  35.785 -14.167  1.00  0.00     0.158 HD
ATOM     28  H4  UNL     1      20.046  35.916 -11.694  1.00  0.00     0.166 HD
ENDBRANCH  19  22
ENDBRANCH  15  19
ENDBRANCH   1  15
TORSDOF 8
ENDMDL
MODEL 3
REMARK VINA RESULT: -7.944934302      2.844      3.685
REMARK  8 active torsions:
REMARK  status: ('A' for Active; 'I' for Inactive)
REMARK    1  A    between atoms: C5_5  and  C6_6 
REMARK    2  A    between atoms: C6_6  and  N1_7 
REMARK       I    between atoms: N1_7  and  C7_9 
REMARK    3  A    between atoms: C7_9  and  S1_11 
REMARK    4  A    between atoms: S1_11  and  N2_12 
REMARK    5  A    between atoms: N2_12  and  N3_13 
REMARK    6  A    between atoms: N2_12  and  C8_16 
REMARK    7  A    between atoms: C8_16  and  O2_17 
REMARK    8  A    between atoms: C8_16  and  N4_19 
REMARK       I    between atoms: N4_19  and  C9_21 
ROOT
HETATM    1  S1  UNL     1      18.081  37.072  -6.759  1.00  0.00     0.070 SA
ENDROOT
BRANCH   1   2
HETATM    2  C7  UNL     1      16.564  36.416  -7.409  1.00  0.00     0.301 C 
HETATM    3  N1  UNL     1      16.204  35.099  -7.060  1.00  0.00    -0.348 N 
ATOM      4  H1  UNL     1      16.802  34.543  -6.449  1.00  0.00     0.163 HD
HETATM    5  O1  UNL     1      15.799  37.067  -8.164  1.00  0.00    -0.259 OA
BRANCH   3   6
HETATM    6  C6  UNL     1      14.971  34.551  -7.583  1.00  0.00     0.156 C 
BRANCH   6   7
HETATM    7  C5  UNL     1      14.896  33.084  -7.328  1.00  0.00     0.206 C 
HETATM    8  C4  UNL     1      14.195  32.320  -8.408  1.00  0.00     0.072 C 
HETATM    9  C2  UNL     1      15.387  31.419  -8.360  1.00  0.00     0.121 C 
HETATM   10  C1  UNL     1      16.074  31.189  -9.689  1.00  0.00     0.046 C 
HETATM   11  C3  UNL     1      15.095  30.109  -7.690  1.00  0.00     0.046 C 
HETATM   12  N7  UNL     1      16.120  32.379  -7.585  1.00  0.00    -0.061 N 
ATOM     13  H72 UNL     1      16.709  32.073  -6.811  1.00  0.00     0.278 HD
ATOM     14  H71 UNL     1      16.918  32.867  -7.993  1.00  0.00     0.278 HD
ENDBRANCH   6   7
ENDBRANCH   3   6
ENDBRANCH   1   2
BRANCH   1  15
HETATM   15  N2  UNL     1      18.967  38.057  -7.844  1.00  0.00    -0.215 N 
BRANCH  15  16
HETATM   16  N3  UNL     1      18.855  39.419  -7.659  1.00  0.00    -0.333 N 
ATOM     17  H32 UNL     1      19.423  39.789  -6.898  1.00  0.00     0.177 HD
ATOM     18  H31 UNL     1      18.811  39.985  -8.506  1.00  0.00     0.177 HD
ENDBRANCH  15  16
BRANCH  15  19
HETATM   19  C8  UNL     1      18.973  37.644  -9.214  1.00  0.00     0.358 C 
BRANCH  19  20
HETATM   20  O2  UNL     1      17.795  38.044  -9.826  1.00  0.00    -0.358 OA
ATOM     21  H2  UNL     1      17.507  37.373 -10.433  1.00  0.00     0.214 HD
ENDBRANCH  19  20
BRANCH  19  22
HETATM   22  N4  UNL     1      19.255  36.252  -9.342  1.00  0.00    -0.320 N 
HETATM   23  C9  UNL     1      18.541  35.445 -10.266  1.00  0.00     0.185 C 
HETATM   24  N5  UNL     1      18.658  35.711 -11.520  1.00  0.00    -0.374 N 
HETATM   25  N6  UNL     1      17.727  34.382  -9.811  1.00  0.00    -0.064 NA
ATOM     26  H52 UNL     1      19.245  36.477 -11.849  1.00  0.00     0.158 HD
ATOM     27  H51 UNL     1      18.144  35.131 -12.184  1.00  0.00     0.158 HD
ATOM     28  H4  UNL     1      19.981  35.830  -8.762  1.00  0.00     0.166 HD
ENDBRANCH  19  22
ENDBRANCH  15  19
ENDBRANCH   1  15
TORSDOF 8
ENDMDL
MODEL 4
REMARK VINA RESULT: -7.934456705      3.436      4.341
REMARK  8 active torsions:
REMARK  status: ('A' for Active; 'I' for Inactive)
REMARK    1  A    between atoms: C5_5  and  C6_6 
REMARK    2  A    between atoms: C6_6  and  N1_7 
REMARK       I    between atoms: N1_7  and  C7_9 
REMARK    3  A    between atoms: C7_9  and  S1_11 
REMARK    4  A    between atoms: S1_11  and  N2_12 
REMARK    5  A    between atoms: N2_12  and  N3_13 
REMARK    6  A    between atoms: N2_12  and  C8_16 
REMARK    7  A    between atoms: C8_16  and  O2_17 
REMARK    8  A    between atoms: C8_16  and  N4_19 
REMARK       I    between atoms: N4_19  and  C9_21 
ROOT
HETATM    1  S1  UNL     1      17.341  37.072  -6.195  1.00  0.00     0.070 SA
ENDROOT
BRANCH   1   2
HETATM    2  C7  UNL     1      16.305  36.089  -7.253  1.00  0.00     0.301 C 
HETATM    3  N1  UNL     1      16.232  34.703  -7.013  1.00  0.00    -0.348 N 
ATOM      4  H1  UNL     1      16.761  34.281  -6.250  1.00  0.00     0.163 HD
HETATM    5  O1  UNL     1      15.638  36.570  -8.203  1.00  0.00    -0.259 OA
BRANCH   3   6
HETATM    6  C6  UNL     1      15.394  33.889  -7.867  1.00  0.00     0.156 C 
BRANCH   6   7
HETATM    7  C5  UNL     1      15.345  32.484  -7.374  1.00  0.00     0.206 C 
HETATM    8  C4  UNL     1      14.198  31.693  -7.919  1.00  0.00     0.072 C 
HETATM    9  C2  UNL     1      15.232  30.661  -8.236  1.00  0.00     0.121 C 
HETATM   10  C1  UNL     1      15.253  30.192  -9.675  1.00  0.00     0.046 C 
HETATM   11  C3  UNL     1      15.180  29.485  -7.306  1.00  0.00     0.046 C 
HETATM   12  N7  UNL     1      16.288  31.605  -8.008  1.00  0.00    -0.061 N 
ATOM     13  H72 UNL     1      17.135  31.320  -7.517  1.00  0.00     0.278 HD
ATOM     14  H71 UNL     1      16.857  31.938  -8.786  1.00  0.00     0.278 HD
ENDBRANCH   6   7
ENDBRANCH   3   6
ENDBRANCH   1   2
BRANCH   1  15
HETATM   15  N2  UNL     1      17.936  38.513  -6.902  1.00  0.00    -0.215 N 
BRANCH  15  16
HETATM   16  N3  UNL     1      17.018  39.276  -7.593  1.00  0.00    -0.333 N 
ATOM     17  H32 UNL     1      16.433  39.868  -7.004  1.00  0.00     0.177 HD
ATOM     18  H31 UNL     1      17.344  39.691  -8.466  1.00  0.00     0.177 HD
ENDBRANCH  15  16
BRANCH  15  19
HETATM   19  C8  UNL     1      19.222  38.430  -7.522  1.00  0.00     0.358 C 
BRANCH  19  20
HETATM   20  O2  UNL     1      19.308  39.362  -8.545  1.00  0.00    -0.358 OA
ATOM     21  H2  UNL     1      20.184  39.729  -8.570  1.00  0.00     0.214 HD
ENDBRANCH  19  20
BRANCH  19  22
HETATM   22  N4  UNL     1      19.529  37.095  -7.920  1.00  0.00    -0.320 N 
HETATM   23  C9  UNL     1      19.589  36.738  -9.293  1.00  0.00     0.185 C 
HETATM   24  N5  UNL     1      20.490  37.295 -10.025  1.00  0.00    -0.374 N 
HETATM   25  N6  UNL     1      18.680  35.798  -9.831  1.00  0.00    -0.064 NA
ATOM     26  H52 UNL     1      21.145  37.973  -9.638  1.00  0.00     0.158 HD
ATOM     27  H51 UNL     1      20.533  37.039 -11.012  1.00  0.00     0.158 HD
ATOM     28  H4  UNL     1      19.707  36.386  -7.208  1.00  0.00     0.166 HD
ENDBRANCH  19  22
ENDBRANCH  15  19
ENDBRANCH   1  15
TORSDOF 8
ENDMDL
MODEL 5
REMARK VINA RESULT: -7.876995123      1.694      2.543
REMARK  8 active torsions:
REMARK  status: ('A' for Active; 'I' for Inactive)
REMARK    1  A    between atoms: C5_5  and  C6_6 
REMARK    2  A    between atoms: C6_6  and  N1_7 
REMARK       I    between atoms: N1_7  and  C7_9 
REMARK    3  A    between atoms: C7_9  and  S1_11 
REMARK    4  A    between atoms: S1_11  and  N2_12 
REMARK    5  A    between atoms: N2_12  and  N3_13 
REMARK    6  A    between atoms: N2_12  and  C8_16 
REMARK    7  A    between atoms: C8_16  and  O2_17 
REMARK    8  A    between atoms: C8_16  and  N4_19 
REMARK       I    between atoms: N4_19  and  C9_21 
ROOT
HETATM    1  S1  UNL     1      17.251  35.109  -9.880  1.00  0.00     0.070 SA
ENDROOT
BRANCH   1   2
HETATM    2  C7  UNL     1      16.246  33.655  -9.693  1.00  0.00     0.301 C 
HETATM    3  N1  UNL     1      16.313  32.952  -8.474  1.00  0.00    -0.348 N 
ATOM      4  H1  UNL     1      16.922  33.274  -7.722  1.00  0.00     0.163 HD
HETATM    5  O1  UNL     1      15.483  33.225 -10.593  1.00  0.00    -0.259 OA
BRANCH   3   6
HETATM    6  C6  UNL     1      15.501  31.766  -8.307  1.00  0.00     0.156 C 
BRANCH   6   7
HETATM    7  C5  UNL     1      14.307  32.058  -7.463  1.00  0.00     0.206 C 
HETATM    8  C4  UNL     1      13.986  33.516  -7.357  1.00  0.00     0.072 C 
HETATM    9  C2  UNL     1      12.594  33.099  -7.707  1.00  0.00     0.121 C 
HETATM   10  C1  UNL     1      11.982  33.825  -8.886  1.00  0.00     0.046 C 
HETATM   11  C3  UNL     1      11.664  33.139  -6.530  1.00  0.00     0.046 C 
HETATM   12  N7  UNL     1      13.052  31.800  -8.111  1.00  0.00    -0.061 N 
ATOM     13  H72 UNL     1      12.512  30.968  -7.873  1.00  0.00     0.278 HD
ATOM     14  H71 UNL     1      13.027  31.529  -9.094  1.00  0.00     0.278 HD
ENDBRANCH   6   7
ENDBRANCH   3   6
ENDBRANCH   1   2
BRANCH   1  15
HETATM   15  N2  UNL     1      18.345  35.067 -11.197  1.00  0.00    -0.215 N 
BRANCH  15  16
HETATM   16  N3  UNL     1      19.665  35.333 -10.899  1.00  0.00    -0.333 N 
ATOM     17  H32 UNL     1      19.868  35.396  -9.901  1.00  0.00     0.177 HD
ATOM     18  H31 UNL     1      20.360  34.854 -11.471  1.00  0.00     0.177 HD
ENDBRANCH  15  16
BRANCH  15  19
HETATM   19  C8  UNL     1      17.886  35.650 -12.420  1.00  0.00     0.358 C 
BRANCH  19  20
HETATM   20  O2  UNL     1      16.583  35.248 -12.668  1.00  0.00    -0.358 OA
ATOM     21  H2  UNL     1      15.989  35.716 -12.092  1.00  0.00     0.214 HD
ENDBRANCH  19  20
BRANCH  19  22
HETATM   22  N4  UNL     1      18.791  35.398 -13.494  1.00  0.00    -0.320 N 
HETATM   23  C9  UNL     1      18.322  35.274 -14.829  1.00  0.00     0.185 C 
HETATM   24  N5  UNL     1      17.767  36.300 -15.373  1.00  0.00    -0.374 N 
HETATM   25  N6  UNL     1      18.467  34.055 -15.529  1.00  0.00    -0.064 NA
ATOM     26  H52 UNL     1      17.663  37.179 -14.868  1.00  0.00     0.158 HD
ATOM     27  H51 UNL     1      17.430  36.211 -16.332  1.00  0.00     0.158 HD
ATOM     28  H4  UNL     1      19.788  35.305 -13.301  1.00  0.00     0.166 HD
ENDBRANCH  19  22
ENDBRANCH  15  19
ENDBRANCH   1  15
TORSDOF 8
ENDMDL
