MODEL 1
REMARK VINA RESULT: -8.523607833      0.000      0.000
REMARK  5 active torsions:
REMARK  status: ('A' for Active; 'I' for Inactive)
REMARK    1  A    between atoms: C2_2  and  N1_3 
REMARK    2  A    between atoms: C3_5  and  C4_6 
REMARK    3  A    between atoms: C12_14  and  C13_15 
REMARK    4  A    between atoms: C27_31  and  C28_32 
REMARK    5  A    between atoms: C28_32  and  O2_33 
ROOT
HETATM    1  C4  UNL     1      20.618  13.299  32.548  1.00  0.00     0.262 C 
HETATM    2  C5  UNL     1      20.734  12.187  33.572  1.00  0.00     0.048 C 
HETATM    3  C6  UNL     1      21.916  11.397  32.960  1.00  0.00     0.022 C 
HETATM    4  C7  UNL     1      22.391  10.357  33.940  1.00  0.00     0.012 C 
HETATM    5  C8  UNL     1      22.821  12.579  32.845  1.00  0.00     0.256 C 
HETATM    6  C9  UNL     1      24.015  12.439  32.069  1.00  0.00    -0.053 C 
HETATM    7  C10 UNL     1      23.410  11.631  31.003  1.00  0.00     0.045 C 
HETATM    8  C11 UNL     1      25.312  12.742  31.599  1.00  0.00    -0.001 C 
HETATM    9  C12 UNL     1      25.468  14.198  30.950  1.00  0.00     0.053 C 
HETATM   10  C14 UNL     1      25.831  15.022  32.095  1.00  0.00    -0.008 C 
HETATM   11  C15 UNL     1      25.349  16.042  32.730  1.00  0.00    -0.004 C 
HETATM   12  C16 UNL     1      24.138  16.819  32.500  1.00  0.00     0.116 C 
HETATM   13  C17 UNL     1      23.579  16.686  31.121  1.00  0.00     0.056 C 
HETATM   14  C18 UNL     1      24.705  17.229  30.331  1.00  0.00    -0.050 C 
HETATM   15  C19 UNL     1      25.275  18.164  31.057  1.00  0.00     0.010 C 
HETATM   16  C20 UNL     1      26.443  19.088  30.836  1.00  0.00     0.057 C 
HETATM   17  C21 UNL     1      25.922  20.448  31.325  1.00  0.00     0.007 C 
HETATM   18  C22 UNL     1      25.716  20.321  32.803  1.00  0.00     0.020 C 
HETATM   19  C23 UNL     1      24.569  19.396  33.138  1.00  0.00     0.123 C 
HETATM   20  N2  UNL     1      24.622  18.219  32.353  1.00  0.00    -0.375 N 
HETATM   21  C24 UNL     1      25.079  16.733  28.993  1.00  0.00     0.037 C 
HETATM   22  C25 UNL     1      24.771  15.307  28.896  1.00  0.00     0.011 C 
HETATM   23  C26 UNL     1      24.308  14.598  30.162  1.00  0.00     0.022 C 
HETATM   24  C27 UNL     1      23.155  15.309  30.719  1.00  0.00     0.022 C 
HETATM   25  C29 UNL     1      22.392  14.769  31.867  1.00  0.00     0.287 C 
HETATM   26  N3  UNL     1      21.917  13.445  31.982  1.00  0.00     0.107 N 
ENDROOT
BRANCH   1  27
HETATM   27  C3  UNL     1      19.594  12.858  31.556  1.00  0.00     0.095 C 
HETATM   28  N1  UNL     1      18.355  12.754  31.843  1.00  0.00    -0.381 N 
ATOM     29  H1  UNL     1      18.075  12.986  32.796  1.00  0.00     0.164 HD
BRANCH  28  30
HETATM   30  C2  UNL     1      17.343  12.345  30.955  1.00  0.00     0.056 C 
HETATM   31  C1  UNL     1      16.083  13.137  31.242  1.00  0.00     0.054 C 
ENDBRANCH  28  30
ENDBRANCH   1  27
BRANCH  24  32
HETATM   32  C28 UNL     1      22.143  15.508  29.602  1.00  0.00     0.176 C 
BRANCH  32  33
HETATM   33  O2  UNL     1      21.169  16.452  29.979  1.00  0.00    -0.400 OA
ATOM     34  H2  UNL     1      20.340  16.023  30.158  1.00  0.00     0.209 HD
ENDBRANCH  32  33
ENDBRANCH  24  32
BRANCH   9  35
HETATM   35  C13 UNL     1      26.708  14.043  30.145  1.00  0.00     0.249 C 
HETATM   36  O1  UNL     1      27.818  14.343  30.561  1.00  0.00    -0.305 OA
ENDBRANCH   9  35
TORSDOF 5
ENDMDL
MODEL 2
REMARK VINA RESULT: -8.299646262      2.411      6.798
REMARK  5 active torsions:
REMARK  status: ('A' for Active; 'I' for Inactive)
REMARK    1  A    between atoms: C2_2  and  N1_3 
REMARK    2  A    between atoms: C3_5  and  C4_6 
REMARK    3  A    between atoms: C12_14  and  C13_15 
REMARK    4  A    between atoms: C27_31  and  C28_32 
REMARK    5  A    between atoms: C28_32  and  O2_33 
ROOT
HETATM    1  C4  UNL     1      26.014  14.620  30.641  1.00  0.00     0.262 C 
HETATM    2  C5  UNL     1      27.040  13.841  29.840  1.00  0.00     0.048 C 
HETATM    3  C6  UNL     1      26.843  12.438  30.466  1.00  0.00     0.022 C 
HETATM    4  C7  UNL     1      27.595  11.414  29.658  1.00  0.00     0.012 C 
HETATM    5  C8  UNL     1      25.365  12.408  30.260  1.00  0.00     0.256 C 
HETATM    6  C9  UNL     1      24.615  11.383  30.922  1.00  0.00    -0.053 C 
HETATM    7  C10 UNL     1      25.372  11.427  32.178  1.00  0.00     0.045 C 
HETATM    8  C11 UNL     1      23.523  10.528  31.189  1.00  0.00    -0.001 C 
HETATM    9  C12 UNL     1      22.150  11.278  31.529  1.00  0.00     0.053 C 
HETATM   10  C14 UNL     1      21.537  11.437  30.218  1.00  0.00    -0.008 C 
HETATM   11  C15 UNL     1      21.152  12.409  29.453  1.00  0.00    -0.004 C 
HETATM   12  C16 UNL     1      21.196  13.850  29.655  1.00  0.00     0.116 C 
HETATM   13  C17 UNL     1      21.329  14.264  31.083  1.00  0.00     0.056 C 
HETATM   14  C18 UNL     1      20.079  13.698  31.636  1.00  0.00    -0.050 C 
HETATM   15  C19 UNL     1      19.170  13.767  30.690  1.00  0.00     0.010 C 
HETATM   16  C20 UNL     1      17.718  13.374  30.610  1.00  0.00     0.057 C 
HETATM   17  C21 UNL     1      17.058  14.581  29.928  1.00  0.00     0.007 C 
HETATM   18  C22 UNL     1      17.593  14.630  28.530  1.00  0.00     0.020 C 
HETATM   19  C23 UNL     1      19.058  15.001  28.497  1.00  0.00     0.123 C 
HETATM   20  N2  UNL     1      19.783  14.289  29.482  1.00  0.00    -0.375 N 
HETATM   21  C24 UNL     1      19.965  13.144  32.998  1.00  0.00     0.037 C 
HETATM   22  C25 UNL     1      21.243  12.555  33.395  1.00  0.00     0.011 C 
HETATM   23  C26 UNL     1      22.341  12.475  32.342  1.00  0.00     0.022 C 
HETATM   24  C27 UNL     1      22.570  13.808  31.782  1.00  0.00     0.022 C 
HETATM   25  C29 UNL     1      23.684  14.072  30.842  1.00  0.00     0.287 C 
HETATM   26  N3  UNL     1      25.024  13.673  31.031  1.00  0.00     0.107 N 
ENDROOT
BRANCH   1  27
HETATM   27  C3  UNL     1      26.742  15.216  31.798  1.00  0.00     0.095 C 
HETATM   28  N1  UNL     1      26.409  16.330  32.323  1.00  0.00    -0.381 N 
ATOM     29  H1  UNL     1      25.610  16.817  31.918  1.00  0.00     0.164 HD
BRANCH  28  30
HETATM   30  C2  UNL     1      27.054  16.944  33.413  1.00  0.00     0.056 C 
HETATM   31  C1  UNL     1      28.414  16.305  33.607  1.00  0.00     0.054 C 
ENDBRANCH  28  30
ENDBRANCH   1  27
BRANCH  24  32
HETATM   32  C28 UNL     1      22.763  14.776  32.939  1.00  0.00     0.176 C 
BRANCH  32  33
HETATM   33  O2  UNL     1      23.202  16.027  32.469  1.00  0.00    -0.400 OA
ATOM     34  H2  UNL     1      23.882  16.376  33.034  1.00  0.00     0.209 HD
ENDBRANCH  32  33
ENDBRANCH  24  32
BRANCH   9  35
HETATM   35  C13 UNL     1      21.379  10.210  32.217  1.00  0.00     0.249 C 
HETATM   36  O1  UNL     1      21.618   9.019  32.082  1.00  0.00    -0.305 OA
ENDBRANCH   9  35
TORSDOF 5
ENDMDL
MODEL 3
REMARK VINA RESULT: -7.557213649      2.285      7.009
REMARK  5 active torsions:
REMARK  status: ('A' for Active; 'I' for Inactive)
REMARK    1  A    between atoms: C2_2  and  N1_3 
REMARK    2  A    between atoms: C3_5  and  C4_6 
REMARK    3  A    between atoms: C12_14  and  C13_15 
REMARK    4  A    between atoms: C27_31  and  C28_32 
REMARK    5  A    between atoms: C28_32  and  O2_33 
ROOT
HETATM    1  C4  UNL     1      25.021  15.236  30.102  1.00  0.00     0.262 C 
HETATM    2  C5  UNL     1      25.996  14.684  29.080  1.00  0.00     0.048 C 
HETATM    3  C6  UNL     1      26.277  13.300  29.715  1.00  0.00     0.022 C 
HETATM    4  C7  UNL     1      27.049  12.446  28.745  1.00  0.00     0.012 C 
HETATM    5  C8  UNL     1      24.839  12.920  29.846  1.00  0.00     0.256 C 
HETATM    6  C9  UNL     1      24.516  11.777  30.645  1.00  0.00    -0.053 C 
HETATM    7  C10 UNL     1      25.501  12.044  31.699  1.00  0.00     0.045 C 
HETATM    8  C11 UNL     1      23.741  10.704  31.139  1.00  0.00    -0.001 C 
HETATM    9  C12 UNL     1      22.341  11.129  31.790  1.00  0.00     0.053 C 
HETATM   10  C14 UNL     1      21.433  11.091  30.652  1.00  0.00    -0.008 C 
HETATM   11  C15 UNL     1      20.672  11.916  30.008  1.00  0.00    -0.004 C 
HETATM   12  C16 UNL     1      20.420  13.336  30.214  1.00  0.00     0.116 C 
HETATM   13  C17 UNL     1      20.767  13.825  31.582  1.00  0.00     0.056 C 
HETATM   14  C18 UNL     1      19.839  13.007  32.393  1.00  0.00    -0.050 C 
HETATM   15  C19 UNL     1      18.752  12.827  31.677  1.00  0.00     0.010 C 
HETATM   16  C20 UNL     1      17.452  12.107  31.920  1.00  0.00     0.057 C 
HETATM   17  C21 UNL     1      16.393  13.101  31.421  1.00  0.00     0.007 C 
HETATM   18  C22 UNL     1      16.579  13.217  29.940  1.00  0.00     0.020 C 
HETATM   19  C23 UNL     1      17.871  13.915  29.584  1.00  0.00     0.123 C 
HETATM   20  N2  UNL     1      18.942  13.429  30.370  1.00  0.00    -0.375 N 
HETATM   21  C24 UNL     1      20.163  12.496  33.738  1.00  0.00     0.037 C 
HETATM   22  C25 UNL     1      21.598  12.234  33.830  1.00  0.00     0.011 C 
HETATM   23  C26 UNL     1      22.422  12.368  32.556  1.00  0.00     0.022 C 
HETATM   24  C27 UNL     1      22.204  13.696  31.977  1.00  0.00     0.022 C 
HETATM   25  C29 UNL     1      22.988  14.173  30.815  1.00  0.00     0.287 C 
HETATM   26  N3  UNL     1      24.391  14.102  30.692  1.00  0.00     0.107 N 
ENDROOT
BRANCH   1  27
HETATM   27  C3  UNL     1      25.827  16.029  31.075  1.00  0.00     0.095 C 
HETATM   28  N1  UNL     1      25.715  15.892  32.338  1.00  0.00    -0.381 N 
ATOM     29  H1  UNL     1      25.040  15.206  32.676  1.00  0.00     0.164 HD
BRANCH  28  30
HETATM   30  C2  UNL     1      26.445  16.608  33.305  1.00  0.00     0.056 C 
HETATM   31  C1  UNL     1      27.913  16.250  33.182  1.00  0.00     0.054 C 
ENDBRANCH  28  30
ENDBRANCH   1  27
BRANCH  24  32
HETATM   32  C28 UNL     1      22.416  14.726  33.075  1.00  0.00     0.176 C 
BRANCH  32  33
HETATM   33  O2  UNL     1      21.533  15.810  32.913  1.00  0.00    -0.400 OA
ATOM     34  H2  UNL     1      20.632  15.523  33.000  1.00  0.00     0.209 HD
ENDBRANCH  32  33
ENDBRANCH  24  32
BRANCH   9  35
HETATM   35  C13 UNL     1      22.014   9.940  32.619  1.00  0.00     0.249 C 
HETATM   36  O1  UNL     1      22.411   8.813  32.359  1.00  0.00    -0.305 OA
ENDBRANCH   9  35
TORSDOF 5
ENDMDL
MODEL 4
REMARK VINA RESULT: -6.603343714      3.167      5.978
REMARK  5 active torsions:
REMARK  status: ('A' for Active; 'I' for Inactive)
REMARK    1  A    between atoms: C2_2  and  N1_3 
REMARK    2  A    between atoms: C3_5  and  C4_6 
REMARK    3  A    between atoms: C12_14  and  C13_15 
REMARK    4  A    between atoms: C27_31  and  C28_32 
REMARK    5  A    between atoms: C28_32  and  O2_33 
ROOT
HETATM    1  C4  UNL     1      28.012  12.727  30.382  1.00  0.00     0.262 C 
HETATM    2  C5  UNL     1      27.400  11.580  29.602  1.00  0.00     0.048 C 
HETATM    3  C6  UNL     1      26.025  11.494  30.310  1.00  0.00     0.022 C 
HETATM    4  C7  UNL     1      25.119  10.568  29.543  1.00  0.00     0.012 C 
HETATM    5  C8  UNL     1      25.698  12.941  30.141  1.00  0.00     0.256 C 
HETATM    6  C9  UNL     1      24.589  13.469  30.876  1.00  0.00    -0.053 C 
HETATM    7  C10 UNL     1      24.853  12.720  32.110  1.00  0.00     0.045 C 
HETATM    8  C11 UNL     1      23.557  14.372  31.216  1.00  0.00    -0.001 C 
HETATM    9  C12 UNL     1      24.048  15.860  31.547  1.00  0.00     0.053 C 
HETATM   10  C14 UNL     1      24.007  16.508  30.243  1.00  0.00    -0.008 C 
HETATM   11  C15 UNL     1      24.839  17.084  29.435  1.00  0.00    -0.004 C 
HETATM   12  C16 UNL     1      26.272  17.318  29.554  1.00  0.00     0.116 C 
HETATM   13  C17 UNL     1      26.787  17.249  30.954  1.00  0.00     0.056 C 
HETATM   14  C18 UNL     1      26.025  18.359  31.567  1.00  0.00    -0.050 C 
HETATM   15  C19 UNL     1      25.861  19.276  30.640  1.00  0.00     0.010 C 
HETATM   16  C20 UNL     1      25.192  20.625  30.616  1.00  0.00     0.057 C 
HETATM   17  C21 UNL     1      26.206  21.515  29.884  1.00  0.00     0.007 C 
HETATM   18  C22 UNL     1      26.274  21.016  28.473  1.00  0.00     0.020 C 
HETATM   19  C23 UNL     1      26.918  19.652  28.385  1.00  0.00     0.123 C 
HETATM   20  N2  UNL     1      26.418  18.791  29.391  1.00  0.00    -0.375 N 
HETATM   21  C24 UNL     1      25.540  18.346  32.959  1.00  0.00     0.037 C 
HETATM   22  C25 UNL     1      25.234  16.974  33.359  1.00  0.00     0.011 C 
HETATM   23  C26 UNL     1      25.304  15.895  32.287  1.00  0.00     0.022 C 
HETATM   24  C27 UNL     1      26.621  15.935  31.648  1.00  0.00     0.022 C 
HETATM   25  C29 UNL     1      27.039  14.905  30.669  1.00  0.00     0.287 C 
HETATM   26  N3  UNL     1      26.917  13.511  30.848  1.00  0.00     0.107 N 
ENDROOT
BRANCH   1  27
HETATM   27  C3  UNL     1      28.805  12.115  31.487  1.00  0.00     0.095 C 
HETATM   28  N1  UNL     1      29.563  12.797  32.253  1.00  0.00    -0.381 N 
ATOM     29  H1  UNL     1      29.614  13.802  32.086  1.00  0.00     0.164 HD
BRANCH  28  30
HETATM   30  C2  UNL     1      30.335  12.280  33.310  1.00  0.00     0.056 C 
HETATM   31  C1  UNL     1      30.654  13.398  34.283  1.00  0.00     0.054 C 
ENDBRANCH  28  30
ENDBRANCH   1  27
BRANCH  24  32
HETATM   32  C28 UNL     1      27.675  15.919  32.744  1.00  0.00     0.176 C 
BRANCH  32  33
HETATM   33  O2  UNL     1      28.965  15.836  32.189  1.00  0.00    -0.400 OA
ATOM     34  H2  UNL     1      29.623  16.044  32.842  1.00  0.00     0.209 HD
ENDBRANCH  32  33
ENDBRANCH  24  32
BRANCH   9  35
HETATM   35  C13 UNL     1      22.893  16.401  32.311  1.00  0.00     0.249 C 
HETATM   36  O1  UNL     1      21.861  15.773  32.498  1.00  0.00    -0.305 OA
ENDBRANCH   9  35
TORSDOF 5
ENDMDL
MODEL 5
REMARK VINA RESULT: -6.397973706      2.614      3.919
REMARK  5 active torsions:
REMARK  status: ('A' for Active; 'I' for Inactive)
REMARK    1  A    between atoms: C2_2  and  N1_3 
REMARK    2  A    between atoms: C3_5  and  C4_6 
REMARK    3  A    between atoms: C12_14  and  C13_15 
REMARK    4  A    between atoms: C27_31  and  C28_32 
REMARK    5  A    between atoms: C28_32  and  O2_33 
ROOT
HETATM    1  C4  UNL     1      23.115  15.753  31.850  1.00  0.00     0.262 C 
HETATM    2  C5  UNL     1      22.874  14.334  32.327  1.00  0.00     0.048 C 
HETATM    3  C6  UNL     1      24.029  13.615  31.585  1.00  0.00     0.022 C 
HETATM    4  C7  UNL     1      24.155  12.203  32.094  1.00  0.00     0.012 C 
HETATM    5  C8  UNL     1      25.096  14.535  32.079  1.00  0.00     0.256 C 
HETATM    6  C9  UNL     1      26.385  14.462  31.460  1.00  0.00    -0.053 C 
HETATM    7  C10 UNL     1      25.888  14.272  30.093  1.00  0.00     0.045 C 
HETATM    8  C11 UNL     1      27.777  14.647  31.315  1.00  0.00    -0.001 C 
HETATM    9  C12 UNL     1      28.259  16.174  31.352  1.00  0.00     0.053 C 
HETATM   10  C14 UNL     1      28.508  16.398  32.769  1.00  0.00    -0.008 C 
HETATM   11  C15 UNL     1      28.063  17.170  33.708  1.00  0.00    -0.004 C 
HETATM   12  C16 UNL     1      27.041  18.207  33.681  1.00  0.00     0.116 C 
HETATM   13  C17 UNL     1      26.743  18.735  32.316  1.00  0.00     0.056 C 
HETATM   14  C18 UNL     1      28.065  19.296  31.961  1.00  0.00    -0.050 C 
HETATM   15  C19 UNL     1      28.612  19.738  33.071  1.00  0.00     0.010 C 
HETATM   16  C20 UNL     1      29.919  20.412  33.392  1.00  0.00     0.057 C 
HETATM   17  C21 UNL     1      29.511  21.553  34.335  1.00  0.00     0.007 C 
HETATM   18  C22 UNL     1      29.010  20.912  35.593  1.00  0.00     0.020 C 
HETATM   19  C23 UNL     1      27.701  20.188  35.376  1.00  0.00     0.123 C 
HETATM   20  N2  UNL     1      27.737  19.422  34.186  1.00  0.00    -0.375 N 
HETATM   21  C24 UNL     1      28.614  19.289  30.592  1.00  0.00     0.037 C 
HETATM   22  C25 UNL     1      28.133  18.109  29.877  1.00  0.00     0.011 C 
HETATM   23  C26 UNL     1      27.339  17.078  30.670  1.00  0.00     0.022 C 
HETATM   24  C27 UNL     1      26.214  17.741  31.332  1.00  0.00     0.022 C 
HETATM   25  C29 UNL     1      25.176  16.970  32.054  1.00  0.00     0.287 C 
HETATM   26  N3  UNL     1      24.506  15.834  31.553  1.00  0.00     0.107 N 
ENDROOT
BRANCH   1  27
HETATM   27  C3  UNL     1      22.249  15.952  30.652  1.00  0.00     0.095 C 
HETATM   28  N1  UNL     1      20.974  15.959  30.715  1.00  0.00    -0.381 N 
ATOM     29  H1  UNL     1      20.551  15.821  31.633  1.00  0.00     0.164 HD
BRANCH  28  30
HETATM   30  C2  UNL     1      20.104  16.141  29.625  1.00  0.00     0.056 C 
HETATM   31  C1  UNL     1      19.690  14.784  29.091  1.00  0.00     0.054 C 
ENDBRANCH  28  30
ENDBRANCH   1  27
BRANCH  24  32
HETATM   32  C28 UNL     1      25.472  18.561  30.288  1.00  0.00     0.176 C 
BRANCH  32  33
HETATM   33  O2  UNL     1      24.690  19.555  30.903  1.00  0.00    -0.400 OA
ATOM     34  H2  UNL     1      24.398  20.194  30.263  1.00  0.00     0.209 HD
ENDBRANCH  32  33
ENDBRANCH  24  32
BRANCH   9  35
HETATM   35  C13 UNL     1      29.596  16.090  30.707  1.00  0.00     0.249 C 
HETATM   36  O1  UNL     1      30.635  16.387  31.279  1.00  0.00    -0.305 OA
ENDBRANCH   9  35
TORSDOF 5
ENDMDL
