MODEL 1
REMARK VINA RESULT: -8.335432140      0.000      0.000
REMARK  6 active torsions:
REMARK  status: ('A' for Active; 'I' for Inactive)
REMARK    1  A    between atoms: C2_2  and  N1_4 
REMARK    2  A    between atoms: N1_4  and  C5_6 
REMARK    3  A    between atoms: C5_6  and  C6_7 
REMARK       I    between atoms: N2_9  and  C8_10 
REMARK    4  A    between atoms: C8_10  and  C9_12 
REMARK    5  A    between atoms: C20_23  and  O2_24 
REMARK    6  A    between atoms: C22_27  and  C24_29 
ROOT
HETATM    1  C6  UNL     1      23.280  12.454  31.723  1.00  0.00     0.025 C 
HETATM    2  C7  UNL     1      24.683  12.301  32.146  1.00  0.00     0.139 C 
HETATM    3  N2  UNL     1      25.400  12.653  30.883  1.00  0.00    -0.350 N 
HETATM    4  C8  UNL     1      26.754  13.082  30.780  1.00  0.00     0.224 C 
HETATM    5  O1  UNL     1      27.189  13.359  29.635  1.00  0.00    -0.273 OA
HETATM    6  C15 UNL     1      24.520  12.473  29.746  1.00  0.00     0.140 C 
HETATM    7  C16 UNL     1      23.406  11.697  30.394  1.00  0.00     0.001 C 
HETATM    8  C17 UNL     1      23.932  10.331  30.389  1.00  0.00     0.022 C 
HETATM    9  C18 UNL     1      22.116  11.729  29.743  1.00  0.00    -0.016 C 
HETATM   10  C19 UNL     1      21.067  11.381  30.477  1.00  0.00     0.008 C 
HETATM   11  C20 UNL     1      21.216  10.979  31.908  1.00  0.00     0.085 C 
HETATM   12  C21 UNL     1      19.838  10.994  32.538  1.00  0.00     0.059 C 
HETATM   13  C22 UNL     1      19.171  12.289  32.688  1.00  0.00     0.012 C 
HETATM   14  C23 UNL     1      18.318  12.735  31.515  1.00  0.00     0.023 C 
HETATM   15  C25 UNL     1      20.188  13.323  33.059  1.00  0.00     0.017 C 
HETATM   16  C26 UNL     1      21.455  12.720  33.516  1.00  0.00     0.014 C 
HETATM   17  C27 UNL     1      22.232  11.830  32.616  1.00  0.00     0.003 C 
HETATM   18  C28 UNL     1      22.987  10.901  33.585  1.00  0.00     0.019 C 
ENDROOT
BRANCH   4  19
HETATM   19  C9  UNL     1      27.687  13.225  31.916  1.00  0.00     0.078 C 
HETATM   20  C10 UNL     1      28.597  12.033  32.107  1.00  0.00     0.014 C 
HETATM   21  C11 UNL     1      30.004  12.294  31.601  1.00  0.00     0.001 C 
HETATM   22  C12 UNL     1      30.691  13.412  32.354  1.00  0.00     0.000 C 
HETATM   23  C13 UNL     1      29.719  14.551  32.610  1.00  0.00     0.001 C 
HETATM   24  C14 UNL     1      28.544  14.449  31.677  1.00  0.00     0.014 C 
ENDBRANCH   4  19
BRANCH   1  25
HETATM   25  C5  UNL     1      23.011  13.906  31.482  1.00  0.00     0.285 C 
BRANCH  25  26
HETATM   26  N1  UNL     1      23.444  14.931  32.332  1.00  0.00     0.088 N 
HETATM   27  C4  UNL     1      24.631  15.686  32.118  1.00  0.00     0.310 C 
BRANCH  26  28
HETATM   28  C2  UNL     1      22.398  15.998  32.345  1.00  0.00     0.214 C 
HETATM   29  C1  UNL     1      23.093  17.339  32.576  1.00  0.00     0.042 C 
HETATM   30  C3  UNL     1      21.712  15.989  30.997  1.00  0.00     0.042 C 
ENDBRANCH  26  28
ENDBRANCH  25  26
ENDBRANCH   1  25
BRANCH  11  31
HETATM   31  O2  UNL     1      21.477   9.589  32.054  1.00  0.00    -0.385 OA
ATOM     32  H2  UNL     1      20.858   9.165  32.637  1.00  0.00     0.211 HD
ENDBRANCH  11  31
BRANCH  13  33
HETATM   33  C24 UNL     1      18.194  12.160  33.840  1.00  0.00     0.240 C 
HETATM   34  O3  UNL     1      18.130  11.148  34.505  1.00  0.00    -0.306 OA
ENDBRANCH  13  33
TORSDOF 6
ENDMDL
MODEL 2
REMARK VINA RESULT: -7.329663642      1.825      7.348
REMARK  6 active torsions:
REMARK  status: ('A' for Active; 'I' for Inactive)
REMARK    1  A    between atoms: C2_2  and  N1_4 
REMARK    2  A    between atoms: N1_4  and  C5_6 
REMARK    3  A    between atoms: C5_6  and  C6_7 
REMARK       I    between atoms: N2_9  and  C8_10 
REMARK    4  A    between atoms: C8_10  and  C9_12 
REMARK    5  A    between atoms: C20_23  and  O2_24 
REMARK    6  A    between atoms: C22_27  and  C24_29 
ROOT
HETATM    1  C6  UNL     1      22.460  11.757  31.652  1.00  0.00     0.025 C 
HETATM    2  C7  UNL     1      21.078  11.438  31.250  1.00  0.00     0.139 C 
HETATM    3  N2  UNL     1      20.400  11.392  32.580  1.00  0.00    -0.350 N 
HETATM    4  C8  UNL     1      19.001  11.537  32.812  1.00  0.00     0.224 C 
HETATM    5  O1  UNL     1      18.604  11.494  34.003  1.00  0.00    -0.273 OA
HETATM    6  C15 UNL     1      21.372  11.150  33.626  1.00  0.00     0.140 C 
HETATM    7  C16 UNL     1      22.557  10.737  32.795  1.00  0.00     0.001 C 
HETATM    8  C17 UNL     1      22.274   9.326  32.528  1.00  0.00     0.022 C 
HETATM    9  C18 UNL     1      23.863  10.871  33.398  1.00  0.00    -0.016 C 
HETATM   10  C19 UNL     1      24.904  10.876  32.576  1.00  0.00     0.008 C 
HETATM   11  C20 UNL     1      24.729  10.750  31.097  1.00  0.00     0.085 C 
HETATM   12  C21 UNL     1      26.038  11.144  30.443  1.00  0.00     0.059 C 
HETATM   13  C22 UNL     1      26.461  12.541  30.549  1.00  0.00     0.012 C 
HETATM   14  C23 UNL     1      27.302  12.889  31.762  1.00  0.00     0.023 C 
HETATM   15  C25 UNL     1      25.258  13.426  30.435  1.00  0.00     0.017 C 
HETATM   16  C26 UNL     1      24.085  12.707  29.901  1.00  0.00     0.014 C 
HETATM   17  C27 UNL     1      23.536  11.527  30.616  1.00  0.00     0.003 C 
HETATM   18  C28 UNL     1      22.889  10.691  29.497  1.00  0.00     0.019 C 
ENDROOT
BRANCH   4  19
HETATM   19  C9  UNL     1      17.982  11.734  31.761  1.00  0.00     0.078 C 
HETATM   20  C10 UNL     1      16.563  11.588  32.259  1.00  0.00     0.014 C 
HETATM   21  C11 UNL     1      15.874  12.929  32.440  1.00  0.00     0.001 C 
HETATM   22  C12 UNL     1      15.738  13.689  31.138  1.00  0.00     0.000 C 
HETATM   23  C13 UNL     1      17.006  13.556  30.314  1.00  0.00     0.001 C 
HETATM   24  C14 UNL     1      18.151  13.125  31.190  1.00  0.00     0.014 C 
ENDBRANCH   4  19
BRANCH   1  25
HETATM   25  C5  UNL     1      22.491  13.154  32.185  1.00  0.00     0.285 C 
BRANCH  25  26
HETATM   26  N1  UNL     1      21.496  14.107  31.935  1.00  0.00     0.088 N 
HETATM   27  C4  UNL     1      21.010  15.017  32.915  1.00  0.00     0.310 C 
BRANCH  26  28
HETATM   28  C2  UNL     1      21.994  15.033  30.874  1.00  0.00     0.214 C 
HETATM   29  C1  UNL     1      21.096  14.874  29.648  1.00  0.00     0.042 C 
HETATM   30  C3  UNL     1      21.903  16.443  31.412  1.00  0.00     0.042 C 
ENDBRANCH  26  28
ENDBRANCH  25  26
ENDBRANCH   1  25
BRANCH  11  31
HETATM   31  O2  UNL     1      24.702   9.395  30.670  1.00  0.00    -0.385 OA
ATOM     32  H2  UNL     1      24.275   9.290  29.828  1.00  0.00     0.211 HD
ENDBRANCH  11  31
BRANCH  13  33
HETATM   33  C24 UNL     1      27.364  12.827  29.366  1.00  0.00     0.240 C 
HETATM   34  O3  UNL     1      27.024  12.569  28.232  1.00  0.00    -0.306 OA
ENDBRANCH  13  33
TORSDOF 6
ENDMDL
MODEL 3
REMARK VINA RESULT: -7.316010568      2.431      7.864
REMARK  6 active torsions:
REMARK  status: ('A' for Active; 'I' for Inactive)
REMARK    1  A    between atoms: C2_2  and  N1_4 
REMARK    2  A    between atoms: N1_4  and  C5_6 
REMARK    3  A    between atoms: C5_6  and  C6_7 
REMARK       I    between atoms: N2_9  and  C8_10 
REMARK    4  A    between atoms: C8_10  and  C9_12 
REMARK    5  A    between atoms: C20_23  and  O2_24 
REMARK    6  A    between atoms: C22_27  and  C24_29 
ROOT
HETATM    1  C6  UNL     1      21.843  14.083  30.830  1.00  0.00     0.025 C 
HETATM    2  C7  UNL     1      20.552  14.139  31.539  1.00  0.00     0.139 C 
HETATM    3  N2  UNL     1      19.597  14.074  30.393  1.00  0.00    -0.350 N 
HETATM    4  C8  UNL     1      18.230  13.678  30.463  1.00  0.00     0.224 C 
HETATM    5  O1  UNL     1      17.576  13.661  29.391  1.00  0.00    -0.273 OA
HETATM    6  C15 UNL     1      20.253  14.502  29.174  1.00  0.00     0.140 C 
HETATM    7  C16 UNL     1      21.501  15.116  29.747  1.00  0.00     0.001 C 
HETATM    8  C17 UNL     1      21.041  16.448  30.141  1.00  0.00     0.022 C 
HETATM    9  C18 UNL     1      22.642  15.229  28.869  1.00  0.00    -0.016 C 
HETATM   10  C19 UNL     1      23.825  15.407  29.444  1.00  0.00     0.008 C 
HETATM   11  C20 UNL     1      23.965  15.482  30.929  1.00  0.00     0.085 C 
HETATM   12  C21 UNL     1      25.436  15.328  31.262  1.00  0.00     0.059 C 
HETATM   13  C22 UNL     1      26.063  14.033  30.996  1.00  0.00     0.012 C 
HETATM   14  C23 UNL     1      26.660  13.858  29.612  1.00  0.00     0.023 C 
HETATM   15  C25 UNL     1      25.092  12.942  31.323  1.00  0.00     0.017 C 
HETATM   16  C26 UNL     1      23.960  13.428  32.136  1.00  0.00     0.014 C 
HETATM   17  C27 UNL     1      23.066  14.495  31.618  1.00  0.00     0.003 C 
HETATM   18  C28 UNL     1      22.547  15.187  32.893  1.00  0.00     0.019 C 
ENDROOT
BRANCH   4  19
HETATM   19  C9  UNL     1      17.522  13.286  31.699  1.00  0.00     0.078 C 
HETATM   20  C10 UNL     1      16.022  13.203  31.537  1.00  0.00     0.014 C 
HETATM   21  C11 UNL     1      15.532  11.770  31.431  1.00  0.00     0.001 C 
HETATM   22  C12 UNL     1      15.819  10.967  32.680  1.00  0.00     0.000 C 
HETATM   23  C13 UNL     1      17.204  11.291  33.210  1.00  0.00     0.001 C 
HETATM   24  C14 UNL     1      18.035  11.931  32.132  1.00  0.00     0.014 C 
ENDBRANCH   4  19
BRANCH   1  25
HETATM   25  C5  UNL     1      22.000  12.721  30.233  1.00  0.00     0.285 C 
BRANCH  25  26
HETATM   26  N1  UNL     1      21.361  11.576  30.722  1.00  0.00     0.088 N 
HETATM   27  C4  UNL     1      21.089  10.424  29.932  1.00  0.00     0.310 C 
BRANCH  26  28
HETATM   28  C2  UNL     1      22.201  11.006  31.819  1.00  0.00     0.214 C 
HETATM   29  C1  UNL     1      21.406  11.100  33.121  1.00  0.00     0.042 C 
HETATM   30  C3  UNL     1      22.483   9.560  31.480  1.00  0.00     0.042 C 
ENDBRANCH  26  28
ENDBRANCH  25  26
ENDBRANCH   1  25
BRANCH  11  31
HETATM   31  O2  UNL     1      23.796  16.805  31.421  1.00  0.00    -0.385 OA
ATOM     32  H2  UNL     1      24.210  16.932  32.266  1.00  0.00     0.211 HD
ENDBRANCH  11  31
BRANCH  13  33
HETATM   33  C24 UNL     1      27.244  13.905  31.938  1.00  0.00     0.240 C 
HETATM   34  O3  UNL     1      28.095  13.057  31.774  1.00  0.00    -0.306 OA
ENDBRANCH  13  33
TORSDOF 6
ENDMDL
MODEL 4
REMARK VINA RESULT: -7.050234529      3.235      7.431
REMARK  6 active torsions:
REMARK  status: ('A' for Active; 'I' for Inactive)
REMARK    1  A    between atoms: C2_2  and  N1_4 
REMARK    2  A    between atoms: N1_4  and  C5_6 
REMARK    3  A    between atoms: C5_6  and  C6_7 
REMARK       I    between atoms: N2_9  and  C8_10 
REMARK    4  A    between atoms: C8_10  and  C9_12 
REMARK    5  A    between atoms: C20_23  and  O2_24 
REMARK    6  A    between atoms: C22_27  and  C24_29 
ROOT
HETATM    1  C6  UNL     1      25.791  15.807  31.400  1.00  0.00     0.025 C 
HETATM    2  C7  UNL     1      25.048  14.710  32.044  1.00  0.00     0.139 C 
HETATM    3  N2  UNL     1      25.021  13.701  30.943  1.00  0.00    -0.350 N 
HETATM    4  C8  UNL     1      24.811  12.300  31.096  1.00  0.00     0.224 C 
HETATM    5  O1  UNL     1      24.843  11.593  30.059  1.00  0.00    -0.273 OA
HETATM    6  C15 UNL     1      25.219  14.354  29.666  1.00  0.00     0.140 C 
HETATM    7  C16 UNL     1      25.025  15.790  30.070  1.00  0.00     0.001 C 
HETATM    8  C17 UNL     1      23.567  15.919  30.076  1.00  0.00     0.022 C 
HETATM    9  C18 UNL     1      25.603  16.799  29.213  1.00  0.00    -0.016 C 
HETATM   10  C19 UNL     1      25.768  18.007  29.738  1.00  0.00     0.008 C 
HETATM   11  C20 UNL     1      25.374  18.304  31.148  1.00  0.00     0.085 C 
HETATM   12  C21 UNL     1      26.006  19.625  31.536  1.00  0.00     0.059 C 
HETATM   13  C22 UNL     1      27.465  19.677  31.645  1.00  0.00     0.012 C 
HETATM   14  C23 UNL     1      28.213  20.029  30.373  1.00  0.00     0.023 C 
HETATM   15  C25 UNL     1      27.957  18.395  32.242  1.00  0.00     0.017 C 
HETATM   16  C26 UNL     1      26.871  17.619  32.870  1.00  0.00     0.014 C 
HETATM   17  C27 UNL     1      25.710  17.162  32.066  1.00  0.00     0.003 C 
HETATM   18  C28 UNL     1      24.566  17.072  33.093  1.00  0.00     0.019 C 
ENDROOT
BRANCH   4  19
HETATM   19  C9  UNL     1      24.557  11.615  32.380  1.00  0.00     0.078 C 
HETATM   20  C10 UNL     1      23.106  11.646  32.806  1.00  0.00     0.014 C 
HETATM   21  C11 UNL     1      22.406  10.321  32.564  1.00  0.00     0.001 C 
HETATM   22  C12 UNL     1      23.010   9.192  33.372  1.00  0.00     0.000 C 
HETATM   23  C13 UNL     1      24.524   9.297  33.375  1.00  0.00     0.001 C 
HETATM   24  C14 UNL     1      24.986  10.171  32.242  1.00  0.00     0.014 C 
ENDBRANCH   4  19
BRANCH   1  25
HETATM   25  C5  UNL     1      27.207  15.371  31.201  1.00  0.00     0.285 C 
BRANCH  25  26
HETATM   26  N1  UNL     1      27.824  14.357  31.945  1.00  0.00     0.088 N 
HETATM   27  C4  UNL     1      28.306  13.144  31.381  1.00  0.00     0.310 C 
BRANCH  26  28
HETATM   28  C2  UNL     1      29.061  14.922  32.566  1.00  0.00     0.214 C 
HETATM   29  C1  UNL     1      29.895  13.759  33.100  1.00  0.00     0.042 C 
HETATM   30  C3  UNL     1      29.821  15.662  31.488  1.00  0.00     0.042 C 
ENDBRANCH  26  28
ENDBRANCH  25  26
ENDBRANCH   1  25
BRANCH  11  31
HETATM   31  O2  UNL     1      24.014  18.704  31.256  1.00  0.00    -0.385 OA
ATOM     32  H2  UNL     1      23.536  18.190  31.896  1.00  0.00     0.211 HD
ENDBRANCH  11  31
BRANCH  13  33
HETATM   33  C24 UNL     1      27.804  20.799  32.606  1.00  0.00     0.240 C 
HETATM   34  O3  UNL     1      27.025  21.153  33.466  1.00  0.00    -0.306 OA
ENDBRANCH  13  33
TORSDOF 6
ENDMDL
MODEL 5
REMARK VINA RESULT: -7.041505785      2.321      7.683
REMARK  6 active torsions:
REMARK  status: ('A' for Active; 'I' for Inactive)
REMARK    1  A    between atoms: C2_2  and  N1_4 
REMARK    2  A    between atoms: N1_4  and  C5_6 
REMARK    3  A    between atoms: C5_6  and  C6_7 
REMARK       I    between atoms: N2_9  and  C8_10 
REMARK    4  A    between atoms: C8_10  and  C9_12 
REMARK    5  A    between atoms: C20_23  and  O2_24 
REMARK    6  A    between atoms: C22_27  and  C24_29 
ROOT
HETATM    1  C6  UNL     1      21.725  11.800  31.258  1.00  0.00     0.025 C 
HETATM    2  C7  UNL     1      20.361  11.247  31.320  1.00  0.00     0.139 C 
HETATM    3  N2  UNL     1      19.601  12.425  31.834  1.00  0.00    -0.350 N 
HETATM    4  C8  UNL     1      18.197  12.635  31.710  1.00  0.00     0.224 C 
HETATM    5  O1  UNL     1      17.726  13.698  32.184  1.00  0.00    -0.273 OA
HETATM    6  C15 UNL     1      20.498  13.338  32.512  1.00  0.00     0.140 C 
HETATM    7  C16 UNL     1      21.716  12.465  32.641  1.00  0.00     0.001 C 
HETATM    8  C17 UNL     1      21.402  11.662  33.824  1.00  0.00     0.022 C 
HETATM    9  C18 UNL     1      22.987  13.129  32.822  1.00  0.00    -0.016 C 
HETATM   10  C19 UNL     1      24.076  12.417  32.561  1.00  0.00     0.008 C 
HETATM   11  C20 UNL     1      23.988  10.999  32.100  1.00  0.00     0.085 C 
HETATM   12  C21 UNL     1      25.348  10.604  31.561  1.00  0.00     0.059 C 
HETATM   13  C22 UNL     1      25.812  11.259  30.336  1.00  0.00     0.012 C 
HETATM   14  C23 UNL     1      26.589  12.547  30.527  1.00  0.00     0.023 C 
HETATM   15  C25 UNL     1      24.651  11.442  29.409  1.00  0.00     0.017 C 
HETATM   16  C26 UNL     1      23.488  10.622  29.802  1.00  0.00     0.014 C 
HETATM   17  C27 UNL     1      22.855  10.803  31.133  1.00  0.00     0.003 C 
HETATM   18  C28 UNL     1      22.249   9.421  31.439  1.00  0.00     0.019 C 
ENDROOT
BRANCH   4  19
HETATM   19  C9  UNL     1      17.252  11.698  31.069  1.00  0.00     0.078 C 
HETATM   20  C10 UNL     1      16.168  11.201  31.998  1.00  0.00     0.014 C 
HETATM   21  C11 UNL     1      14.837  11.885  31.750  1.00  0.00     0.001 C 
HETATM   22  C12 UNL     1      14.296  11.613  30.363  1.00  0.00     0.000 C 
HETATM   23  C13 UNL     1      15.416  11.666  29.339  1.00  0.00     0.001 C 
HETATM   24  C14 UNL     1      16.598  12.406  29.903  1.00  0.00     0.014 C 
ENDBRANCH   4  19
BRANCH   1  25
HETATM   25  C5  UNL     1      21.773  12.831  30.176  1.00  0.00     0.285 C 
BRANCH  25  26
HETATM   26  N1  UNL     1      22.186  14.154  30.376  1.00  0.00     0.088 N 
HETATM   27  C4  UNL     1      23.502  14.621  30.104  1.00  0.00     0.310 C 
BRANCH  26  28
HETATM   28  C2  UNL     1      21.358  15.038  29.501  1.00  0.00     0.214 C 
HETATM   29  C1  UNL     1      20.163  14.225  29.003  1.00  0.00     0.042 C 
HETATM   30  C3  UNL     1      20.886  16.206  30.337  1.00  0.00     0.042 C 
ENDBRANCH  26  28
ENDBRANCH  25  26
ENDBRANCH   1  25
BRANCH  11  31
HETATM   31  O2  UNL     1      23.940  10.081  33.185  1.00  0.00    -0.385 OA
ATOM     32  H2  UNL     1      24.203   9.205  32.929  1.00  0.00     0.211 HD
ENDBRANCH  11  31
BRANCH  13  33
HETATM   33  C24 UNL     1      26.796  10.318  29.670  1.00  0.00     0.240 C 
HETATM   34  O3  UNL     1      27.019   9.214  30.118  1.00  0.00    -0.306 OA
ENDBRANCH  13  33
TORSDOF 6
ENDMDL
