MODEL 1
REMARK VINA RESULT: -9.947176299      0.000      0.000
REMARK  5 active torsions:
REMARK  status: ('A' for Active; 'I' for Inactive)
REMARK    1  A    between atoms: C2_2  and  C4_4 
REMARK    2  A    between atoms: C5_6  and  C6_7 
REMARK       I    between atoms: C6_7  and  N1_9 
REMARK    3  A    between atoms: N1_9  and  C7_11 
REMARK    4  A    between atoms: C7_11  and  C8_12 
REMARK    5  A    between atoms: C8_12  and  N2_13 
ROOT
HETATM    1  C4  UNL     1      19.496  12.965  32.208  1.00  0.00     0.159 C 
HETATM    2  O1  UNL     1      19.007  13.616  31.032  1.00  0.00    -0.366 OA
HETATM    3  C5  UNL     1      19.694  14.814  30.900  1.00  0.00     0.214 C 
HETATM    4  C13 UNL     1      21.172  14.453  31.057  1.00  0.00     0.047 C 
HETATM    5  C14 UNL     1      21.398  12.999  30.682  1.00  0.00     0.004 C 
HETATM    6  C15 UNL     1      22.829  12.645  30.435  1.00  0.00    -0.001 C 
HETATM    7  C16 UNL     1      23.694  13.837  30.595  1.00  0.00     0.033 C 
HETATM    8  C17 UNL     1      25.108  13.602  30.926  1.00  0.00    -0.023 C 
HETATM    9  C18 UNL     1      25.616  12.419  31.102  1.00  0.00    -0.075 C 
HETATM   10  C19 UNL     1      27.027  11.980  31.445  1.00  0.00     0.034 C 
HETATM   11  C20 UNL     1      26.709  10.843  32.393  1.00  0.00     0.005 C 
HETATM   12  C21 UNL     1      25.397  10.247  31.924  1.00  0.00     0.014 C 
HETATM   13  C22 UNL     1      24.771  11.223  30.963  1.00  0.00    -0.017 C 
HETATM   14  C23 UNL     1      24.977  10.670  29.546  1.00  0.00     0.020 C 
HETATM   15  C24 UNL     1      23.318  11.423  31.161  1.00  0.00     0.003 C 
HETATM   16  C25 UNL     1      22.950  11.371  32.593  1.00  0.00     0.007 C 
HETATM   17  C26 UNL     1      21.676  12.111  32.936  1.00  0.00     0.013 C 
HETATM   18  C27 UNL     1      20.732  12.185  31.789  1.00  0.00    -0.010 C 
HETATM   19  C28 UNL     1      20.339  10.799  31.337  1.00  0.00     0.018 C 
ENDROOT
BRANCH   3  20
HETATM   20  C6  UNL     1      19.388  15.502  29.647  1.00  0.00     0.246 C 
HETATM   21  O2  UNL     1      20.205  15.359  28.692  1.00  0.00    -0.271 OA
HETATM   22  N1  UNL     1      18.239  16.310  29.446  1.00  0.00    -0.357 N 
ATOM     23  H1  UNL     1      17.600  16.412  30.235  1.00  0.00     0.162 HD
BRANCH  22  24
HETATM   24  C7  UNL     1      17.893  16.995  28.235  1.00  0.00     0.142 C 
BRANCH  24  25
HETATM   25  C8  UNL     1      18.064  18.493  28.333  1.00  0.00     0.136 C 
BRANCH  25  26
HETATM   26  N2  UNL     1      17.269  19.123  27.329  1.00  0.00    -0.407 N 
HETATM   27  C9  UNL     1      16.662  18.228  26.394  1.00  0.00     0.143 C 
HETATM   28  C10 UNL     1      15.156  18.464  26.352  1.00  0.00     0.187 C 
HETATM   29  O3  UNL     1      14.931  19.754  25.934  1.00  0.00    -0.388 OA
HETATM   30  C11 UNL     1      15.672  20.717  26.574  1.00  0.00     0.187 C 
HETATM   31  C12 UNL     1      16.440  20.197  27.772  1.00  0.00     0.143 C 
ENDBRANCH  25  26
ENDBRANCH  24  25
ENDBRANCH  22  24
ENDBRANCH   3  20
BRANCH   1  32
HETATM   32  C2  UNL     1      18.427  12.149  32.801  1.00  0.00    -0.064 C 
HETATM   33  C1  UNL     1      17.280  12.025  32.134  1.00  0.00     0.016 C 
HETATM   34  C3  UNL     1      18.543  11.460  34.104  1.00  0.00     0.045 C 
ENDBRANCH   1  32
TORSDOF 5
ENDMDL
MODEL 2
REMARK VINA RESULT: -9.703981176      0.835      1.165
REMARK  5 active torsions:
REMARK  status: ('A' for Active; 'I' for Inactive)
REMARK    1  A    between atoms: C2_2  and  C4_4 
REMARK    2  A    between atoms: C5_6  and  C6_7 
REMARK       I    between atoms: C6_7  and  N1_9 
REMARK    3  A    between atoms: N1_9  and  C7_11 
REMARK    4  A    between atoms: C7_11  and  C8_12 
REMARK    5  A    between atoms: C8_12  and  N2_13 
ROOT
HETATM    1  C4  UNL     1      19.664  12.918  32.190  1.00  0.00     0.159 C 
HETATM    2  O1  UNL     1      19.167  13.575  31.020  1.00  0.00    -0.366 OA
HETATM    3  C5  UNL     1      19.845  14.778  30.895  1.00  0.00     0.214 C 
HETATM    4  C13 UNL     1      21.327  14.426  31.045  1.00  0.00     0.047 C 
HETATM    5  C14 UNL     1      21.560  12.976  30.658  1.00  0.00     0.004 C 
HETATM    6  C15 UNL     1      22.992  12.633  30.403  1.00  0.00    -0.001 C 
HETATM    7  C16 UNL     1      23.850  13.829  30.570  1.00  0.00     0.033 C 
HETATM    8  C17 UNL     1      25.267  13.600  30.895  1.00  0.00    -0.023 C 
HETATM    9  C18 UNL     1      25.783  12.419  31.060  1.00  0.00    -0.075 C 
HETATM   10  C19 UNL     1      27.198  11.985  31.395  1.00  0.00     0.034 C 
HETATM   11  C20 UNL     1      26.890  10.839  32.335  1.00  0.00     0.005 C 
HETATM   12  C21 UNL     1      25.581  10.239  31.865  1.00  0.00     0.014 C 
HETATM   13  C22 UNL     1      24.945  11.218  30.914  1.00  0.00    -0.017 C 
HETATM   14  C23 UNL     1      25.150  10.678  29.493  1.00  0.00     0.020 C 
HETATM   15  C24 UNL     1      23.492  11.408  31.119  1.00  0.00     0.003 C 
HETATM   16  C25 UNL     1      23.129  11.343  32.551  1.00  0.00     0.007 C 
HETATM   17  C26 UNL     1      21.851  12.071  32.904  1.00  0.00     0.013 C 
HETATM   18  C27 UNL     1      20.903  12.149  31.760  1.00  0.00    -0.010 C 
HETATM   19  C28 UNL     1      20.517  10.764  31.298  1.00  0.00     0.018 C 
ENDROOT
BRANCH   3  20
HETATM   20  C6  UNL     1      19.531  15.474  29.648  1.00  0.00     0.246 C 
HETATM   21  O2  UNL     1      20.311  16.403  29.290  1.00  0.00    -0.271 OA
HETATM   22  N1  UNL     1      18.415  15.168  28.829  1.00  0.00    -0.357 N 
ATOM     23  H1  UNL     1      17.799  14.418  29.146  1.00  0.00     0.162 HD
BRANCH  22  24
HETATM   24  C7  UNL     1      18.072  15.815  27.597  1.00  0.00     0.142 C 
BRANCH  24  25
HETATM   25  C8  UNL     1      16.927  16.790  27.738  1.00  0.00     0.136 C 
BRANCH  25  26
HETATM   26  N2  UNL     1      17.426  18.122  27.619  1.00  0.00    -0.407 N 
HETATM   27  C9  UNL     1      16.691  18.960  26.723  1.00  0.00     0.143 C 
HETATM   28  C10 UNL     1      16.254  20.231  27.445  1.00  0.00     0.187 C 
HETATM   29  O3  UNL     1      17.380  20.907  27.854  1.00  0.00    -0.388 OA
HETATM   30  C11 UNL     1      18.321  20.143  28.500  1.00  0.00     0.187 C 
HETATM   31  C12 UNL     1      17.844  18.744  28.833  1.00  0.00     0.143 C 
ENDBRANCH  25  26
ENDBRANCH  24  25
ENDBRANCH  22  24
ENDBRANCH   3  20
BRANCH   1  32
HETATM   32  C2  UNL     1      18.601  12.090  32.780  1.00  0.00    -0.064 C 
HETATM   33  C1  UNL     1      17.472  11.923  32.091  1.00  0.00     0.016 C 
HETATM   34  C3  UNL     1      18.705  11.436  34.102  1.00  0.00     0.045 C 
ENDBRANCH   1  32
TORSDOF 5
ENDMDL
MODEL 3
REMARK VINA RESULT: -9.442978917      2.030      3.501
REMARK  5 active torsions:
REMARK  status: ('A' for Active; 'I' for Inactive)
REMARK    1  A    between atoms: C2_2  and  C4_4 
REMARK    2  A    between atoms: C5_6  and  C6_7 
REMARK       I    between atoms: C6_7  and  N1_9 
REMARK    3  A    between atoms: N1_9  and  C7_11 
REMARK    4  A    between atoms: C7_11  and  C8_12 
REMARK    5  A    between atoms: C8_12  and  N2_13 
ROOT
HETATM    1  C4  UNL     1      21.548  11.142  31.821  1.00  0.00     0.159 C 
HETATM    2  O1  UNL     1      20.338  11.594  31.207  1.00  0.00    -0.366 OA
HETATM    3  C5  UNL     1      19.812  12.597  32.007  1.00  0.00     0.214 C 
HETATM    4  C13 UNL     1      20.975  13.553  32.278  1.00  0.00     0.047 C 
HETATM    5  C14 UNL     1      22.007  13.447  31.169  1.00  0.00     0.004 C 
HETATM    6  C15 UNL     1      22.980  14.581  31.126  1.00  0.00    -0.001 C 
HETATM    7  C16 UNL     1      22.674  15.567  32.188  1.00  0.00     0.033 C 
HETATM    8  C17 UNL     1      23.779  16.422  32.650  1.00  0.00    -0.023 C 
HETATM    9  C18 UNL     1      24.992  16.336  32.192  1.00  0.00    -0.075 C 
HETATM   10  C19 UNL     1      26.248  17.114  32.537  1.00  0.00     0.034 C 
HETATM   11  C20 UNL     1      27.260  15.990  32.481  1.00  0.00     0.005 C 
HETATM   12  C21 UNL     1      26.759  15.014  31.436  1.00  0.00     0.014 C 
HETATM   13  C22 UNL     1      25.321  15.352  31.148  1.00  0.00    -0.017 C 
HETATM   14  C23 UNL     1      25.280  16.077  29.796  1.00  0.00     0.020 C 
HETATM   15  C24 UNL     1      24.426  14.177  31.054  1.00  0.00     0.003 C 
HETATM   16  C25 UNL     1      24.817  13.117  32.009  1.00  0.00     0.007 C 
HETATM   17  C26 UNL     1      23.692  12.182  32.397  1.00  0.00     0.013 C 
HETATM   18  C27 UNL     1      22.650  12.073  31.341  1.00  0.00    -0.010 C 
HETATM   19  C28 UNL     1      23.250  11.546  30.059  1.00  0.00     0.018 C 
ENDROOT
BRANCH   3  20
HETATM   20  C6  UNL     1      18.648  13.246  31.404  1.00  0.00     0.246 C 
HETATM   21  O2  UNL     1      17.519  13.013  31.925  1.00  0.00    -0.271 OA
HETATM   22  N1  UNL     1      18.716  14.112  30.283  1.00  0.00    -0.357 N 
ATOM     23  H1  UNL     1      19.638  14.277  29.880  1.00  0.00     0.162 HD
BRANCH  22  24
HETATM   24  C7  UNL     1      17.606  14.776  29.664  1.00  0.00     0.142 C 
BRANCH  24  25
HETATM   25  C8  UNL     1      17.691  14.793  28.156  1.00  0.00     0.136 C 
BRANCH  25  26
HETATM   26  N2  UNL     1      17.962  16.123  27.716  1.00  0.00    -0.407 N 
HETATM   27  C9  UNL     1      17.336  16.487  26.483  1.00  0.00     0.143 C 
HETATM   28  C10 UNL     1      16.518  17.760  26.672  1.00  0.00     0.187 C 
HETATM   29  O3  UNL     1      17.369  18.772  27.047  1.00  0.00    -0.388 OA
HETATM   30  C11 UNL     1      18.240  18.461  28.063  1.00  0.00     0.187 C 
HETATM   31  C12 UNL     1      17.949  17.131  28.727  1.00  0.00     0.143 C 
ENDBRANCH  25  26
ENDBRANCH  24  25
ENDBRANCH  22  24
ENDBRANCH   3  20
BRANCH   1  32
HETATM   32  C2  UNL     1      21.761   9.722  31.503  1.00  0.00    -0.064 C 
HETATM   33  C1  UNL     1      21.199   9.228  30.402  1.00  0.00     0.016 C 
HETATM   34  C3  UNL     1      22.560   8.803  32.342  1.00  0.00     0.045 C 
ENDBRANCH   1  32
TORSDOF 5
ENDMDL
MODEL 4
REMARK VINA RESULT: -9.303524018      1.219      1.543
REMARK  5 active torsions:
REMARK  status: ('A' for Active; 'I' for Inactive)
REMARK    1  A    between atoms: C2_2  and  C4_4 
REMARK    2  A    between atoms: C5_6  and  C6_7 
REMARK       I    between atoms: C6_7  and  N1_9 
REMARK    3  A    between atoms: N1_9  and  C7_11 
REMARK    4  A    between atoms: C7_11  and  C8_12 
REMARK    5  A    between atoms: C8_12  and  N2_13 
ROOT
HETATM    1  C4  UNL     1      21.024  12.908  32.156  1.00  0.00     0.159 C 
HETATM    2  O1  UNL     1      20.421  13.637  31.084  1.00  0.00    -0.366 OA
HETATM    3  C5  UNL     1      20.960  14.915  31.091  1.00  0.00     0.214 C 
HETATM    4  C13 UNL     1      22.475  14.716  31.168  1.00  0.00     0.047 C 
HETATM    5  C14 UNL     1      22.852  13.356  30.606  1.00  0.00     0.004 C 
HETATM    6  C15 UNL     1      24.304  13.207  30.284  1.00  0.00    -0.001 C 
HETATM    7  C16 UNL     1      25.032  14.464  30.576  1.00  0.00     0.033 C 
HETATM    8  C17 UNL     1      26.475  14.359  30.843  1.00  0.00    -0.023 C 
HETATM    9  C18 UNL     1      27.121  13.232  30.856  1.00  0.00    -0.075 C 
HETATM   10  C19 UNL     1      28.585  12.923  31.109  1.00  0.00     0.034 C 
HETATM   11  C20 UNL     1      28.434  11.647  31.911  1.00  0.00     0.005 C 
HETATM   12  C21 UNL     1      27.184  10.963  31.398  1.00  0.00     0.014 C 
HETATM   13  C22 UNL     1      26.415  11.970  30.584  1.00  0.00    -0.017 C 
HETATM   14  C23 UNL     1      26.630  11.626  29.104  1.00  0.00     0.020 C 
HETATM   15  C24 UNL     1      24.957  11.971  30.838  1.00  0.00     0.003 C 
HETATM   16  C25 UNL     1      24.650  11.698  32.259  1.00  0.00     0.007 C 
HETATM   17  C26 UNL     1      23.313  12.233  32.721  1.00  0.00     0.013 C 
HETATM   18  C27 UNL     1      22.325  12.338  31.614  1.00  0.00    -0.010 C 
HETATM   19  C28 UNL     1      22.077  10.981  30.997  1.00  0.00     0.018 C 
ENDROOT
BRANCH   3  20
HETATM   20  C6  UNL     1      20.532  15.713  29.943  1.00  0.00     0.246 C 
HETATM   21  O2  UNL     1      21.185  15.581  28.868  1.00  0.00    -0.271 OA
HETATM   22  N1  UNL     1      19.437  16.614  29.969  1.00  0.00    -0.357 N 
ATOM     23  H1  UNL     1      18.931  16.705  30.850  1.00  0.00     0.162 HD
BRANCH  22  24
HETATM   24  C7  UNL     1      18.975  17.409  28.868  1.00  0.00     0.142 C 
BRANCH  24  25
HETATM   25  C8  UNL     1      17.824  16.776  28.122  1.00  0.00     0.136 C 
BRANCH  25  26
HETATM   26  N2  UNL     1      17.308  17.710  27.175  1.00  0.00    -0.407 N 
HETATM   27  C9  UNL     1      16.432  17.149  26.194  1.00  0.00     0.143 C 
HETATM   28  C10 UNL     1      15.105  17.901  26.193  1.00  0.00     0.187 C 
HETATM   29  O3  UNL     1      15.350  19.214  25.863  1.00  0.00    -0.388 OA
HETATM   30  C11 UNL     1      16.378  19.810  26.552  1.00  0.00     0.187 C 
HETATM   31  C12 UNL     1      16.905  18.975  27.701  1.00  0.00     0.143 C 
ENDBRANCH  25  26
ENDBRANCH  24  25
ENDBRANCH  22  24
ENDBRANCH   3  20
BRANCH   1  32
HETATM   32  C2  UNL     1      20.078  11.903  32.664  1.00  0.00    -0.064 C 
HETATM   33  C1  UNL     1      18.896  11.783  32.059  1.00  0.00     0.016 C 
HETATM   34  C3  UNL     1      20.355  11.019  33.816  1.00  0.00     0.045 C 
ENDBRANCH   1  32
TORSDOF 5
ENDMDL
MODEL 5
REMARK VINA RESULT: -9.176774160      4.913      7.648
REMARK  5 active torsions:
REMARK  status: ('A' for Active; 'I' for Inactive)
REMARK    1  A    between atoms: C2_2  and  C4_4 
REMARK    2  A    between atoms: C5_6  and  C6_7 
REMARK       I    between atoms: C6_7  and  N1_9 
REMARK    3  A    between atoms: N1_9  and  C7_11 
REMARK    4  A    between atoms: C7_11  and  C8_12 
REMARK    5  A    between atoms: C8_12  and  N2_13 
ROOT
HETATM    1  C4  UNL     1      26.234  12.217  30.479  1.00  0.00     0.159 C 
HETATM    2  O1  UNL     1      26.900  13.374  30.993  1.00  0.00    -0.366 OA
HETATM    3  C5  UNL     1      26.443  14.472  30.279  1.00  0.00     0.214 C 
HETATM    4  C13 UNL     1      24.917  14.357  30.290  1.00  0.00     0.047 C 
HETATM    5  C14 UNL     1      24.463  13.551  31.494  1.00  0.00     0.004 C 
HETATM    6  C15 UNL     1      23.010  13.692  31.813  1.00  0.00    -0.001 C 
HETATM    7  C16 UNL     1      22.359  14.628  30.867  1.00  0.00     0.033 C 
HETATM    8  C17 UNL     1      20.908  14.484  30.669  1.00  0.00    -0.023 C 
HETATM    9  C18 UNL     1      20.191  13.575  31.258  1.00  0.00    -0.075 C 
HETATM   10  C19 UNL     1      18.707  13.270  31.183  1.00  0.00     0.034 C 
HETATM   11  C20 UNL     1      18.764  11.757  31.209  1.00  0.00     0.005 C 
HETATM   12  C21 UNL     1      19.976  11.387  32.040  1.00  0.00     0.014 C 
HETATM   13  C22 UNL     1      20.820  12.625  32.190  1.00  0.00    -0.017 C 
HETATM   14  C23 UNL     1      20.606  13.158  33.613  1.00  0.00     0.020 C 
HETATM   15  C24 UNL     1      22.271  12.397  32.009  1.00  0.00     0.003 C 
HETATM   16  C25 UNL     1      22.537  11.375  30.973  1.00  0.00     0.007 C 
HETATM   17  C26 UNL     1      23.899  11.487  30.323  1.00  0.00     0.013 C 
HETATM   18  C27 UNL     1      24.909  12.117  31.216  1.00  0.00    -0.010 C 
HETATM   19  C28 UNL     1      25.078  11.304  32.478  1.00  0.00     0.018 C 
ENDROOT
BRANCH   3  20
HETATM   20  C6  UNL     1      26.939  15.738  30.816  1.00  0.00     0.246 C 
HETATM   21  O2  UNL     1      27.245  15.769  32.043  1.00  0.00    -0.271 OA
HETATM   22  N1  UNL     1      27.095  16.919  30.045  1.00  0.00    -0.357 N 
ATOM     23  H1  UNL     1      26.836  16.867  29.060  1.00  0.00     0.162 HD
BRANCH  22  24
HETATM   24  C7  UNL     1      27.586  18.178  30.525  1.00  0.00     0.142 C 
BRANCH  24  25
HETATM   25  C8  UNL     1      26.497  19.211  30.698  1.00  0.00     0.136 C 
BRANCH  25  26
HETATM   26  N2  UNL     1      26.870  20.406  30.013  1.00  0.00    -0.407 N 
HETATM   27  C9  UNL     1      26.438  20.478  28.652  1.00  0.00     0.143 C 
HETATM   28  C10 UNL     1      25.642  21.759  28.428  1.00  0.00     0.187 C 
HETATM   29  O3  UNL     1      26.464  22.831  28.684  1.00  0.00    -0.388 OA
HETATM   30  C11 UNL     1      27.171  22.761  29.860  1.00  0.00     0.187 C 
HETATM   31  C12 UNL     1      26.745  21.617  30.757  1.00  0.00     0.143 C 
ENDBRANCH  25  26
ENDBRANCH  24  25
ENDBRANCH  22  24
ENDBRANCH   3  20
BRANCH   1  32
HETATM   32  C2  UNL     1      27.107  11.042  30.622  1.00  0.00    -0.064 C 
HETATM   33  C1  UNL     1      26.860   9.973  29.866  1.00  0.00     0.016 C 
HETATM   34  C3  UNL     1      28.243  10.971  31.566  1.00  0.00     0.045 C 
ENDBRANCH   1  32
TORSDOF 5
ENDMDL
