MODEL 1
REMARK VINA RESULT: -10.034472594      0.000      0.000
REMARK  5 active torsions:
REMARK  status: ('A' for Active; 'I' for Inactive)
REMARK    1  A    between atoms: N1_2  and  C3_4 
REMARK    2  A    between atoms: N2_7  and  C6_8 
REMARK    3  A    between atoms: C9_11  and  N3_12 
REMARK    4  A    between atoms: C16_19  and  C17_20 
REMARK    5  A    between atoms: C17_20  and  N4_21 
REMARK       I    between atoms: N4_21  and  C18_23 
REMARK       I    between atoms: C18_23  and  N5_25 
ROOT
HETATM    1  N3  UNL     1      22.837  11.923  31.092  1.00  0.00    -0.365 N 
HETATM    2  C10 UNL     1      22.955  10.725  30.442  1.00  0.00     0.090 C 
HETATM    3  C11 UNL     1      22.167   9.514  30.706  1.00  0.00     0.013 C 
HETATM    4  C12 UNL     1      22.166   8.784  31.957  1.00  0.00    -0.025 C 
HETATM    5  C13 UNL     1      23.072   9.019  33.088  1.00  0.00     0.027 C 
HETATM    6  C14 UNL     1      22.512   9.957  34.212  1.00  0.00     0.005 C 
HETATM    7  C15 UNL     1      22.152  11.121  33.453  1.00  0.00     0.015 C 
HETATM    8  C16 UNL     1      21.782  12.441  33.307  1.00  0.00     0.063 C 
HETATM    9  C24 UNL     1      21.812  12.569  31.697  1.00  0.00     0.073 C 
ENDROOT
BRANCH   1  10
HETATM   10  C9  UNL     1      23.869  12.852  30.678  1.00  0.00     0.088 C 
HETATM   11  C8  UNL     1      23.835  14.193  31.352  1.00  0.00     0.028 C 
HETATM   12  C7  UNL     1      25.026  14.947  30.730  1.00  0.00     0.027 C 
HETATM   13  C6  UNL     1      26.229  14.409  31.512  1.00  0.00     0.079 C 
HETATM   14  C26 UNL     1      26.241  12.917  31.529  1.00  0.00     0.027 C 
HETATM   15  C25 UNL     1      25.247  12.256  30.626  1.00  0.00     0.028 C 
BRANCH  13  16
HETATM   16  N2  UNL     1      27.444  15.025  31.123  1.00  0.00    -0.406 N 
HETATM   17  C5  UNL     1      28.620  14.239  31.132  1.00  0.00     0.119 C 
HETATM   18  C4  UNL     1      29.678  14.994  31.910  1.00  0.00     0.057 C 
HETATM   19  C3  UNL     1      29.165  16.410  31.975  1.00  0.00     0.241 C 
HETATM   20  C27 UNL     1      27.702  16.321  31.646  1.00  0.00     0.153 C 
BRANCH  19  21
HETATM   21  N1  UNL     1      29.822  17.305  31.086  1.00  0.00     0.086 N 
HETATM   22  C1  UNL     1      31.246  17.288  31.112  1.00  0.00     0.310 C 
HETATM   23  C2  UNL     1      29.318  18.636  31.051  1.00  0.00     0.310 C 
ENDBRANCH  19  21
ENDBRANCH  13  16
ENDBRANCH   1  10
BRANCH   8  24
HETATM   24  C17 UNL     1      20.565  13.174  33.681  1.00  0.00     0.075 C 
BRANCH  24  25
HETATM   25  N4  UNL     1      19.453  13.076  32.832  1.00  0.00    -0.322 N 
HETATM   26  C18 UNL     1      18.361  12.208  32.996  1.00  0.00     0.322 C 
HETATM   27  O1  UNL     1      18.328  11.401  33.941  1.00  0.00    -0.247 OA
HETATM   28  N5  UNL     1      17.247  12.241  32.057  1.00  0.00    -0.334 N 
HETATM   29  C19 UNL     1      17.255  13.152  30.962  1.00  0.00     0.127 C 
HETATM   30  C23 UNL     1      16.182  11.319  32.307  1.00  0.00     0.127 C 
HETATM   31  C20 UNL     1      16.194  12.982  29.949  1.00  0.00     0.020 C 
HETATM   32  C21 UNL     1      15.409  11.697  30.041  1.00  0.00     0.003 C 
HETATM   33  C22 UNL     1      14.943  11.538  31.482  1.00  0.00     0.020 C 
ATOM     34  H4  UNL     1      19.435  13.693  32.021  1.00  0.00     0.169 HD
ENDBRANCH  24  25
ENDBRANCH   8  24
TORSDOF 5
ENDMDL
MODEL 2
REMARK VINA RESULT: -9.988607400      1.224      1.786
REMARK  5 active torsions:
REMARK  status: ('A' for Active; 'I' for Inactive)
REMARK    1  A    between atoms: N1_2  and  C3_4 
REMARK    2  A    between atoms: N2_7  and  C6_8 
REMARK    3  A    between atoms: C9_11  and  N3_12 
REMARK    4  A    between atoms: C16_19  and  C17_20 
REMARK    5  A    between atoms: C17_20  and  N4_21 
REMARK       I    between atoms: N4_21  and  C18_23 
REMARK       I    between atoms: C18_23  and  N5_25 
ROOT
HETATM    1  N3  UNL     1      22.742  12.399  31.055  1.00  0.00    -0.365 N 
HETATM    2  C10 UNL     1      22.995  11.263  30.335  1.00  0.00     0.090 C 
HETATM    3  C11 UNL     1      22.366   9.952  30.536  1.00  0.00     0.013 C 
HETATM    4  C12 UNL     1      22.476   9.157  31.742  1.00  0.00    -0.025 C 
HETATM    5  C13 UNL     1      23.364   9.437  32.876  1.00  0.00     0.027 C 
HETATM    6  C14 UNL     1      22.713  10.234  34.058  1.00  0.00     0.005 C 
HETATM    7  C15 UNL     1      22.200  11.386  33.372  1.00  0.00     0.015 C 
HETATM    8  C16 UNL     1      21.669  12.656  33.307  1.00  0.00     0.063 C 
HETATM    9  C24 UNL     1      21.656  12.878  31.706  1.00  0.00     0.073 C 
ENDROOT
BRANCH   1  10
HETATM   10  C9  UNL     1      23.645  13.470  30.686  1.00  0.00     0.088 C 
HETATM   11  C8  UNL     1      22.989  14.708  30.150  1.00  0.00     0.028 C 
HETATM   12  C7  UNL     1      24.170  15.654  29.857  1.00  0.00     0.027 C 
HETATM   13  C6  UNL     1      24.503  16.237  31.234  1.00  0.00     0.079 C 
HETATM   14  C26 UNL     1      24.669  15.159  32.253  1.00  0.00     0.027 C 
HETATM   15  C25 UNL     1      24.702  13.764  31.714  1.00  0.00     0.028 C 
BRANCH  13  16
HETATM   16  N2  UNL     1      25.551  17.189  31.177  1.00  0.00    -0.406 N 
HETATM   17  C5  UNL     1      25.484  18.192  30.182  1.00  0.00     0.119 C 
HETATM   18  C4  UNL     1      26.811  18.210  29.451  1.00  0.00     0.057 C 
HETATM   19  C3  UNL     1      27.755  17.461  30.357  1.00  0.00     0.241 C 
HETATM   20  C27 UNL     1      26.876  16.692  31.303  1.00  0.00     0.153 C 
BRANCH  19  21
HETATM   21  N1  UNL     1      28.652  18.296  31.077  1.00  0.00     0.086 N 
HETATM   22  C1  UNL     1      28.998  19.531  30.459  1.00  0.00     0.310 C 
HETATM   23  C2  UNL     1      29.795  17.655  31.635  1.00  0.00     0.310 C 
ENDBRANCH  19  21
ENDBRANCH  13  16
ENDBRANCH   1  10
BRANCH   8  24
HETATM   24  C17 UNL     1      20.377  13.212  33.734  1.00  0.00     0.075 C 
BRANCH  24  25
HETATM   25  N4  UNL     1      19.289  13.093  32.857  1.00  0.00    -0.322 N 
HETATM   26  C18 UNL     1      18.218  12.193  32.983  1.00  0.00     0.322 C 
HETATM   27  O1  UNL     1      18.186  11.373  33.917  1.00  0.00    -0.247 OA
HETATM   28  N5  UNL     1      17.128  12.206  32.017  1.00  0.00    -0.334 N 
HETATM   29  C19 UNL     1      17.137  13.132  30.933  1.00  0.00     0.127 C 
HETATM   30  C23 UNL     1      16.084  11.252  32.230  1.00  0.00     0.127 C 
HETATM   31  C20 UNL     1      16.106  12.945  29.893  1.00  0.00     0.020 C 
HETATM   32  C21 UNL     1      15.356  11.638  29.949  1.00  0.00     0.003 C 
HETATM   33  C22 UNL     1      14.859  11.447  31.377  1.00  0.00     0.020 C 
ATOM     34  H4  UNL     1      19.274  13.720  32.053  1.00  0.00     0.169 HD
ENDBRANCH  24  25
ENDBRANCH   8  24
TORSDOF 5
ENDMDL
MODEL 3
REMARK VINA RESULT: -9.986820372      1.693      2.322
REMARK  5 active torsions:
REMARK  status: ('A' for Active; 'I' for Inactive)
REMARK    1  A    between atoms: N1_2  and  C3_4 
REMARK    2  A    between atoms: N2_7  and  C6_8 
REMARK    3  A    between atoms: C9_11  and  N3_12 
REMARK    4  A    between atoms: C16_19  and  C17_20 
REMARK    5  A    between atoms: C17_20  and  N4_21 
REMARK       I    between atoms: N4_21  and  C18_23 
REMARK       I    between atoms: C18_23  and  N5_25 
ROOT
HETATM    1  N3  UNL     1      22.926  12.710  31.663  1.00  0.00    -0.365 N 
HETATM    2  C10 UNL     1      23.282  11.782  30.723  1.00  0.00     0.090 C 
HETATM    3  C11 UNL     1      22.608  10.502  30.470  1.00  0.00     0.013 C 
HETATM    4  C12 UNL     1      22.495   9.422  31.429  1.00  0.00    -0.025 C 
HETATM    5  C13 UNL     1      23.180   9.351  32.726  1.00  0.00     0.027 C 
HETATM    6  C14 UNL     1      22.347   9.858  33.952  1.00  0.00     0.005 C 
HETATM    7  C15 UNL     1      21.978  11.175  33.516  1.00  0.00     0.015 C 
HETATM    8  C16 UNL     1      21.485  12.450  33.699  1.00  0.00     0.063 C 
HETATM    9  C24 UNL     1      21.752  13.072  32.232  1.00  0.00     0.073 C 
ENDROOT
BRANCH   1  10
HETATM   10  C9  UNL     1      23.896  13.784  31.738  1.00  0.00     0.088 C 
HETATM   11  C8  UNL     1      25.276  13.438  31.260  1.00  0.00     0.028 C 
HETATM   12  C7  UNL     1      26.068  14.747  31.447  1.00  0.00     0.027 C 
HETATM   13  C6  UNL     1      25.679  15.573  30.217  1.00  0.00     0.079 C 
HETATM   14  C26 UNL     1      24.196  15.637  30.055  1.00  0.00     0.027 C 
HETATM   15  C25 UNL     1      23.401  15.097  31.201  1.00  0.00     0.028 C 
BRANCH  13  16
HETATM   16  N2  UNL     1      26.352  16.818  30.169  1.00  0.00    -0.406 N 
HETATM   17  C5  UNL     1      27.103  17.213  31.301  1.00  0.00     0.119 C 
HETATM   18  C4  UNL     1      26.679  18.619  31.672  1.00  0.00     0.057 C 
HETATM   19  C3  UNL     1      25.965  19.137  30.450  1.00  0.00     0.241 C 
HETATM   20  C27 UNL     1      25.627  17.919  29.638  1.00  0.00     0.153 C 
BRANCH  19  21
HETATM   21  N1  UNL     1      26.730  20.054  29.677  1.00  0.00     0.086 N 
HETATM   22  C1  UNL     1      27.669  20.851  30.392  1.00  0.00     0.310 C 
HETATM   23  C2  UNL     1      26.006  20.829  28.727  1.00  0.00     0.310 C 
ENDBRANCH  19  21
ENDBRANCH  13  16
ENDBRANCH   1  10
BRANCH   8  24
HETATM   24  C17 UNL     1      20.149  12.954  34.041  1.00  0.00     0.075 C 
BRANCH  24  25
HETATM   25  N4  UNL     1      19.153  12.896  33.055  1.00  0.00    -0.322 N 
HETATM   26  C18 UNL     1      18.038  12.042  33.054  1.00  0.00     0.322 C 
HETATM   27  O1  UNL     1      17.874  11.212  33.965  1.00  0.00    -0.247 OA
HETATM   28  N5  UNL     1      17.054  12.117  31.981  1.00  0.00    -0.334 N 
HETATM   29  C19 UNL     1      17.214  13.056  30.922  1.00  0.00     0.127 C 
HETATM   30  C23 UNL     1      15.954  11.207  32.069  1.00  0.00     0.127 C 
HETATM   31  C20 UNL     1      16.289  12.929  29.778  1.00  0.00     0.020 C 
HETATM   32  C21 UNL     1      15.482  11.656  29.733  1.00  0.00     0.003 C 
HETATM   33  C22 UNL     1      14.833  11.467  31.098  1.00  0.00     0.020 C 
ATOM     34  H4  UNL     1      19.247  13.534  32.265  1.00  0.00     0.169 HD
ENDBRANCH  24  25
ENDBRANCH   8  24
TORSDOF 5
ENDMDL
MODEL 4
REMARK VINA RESULT: -9.443473901      1.051      1.358
REMARK  5 active torsions:
REMARK  status: ('A' for Active; 'I' for Inactive)
REMARK    1  A    between atoms: N1_2  and  C3_4 
REMARK    2  A    between atoms: N2_7  and  C6_8 
REMARK    3  A    between atoms: C9_11  and  N3_12 
REMARK    4  A    between atoms: C16_19  and  C17_20 
REMARK    5  A    between atoms: C17_20  and  N4_21 
REMARK       I    between atoms: N4_21  and  C18_23 
REMARK       I    between atoms: C18_23  and  N5_25 
ROOT
HETATM    1  N3  UNL     1      23.282  12.000  30.965  1.00  0.00    -0.365 N 
HETATM    2  C10 UNL     1      23.376  10.773  30.366  1.00  0.00     0.090 C 
HETATM    3  C11 UNL     1      22.463   9.640  30.562  1.00  0.00     0.013 C 
HETATM    4  C12 UNL     1      22.249   8.958  31.822  1.00  0.00    -0.025 C 
HETATM    5  C13 UNL     1      23.028   9.160  33.050  1.00  0.00     0.027 C 
HETATM    6  C14 UNL     1      22.418  10.180  34.071  1.00  0.00     0.005 C 
HETATM    7  C15 UNL     1      22.251  11.341  33.244  1.00  0.00     0.015 C 
HETATM    8  C16 UNL     1      22.015  12.681  33.019  1.00  0.00     0.063 C 
HETATM    9  C24 UNL     1      22.250  12.748  31.422  1.00  0.00     0.073 C 
ENDROOT
BRANCH   1  10
HETATM   10  C9  UNL     1      24.431  12.827  30.657  1.00  0.00     0.088 C 
HETATM   11  C8  UNL     1      24.556  14.081  31.472  1.00  0.00     0.028 C 
HETATM   12  C7  UNL     1      25.845  14.738  30.940  1.00  0.00     0.027 C 
HETATM   13  C6  UNL     1      26.955  13.970  31.664  1.00  0.00     0.079 C 
HETATM   14  C26 UNL     1      26.777  12.495  31.519  1.00  0.00     0.027 C 
HETATM   15  C25 UNL     1      25.723  12.068  30.547  1.00  0.00     0.028 C 
BRANCH  13  16
HETATM   16  N2  UNL     1      28.246  14.462  31.348  1.00  0.00    -0.406 N 
HETATM   17  C5  UNL     1      29.354  13.612  31.572  1.00  0.00     0.119 C 
HETATM   18  C4  UNL     1      30.378  14.386  32.376  1.00  0.00     0.057 C 
HETATM   19  C3  UNL     1      29.966  15.828  32.231  1.00  0.00     0.241 C 
HETATM   20  C27 UNL     1      28.542  15.791  31.754  1.00  0.00     0.153 C 
BRANCH  19  21
HETATM   21  N1  UNL     1      30.774  16.574  31.329  1.00  0.00     0.086 N 
HETATM   22  C1  UNL     1      32.183  16.419  31.470  1.00  0.00     0.310 C 
HETATM   23  C2  UNL     1      30.416  17.940  31.149  1.00  0.00     0.310 C 
ENDBRANCH  19  21
ENDBRANCH  13  16
ENDBRANCH   1  10
BRANCH   8  24
HETATM   24  C17 UNL     1      20.828  13.523  33.221  1.00  0.00     0.075 C 
BRANCH  24  25
HETATM   25  N4  UNL     1      19.575  12.977  32.907  1.00  0.00    -0.322 N 
HETATM   26  C18 UNL     1      18.835  13.217  31.737  1.00  0.00     0.322 C 
HETATM   27  O1  UNL     1      19.258  14.004  30.871  1.00  0.00    -0.247 OA
HETATM   28  N5  UNL     1      17.560  12.547  31.521  1.00  0.00    -0.334 N 
HETATM   29  C19 UNL     1      17.048  11.643  32.495  1.00  0.00     0.127 C 
HETATM   30  C23 UNL     1      16.883  12.857  30.300  1.00  0.00     0.127 C 
HETATM   31  C20 UNL     1      15.664  11.166  32.295  1.00  0.00     0.020 C 
HETATM   32  C21 UNL     1      14.865  11.909  31.254  1.00  0.00     0.003 C 
HETATM   33  C22 UNL     1      15.703  11.977  29.984  1.00  0.00     0.020 C 
ATOM     34  H4  UNL     1      19.162  12.345  33.593  1.00  0.00     0.169 HD
ENDBRANCH  24  25
ENDBRANCH   8  24
TORSDOF 5
ENDMDL
MODEL 5
REMARK VINA RESULT: -9.347330020      1.312      1.995
REMARK  5 active torsions:
REMARK  status: ('A' for Active; 'I' for Inactive)
REMARK    1  A    between atoms: N1_2  and  C3_4 
REMARK    2  A    between atoms: N2_7  and  C6_8 
REMARK    3  A    between atoms: C9_11  and  N3_12 
REMARK    4  A    between atoms: C16_19  and  C17_20 
REMARK    5  A    between atoms: C17_20  and  N4_21 
REMARK       I    between atoms: N4_21  and  C18_23 
REMARK       I    between atoms: C18_23  and  N5_25 
ROOT
HETATM    1  N3  UNL     1      23.792  12.516  31.613  1.00  0.00    -0.365 N 
HETATM    2  C10 UNL     1      24.067  11.447  30.804  1.00  0.00     0.090 C 
HETATM    3  C11 UNL     1      23.153  10.346  30.480  1.00  0.00     0.013 C 
HETATM    4  C12 UNL     1      22.604   9.415  31.446  1.00  0.00    -0.025 C 
HETATM    5  C13 UNL     1      23.005   9.304  32.854  1.00  0.00     0.027 C 
HETATM    6  C14 UNL     1      22.119  10.103  33.868  1.00  0.00     0.005 C 
HETATM    7  C15 UNL     1      22.174  11.424  33.310  1.00  0.00     0.015 C 
HETATM    8  C16 UNL     1      21.990  12.791  33.335  1.00  0.00     0.063 C 
HETATM    9  C24 UNL     1      22.662  13.195  31.923  1.00  0.00     0.073 C 
ENDROOT
BRANCH   1  10
HETATM   10  C9  UNL     1      24.969  13.333  31.828  1.00  0.00     0.088 C 
HETATM   11  C8  UNL     1      26.200  12.892  31.092  1.00  0.00     0.028 C 
HETATM   12  C7  UNL     1      27.264  13.931  31.501  1.00  0.00     0.027 C 
HETATM   13  C6  UNL     1      26.956  15.124  30.592  1.00  0.00     0.079 C 
HETATM   14  C26 UNL     1      25.512  15.498  30.657  1.00  0.00     0.027 C 
HETATM   15  C25 UNL     1      24.719  14.810  31.723  1.00  0.00     0.028 C 
BRANCH  13  16
HETATM   16  N2  UNL     1      27.871  16.191  30.774  1.00  0.00    -0.406 N 
HETATM   17  C5  UNL     1      28.550  16.280  32.012  1.00  0.00     0.119 C 
HETATM   18  C4  UNL     1      28.382  17.692  32.533  1.00  0.00     0.057 C 
HETATM   19  C3  UNL     1      27.935  18.490  31.336  1.00  0.00     0.241 C 
HETATM   20  C27 UNL     1      27.452  17.477  30.337  1.00  0.00     0.153 C 
BRANCH  19  21
HETATM   21  N1  UNL     1      28.955  19.302  30.767  1.00  0.00     0.086 N 
HETATM   22  C1  UNL     1      29.965  19.762  31.659  1.00  0.00     0.310 C 
HETATM   23  C2  UNL     1      28.517  20.340  29.896  1.00  0.00     0.310 C 
ENDBRANCH  19  21
ENDBRANCH  13  16
ENDBRANCH   1  10
BRANCH   8  24
HETATM   24  C17 UNL     1      20.783  13.626  33.385  1.00  0.00     0.075 C 
BRANCH  24  25
HETATM   25  N4  UNL     1      19.560  13.032  33.040  1.00  0.00    -0.322 N 
HETATM   26  C18 UNL     1      18.856  13.224  31.839  1.00  0.00     0.322 C 
HETATM   27  O1  UNL     1      19.284  14.006  30.972  1.00  0.00    -0.247 OA
HETATM   28  N5  UNL     1      17.611  12.508  31.593  1.00  0.00    -0.334 N 
HETATM   29  C19 UNL     1      17.094  11.608  32.568  1.00  0.00     0.127 C 
HETATM   30  C23 UNL     1      16.969  12.770  30.342  1.00  0.00     0.127 C 
HETATM   31  C20 UNL     1      15.734  11.082  32.330  1.00  0.00     0.020 C 
HETATM   32  C21 UNL     1      14.950  11.776  31.245  1.00  0.00     0.003 C 
HETATM   33  C22 UNL     1      15.831  11.845  30.004  1.00  0.00     0.020 C 
ATOM     34  H4  UNL     1      19.143  12.402  33.724  1.00  0.00     0.169 HD
ENDBRANCH  24  25
ENDBRANCH   8  24
TORSDOF 5
ENDMDL
