MODEL 1
REMARK VINA RESULT: -8.208574158      0.000      0.000
REMARK  5 active torsions:
REMARK  status: ('A' for Active; 'I' for Inactive)
REMARK    1  A    between atoms: C2_2  and  C3_3 
REMARK    2  A    between atoms: C2_2  and  C6_8 
REMARK    3  A    between atoms: C3_3  and  O1_4 
REMARK    4  A    between atoms: O1_4  and  C4_5 
REMARK    5  A    between atoms: C4_5  and  O2_6 
ROOT
HETATM    1  C6  UNL     1      27.045  17.397  30.833  1.00  0.00     0.045 C 
HETATM    2  C7  UNL     1      27.642  17.100  32.193  1.00  0.00     0.014 C 
HETATM    3  C8  UNL     1      26.509  16.475  32.992  1.00  0.00     0.010 C 
HETATM    4  C9  UNL     1      25.891  15.628  31.867  1.00  0.00     0.016 C 
HETATM    5  C10 UNL     1      24.799  14.795  32.290  1.00  0.00     0.019 C 
HETATM    6  C11 UNL     1      23.758  14.223  31.472  1.00  0.00    -0.024 C 
HETATM    7  C12 UNL     1      24.338  13.175  30.519  1.00  0.00     0.013 C 
HETATM    8  C13 UNL     1      25.056  12.071  31.191  1.00  0.00     0.027 C 
HETATM    9  C14 UNL     1      24.241  11.494  32.309  1.00  0.00     0.093 C 
HETATM   10  N1  UNL     1      24.176  10.049  32.155  1.00  0.00    -0.356 N 
ATOM     11  H1  UNL     1      24.738   9.559  31.459  1.00  0.00     0.162 HD
HETATM   12  C15 UNL     1      23.299   9.356  33.016  1.00  0.00     0.217 C 
HETATM   13  O3  UNL     1      23.261   8.109  32.968  1.00  0.00    -0.274 OA
HETATM   14  C16 UNL     1      22.452  10.085  33.948  1.00  0.00     0.103 C 
HETATM   15  C17 UNL     1      22.244  11.524  33.664  1.00  0.00     0.020 C 
HETATM   16  C18 UNL     1      22.842  12.002  32.330  1.00  0.00    -0.019 C 
HETATM   17  C19 UNL     1      22.061  11.296  31.246  1.00  0.00     0.018 C 
HETATM   18  C20 UNL     1      22.721  13.495  32.303  1.00  0.00     0.005 C 
HETATM   19  C21 UNL     1      21.327  13.992  32.094  1.00  0.00     0.007 C 
HETATM   20  C22 UNL     1      21.363  15.497  32.389  1.00  0.00     0.005 C 
HETATM   21  C23 UNL     1      22.107  16.116  31.219  1.00  0.00    -0.006 C 
HETATM   22  C24 UNL     1      21.041  16.524  30.217  1.00  0.00     0.011 C 
HETATM   23  C25 UNL     1      22.988  15.110  30.539  1.00  0.00     0.072 C 
HETATM   24  C26 UNL     1      23.852  15.793  29.553  1.00  0.00     0.154 C 
HETATM   25  O4  UNL     1      23.538  15.667  28.312  1.00  0.00    -0.293 OA
HETATM   26  C27 UNL     1      25.026  16.607  29.728  1.00  0.00     0.054 C 
HETATM   27  C28 UNL     1      25.888  16.527  30.749  1.00  0.00    -0.064 C 
ENDROOT
BRANCH   1  28
HETATM   28  C2  UNL     1      26.821  18.866  30.856  1.00  0.00    -0.058 C 
HETATM   29  C1  UNL     1      25.933  19.497  31.547  1.00  0.00     0.017 C 
BRANCH  28  30
HETATM   30  C3  UNL     1      27.703  19.619  29.933  1.00  0.00     0.204 C 
BRANCH  30  31
HETATM   31  O1  UNL     1      27.315  19.820  28.665  1.00  0.00    -0.363 OA
BRANCH  31  32
HETATM   32  C4  UNL     1      26.195  20.534  28.393  1.00  0.00     0.337 C 
BRANCH  32  33
HETATM   33  O2  UNL     1      26.391  21.922  28.573  1.00  0.00    -0.372 OA
HETATM   34  C5  UNL     1      25.226  22.396  29.171  1.00  0.00     0.204 C 
ENDBRANCH  32  33
ENDBRANCH  31  32
ENDBRANCH  30  31
ENDBRANCH  28  30
ENDBRANCH   1  28
TORSDOF 5
ENDMDL
MODEL 2
REMARK VINA RESULT: -8.207975495      1.005      1.477
REMARK  5 active torsions:
REMARK  status: ('A' for Active; 'I' for Inactive)
REMARK    1  A    between atoms: C2_2  and  C3_3 
REMARK    2  A    between atoms: C2_2  and  C6_8 
REMARK    3  A    between atoms: C3_3  and  O1_4 
REMARK    4  A    between atoms: O1_4  and  C4_5 
REMARK    5  A    between atoms: C4_5  and  O2_6 
ROOT
HETATM    1  C6  UNL     1      26.949  17.422  30.786  1.00  0.00     0.045 C 
HETATM    2  C7  UNL     1      27.560  17.138  32.142  1.00  0.00     0.014 C 
HETATM    3  C8  UNL     1      26.441  16.504  32.953  1.00  0.00     0.010 C 
HETATM    4  C9  UNL     1      25.823  15.646  31.837  1.00  0.00     0.016 C 
HETATM    5  C10 UNL     1      24.744  14.802  32.273  1.00  0.00     0.019 C 
HETATM    6  C11 UNL     1      23.702  14.216  31.467  1.00  0.00    -0.024 C 
HETATM    7  C12 UNL     1      24.286  13.170  30.513  1.00  0.00     0.013 C 
HETATM    8  C13 UNL     1      25.021  12.077  31.185  1.00  0.00     0.027 C 
HETATM    9  C14 UNL     1      24.222  11.495  32.312  1.00  0.00     0.093 C 
HETATM   10  N1  UNL     1      24.172  10.049  32.165  1.00  0.00    -0.356 N 
ATOM     11  H1  UNL     1      24.734   9.563  31.466  1.00  0.00     0.162 HD
HETATM   12  C15 UNL     1      23.310   9.351  33.036  1.00  0.00     0.217 C 
HETATM   13  O3  UNL     1      23.285   8.104  32.994  1.00  0.00    -0.274 OA
HETATM   14  C16 UNL     1      22.462  10.075  33.972  1.00  0.00     0.103 C 
HETATM   15  C17 UNL     1      22.236  11.510  33.683  1.00  0.00     0.020 C 
HETATM   16  C18 UNL     1      22.818  11.989  32.343  1.00  0.00    -0.019 C 
HETATM   17  C19 UNL     1      22.035  11.269  31.268  1.00  0.00     0.018 C 
HETATM   18  C20 UNL     1      22.681  13.480  32.310  1.00  0.00     0.005 C 
HETATM   19  C21 UNL     1      21.279  13.961  32.111  1.00  0.00     0.007 C 
HETATM   20  C22 UNL     1      21.301  15.467  32.398  1.00  0.00     0.005 C 
HETATM   21  C23 UNL     1      22.028  16.089  31.219  1.00  0.00    -0.006 C 
HETATM   22  C24 UNL     1      20.950  16.480  30.225  1.00  0.00     0.011 C 
HETATM   23  C25 UNL     1      22.915  15.090  30.536  1.00  0.00     0.072 C 
HETATM   24  C26 UNL     1      23.763  15.778  29.540  1.00  0.00     0.154 C 
HETATM   25  O4  UNL     1      23.440  15.642  28.303  1.00  0.00    -0.293 OA
HETATM   26  C27 UNL     1      24.929  16.605  29.702  1.00  0.00     0.054 C 
HETATM   27  C28 UNL     1      25.800  16.539  30.715  1.00  0.00    -0.064 C 
ENDROOT
BRANCH   1  28
HETATM   28  C2  UNL     1      26.709  18.889  30.804  1.00  0.00    -0.058 C 
HETATM   29  C1  UNL     1      25.996  19.541  31.660  1.00  0.00     0.017 C 
BRANCH  28  30
HETATM   30  C3  UNL     1      27.335  19.610  29.671  1.00  0.00     0.204 C 
BRANCH  30  31
HETATM   31  O1  UNL     1      28.672  19.651  29.571  1.00  0.00    -0.363 OA
BRANCH  31  32
HETATM   32  C4  UNL     1      29.347  20.799  29.825  1.00  0.00     0.337 C 
BRANCH  32  33
HETATM   33  O2  UNL     1      30.196  21.165  28.756  1.00  0.00    -0.372 OA
HETATM   34  C5  UNL     1      31.465  20.711  29.107  1.00  0.00     0.204 C 
ENDBRANCH  32  33
ENDBRANCH  31  32
ENDBRANCH  30  31
ENDBRANCH  28  30
ENDBRANCH   1  28
TORSDOF 5
ENDMDL
MODEL 3
REMARK VINA RESULT: -7.928869302      3.505      6.182
REMARK  5 active torsions:
REMARK  status: ('A' for Active; 'I' for Inactive)
REMARK    1  A    between atoms: C2_2  and  C3_3 
REMARK    2  A    between atoms: C2_2  and  C6_8 
REMARK    3  A    between atoms: C3_3  and  O1_4 
REMARK    4  A    between atoms: O1_4  and  C4_5 
REMARK    5  A    between atoms: C4_5  and  O2_6 
ROOT
HETATM    1  C6  UNL     1      18.161  16.702  29.262  1.00  0.00     0.045 C 
HETATM    2  C7  UNL     1      17.806  15.633  28.249  1.00  0.00     0.014 C 
HETATM    3  C8  UNL     1      19.096  14.858  28.029  1.00  0.00     0.010 C 
HETATM    4  C9  UNL     1      19.600  14.856  29.481  1.00  0.00     0.016 C 
HETATM    5  C10 UNL     1      20.809  14.105  29.683  1.00  0.00     0.019 C 
HETATM    6  C11 UNL     1      21.755  14.230  30.764  1.00  0.00    -0.024 C 
HETATM    7  C12 UNL     1      21.121  13.786  32.086  1.00  0.00     0.013 C 
HETATM    8  C13 UNL     1      20.608  12.399  32.079  1.00  0.00     0.027 C 
HETATM    9  C14 UNL     1      21.630  11.443  31.541  1.00  0.00     0.093 C 
HETATM   10  N1  UNL     1      21.787  10.338  32.474  1.00  0.00    -0.356 N 
ATOM     11  H1  UNL     1      21.166  10.222  33.275  1.00  0.00     0.162 HD
HETATM   12  C15 UNL     1      22.840   9.435  32.217  1.00  0.00     0.217 C 
HETATM   13  O3  UNL     1      22.972   8.433  32.951  1.00  0.00    -0.274 OA
HETATM   14  C16 UNL     1      23.759   9.667  31.113  1.00  0.00     0.103 C 
HETATM   15  C17 UNL     1      23.802  11.044  30.569  1.00  0.00     0.020 C 
HETATM   16  C18 UNL     1      22.969  12.067  31.359  1.00  0.00    -0.019 C 
HETATM   17  C19 UNL     1      23.629  12.185  32.715  1.00  0.00     0.018 C 
HETATM   18  C20 UNL     1      22.962  13.338  30.566  1.00  0.00     0.005 C 
HETATM   19  C21 UNL     1      24.263  14.075  30.580  1.00  0.00     0.007 C 
HETATM   20  C22 UNL     1      24.150  15.158  29.500  1.00  0.00     0.005 C 
HETATM   21  C23 UNL     1      23.187  16.187  30.065  1.00  0.00    -0.006 C 
HETATM   22  C24 UNL     1      24.049  17.227  30.759  1.00  0.00     0.011 C 
HETATM   23  C25 UNL     1      22.297  15.585  31.111  1.00  0.00     0.072 C 
HETATM   24  C26 UNL     1      21.238  16.550  31.478  1.00  0.00     0.154 C 
HETATM   25  O4  UNL     1      21.367  17.161  32.602  1.00  0.00    -0.293 OA
HETATM   26  C27 UNL     1      20.043  16.951  30.784  1.00  0.00     0.054 C 
HETATM   27  C28 UNL     1      19.358  16.203  29.910  1.00  0.00    -0.064 C 
ENDROOT
BRANCH   1  28
HETATM   28  C2  UNL     1      18.265  17.942  28.449  1.00  0.00    -0.058 C 
HETATM   29  C1  UNL     1      18.809  19.055  28.810  1.00  0.00     0.017 C 
BRANCH  28  30
HETATM   30  C3  UNL     1      17.615  17.842  27.121  1.00  0.00     0.204 C 
BRANCH  30  31
HETATM   31  O1  UNL     1      17.272  18.962  26.467  1.00  0.00    -0.363 OA
BRANCH  31  32
HETATM   32  C4  UNL     1      15.968  19.246  26.226  1.00  0.00     0.337 C 
BRANCH  32  33
HETATM   33  O2  UNL     1      15.749  20.633  26.053  1.00  0.00    -0.372 OA
HETATM   34  C5  UNL     1      15.842  21.193  27.325  1.00  0.00     0.204 C 
ENDBRANCH  32  33
ENDBRANCH  31  32
ENDBRANCH  30  31
ENDBRANCH  28  30
ENDBRANCH   1  28
TORSDOF 5
ENDMDL
MODEL 4
REMARK VINA RESULT: -7.849200156      2.908      4.863
REMARK  5 active torsions:
REMARK  status: ('A' for Active; 'I' for Inactive)
REMARK    1  A    between atoms: C2_2  and  C3_3 
REMARK    2  A    between atoms: C2_2  and  C6_8 
REMARK    3  A    between atoms: C3_3  and  O1_4 
REMARK    4  A    between atoms: O1_4  and  C4_5 
REMARK    5  A    between atoms: C4_5  and  O2_6 
ROOT
HETATM    1  C6  UNL     1      28.247  19.741  30.961  1.00  0.00     0.045 C 
HETATM    2  C7  UNL     1      27.433  20.170  29.757  1.00  0.00     0.014 C 
HETATM    3  C8  UNL     1      26.875  18.878  29.181  1.00  0.00     0.010 C 
HETATM    4  C9  UNL     1      26.564  18.164  30.506  1.00  0.00     0.016 C 
HETATM    5  C10 UNL     1      25.915  16.891  30.350  1.00  0.00     0.019 C 
HETATM    6  C11 UNL     1      25.865  15.804  31.298  1.00  0.00    -0.024 C 
HETATM    7  C12 UNL     1      25.043  16.202  32.527  1.00  0.00     0.013 C 
HETATM    8  C13 UNL     1      23.656  16.615  32.224  1.00  0.00     0.027 C 
HETATM    9  C14 UNL     1      22.975  15.623  31.330  1.00  0.00     0.093 C 
HETATM   10  N1  UNL     1      21.696  15.254  31.915  1.00  0.00    -0.356 N 
ATOM     11  H1  UNL     1      21.320  15.739  32.730  1.00  0.00     0.162 HD
HETATM   12  C15 UNL     1      20.999  14.192  31.300  1.00  0.00     0.217 C 
HETATM   13  O3  UNL     1      19.865  13.885  31.724  1.00  0.00    -0.274 OA
HETATM   14  C16 UNL     1      21.593  13.466  30.187  1.00  0.00     0.103 C 
HETATM   15  C17 UNL     1      23.059  13.598  30.021  1.00  0.00     0.020 C 
HETATM   16  C18 UNL     1      23.760  14.371  31.149  1.00  0.00    -0.019 C 
HETATM   17  C19 UNL     1      23.605  13.526  32.393  1.00  0.00     0.018 C 
HETATM   18  C20 UNL     1      25.181  14.582  30.722  1.00  0.00     0.005 C 
HETATM   19  C21 UNL     1      26.022  13.347  30.764  1.00  0.00     0.007 C 
HETATM   20  C22 UNL     1      27.322  13.692  30.027  1.00  0.00     0.005 C 
HETATM   21  C23 UNL     1      28.073  14.628  30.958  1.00  0.00    -0.006 C 
HETATM   22  C24 UNL     1      28.991  13.745  31.784  1.00  0.00     0.011 C 
HETATM   23  C25 UNL     1      27.140  15.310  31.915  1.00  0.00     0.072 C 
HETATM   24  C26 UNL     1      27.868  16.365  32.652  1.00  0.00     0.154 C 
HETATM   25  O4  UNL     1      28.190  16.112  33.871  1.00  0.00    -0.293 OA
HETATM   26  C27 UNL     1      28.303  17.675  32.244  1.00  0.00     0.054 C 
HETATM   27  C28 UNL     1      27.729  18.429  31.299  1.00  0.00    -0.064 C 
ENDROOT
BRANCH   1  28
HETATM   28  C2  UNL     1      29.654  19.844  30.493  1.00  0.00    -0.058 C 
HETATM   29  C1  UNL     1      30.626  19.054  30.802  1.00  0.00     0.017 C 
BRANCH  28  30
HETATM   30  C3  UNL     1      29.912  21.020  29.630  1.00  0.00     0.204 C 
BRANCH  30  31
HETATM   31  O1  UNL     1      30.684  20.885  28.541  1.00  0.00    -0.363 OA
BRANCH  31  32
HETATM   32  C4  UNL     1      31.649  21.795  28.264  1.00  0.00     0.337 C 
BRANCH  32  33
HETATM   33  O2  UNL     1      31.641  22.182  26.903  1.00  0.00    -0.372 OA
HETATM   34  C5  UNL     1      32.018  21.050  26.185  1.00  0.00     0.204 C 
ENDBRANCH  32  33
ENDBRANCH  31  32
ENDBRANCH  30  31
ENDBRANCH  28  30
ENDBRANCH   1  28
TORSDOF 5
ENDMDL
MODEL 5
REMARK VINA RESULT: -7.837809959      4.841      7.700
REMARK  5 active torsions:
REMARK  status: ('A' for Active; 'I' for Inactive)
REMARK    1  A    between atoms: C2_2  and  C3_3 
REMARK    2  A    between atoms: C2_2  and  C6_8 
REMARK    3  A    between atoms: C3_3  and  O1_4 
REMARK    4  A    between atoms: O1_4  and  C4_5 
REMARK    5  A    between atoms: C4_5  and  O2_6 
ROOT
HETATM    1  C6  UNL     1      24.158  11.376  31.640  1.00  0.00     0.045 C 
HETATM    2  C7  UNL     1      24.292  11.021  30.174  1.00  0.00     0.014 C 
HETATM    3  C8  UNL     1      22.870  11.031  29.636  1.00  0.00     0.010 C 
HETATM    4  C9  UNL     1      22.349  12.248  30.417  1.00  0.00     0.016 C 
HETATM    5  C10 UNL     1      21.003  12.627  30.087  1.00  0.00     0.019 C 
HETATM    6  C11 UNL     1      20.086  13.407  30.881  1.00  0.00    -0.024 C 
HETATM    7  C12 UNL     1      20.582  14.849  31.013  1.00  0.00     0.013 C 
HETATM    8  C13 UNL     1      20.783  15.544  29.724  1.00  0.00     0.027 C 
HETATM    9  C14 UNL     1      19.588  15.390  28.830  1.00  0.00     0.093 C 
HETATM   10  N1  UNL     1      19.177  16.701  28.352  1.00  0.00    -0.356 N 
ATOM     11  H1  UNL     1      19.742  17.533  28.521  1.00  0.00     0.162 HD
HETATM   12  C15 UNL     1      17.959  16.765  27.644  1.00  0.00     0.217 C 
HETATM   13  O3  UNL     1      17.599  17.856  27.155  1.00  0.00    -0.274 OA
HETATM   14  C16 UNL     1      17.134  15.577  27.485  1.00  0.00     0.103 C 
HETATM   15  C17 UNL     1      17.400  14.459  28.419  1.00  0.00     0.020 C 
HETATM   16  C18 UNL     1      18.420  14.782  29.524  1.00  0.00    -0.019 C 
HETATM   17  C19 UNL     1      17.775  15.840  30.390  1.00  0.00     0.018 C 
HETATM   18  C20 UNL     1      18.717  13.499  30.238  1.00  0.00     0.005 C 
HETATM   19  C21 UNL     1      17.608  13.016  31.116  1.00  0.00     0.007 C 
HETATM   20  C22 UNL     1      17.973  11.580  31.513  1.00  0.00     0.005 C 
HETATM   21  C23 UNL     1      19.125  11.718  32.493  1.00  0.00    -0.006 C 
HETATM   22  C24 UNL     1      18.496  11.745  33.874  1.00  0.00     0.011 C 
HETATM   23  C25 UNL     1      19.844  13.022  32.311  1.00  0.00     0.072 C 
HETATM   24  C26 UNL     1      21.079  13.027  33.123  1.00  0.00     0.154 C 
HETATM   25  O4  UNL     1      21.064  13.717  34.207  1.00  0.00    -0.293 OA
HETATM   26  C27 UNL     1      22.346  12.374  32.921  1.00  0.00     0.054 C 
HETATM   27  C28 UNL     1      22.869  12.033  31.737  1.00  0.00    -0.064 C 
ENDROOT
BRANCH   1  28
HETATM   28  C2  UNL     1      24.341  10.077  32.339  1.00  0.00    -0.058 C 
HETATM   29  C1  UNL     1      23.412   9.246  32.671  1.00  0.00     0.017 C 
BRANCH  28  30
HETATM   30  C3  UNL     1      25.747   9.791  32.709  1.00  0.00     0.204 C 
BRANCH  30  31
HETATM   31  O1  UNL     1      26.697  10.703  32.454  1.00  0.00    -0.363 OA
BRANCH  31  32
HETATM   32  C4  UNL     1      27.842  10.346  31.822  1.00  0.00     0.337 C 
BRANCH  32  33
HETATM   33  O2  UNL     1      27.997  11.012  30.584  1.00  0.00    -0.372 OA
HETATM   34  C5  UNL     1      27.878  12.371  30.867  1.00  0.00     0.204 C 
ENDBRANCH  32  33
ENDBRANCH  31  32
ENDBRANCH  30  31
ENDBRANCH  28  30
ENDBRANCH   1  28
TORSDOF 5
ENDMDL
