MODEL 1
REMARK VINA RESULT: -7.346798789      0.000      0.000
REMARK  8 active torsions:
REMARK  status: ('A' for Active; 'I' for Inactive)
REMARK    1  A    between atoms: C3_3  and  O1_4 
REMARK    2  A    between atoms: O1_4  and  C4_5 
REMARK    3  A    between atoms: C5_8  and  N2_9 
REMARK    4  A    between atoms: C6_14  and  N4_15 
REMARK    5  A    between atoms: N4_15  and  C7_17 
REMARK    6  A    between atoms: C7_17  and  C8_18 
REMARK    7  A    between atoms: C8_18  and  C10_20 
REMARK    8  A    between atoms: C10_20  and  O3_22 
ROOT
HETATM    1  C1  UNL     1      13.481  13.408  24.178  1.00  0.00     0.014 C 
HETATM    2  C2  UNL     1      13.760  14.531  24.517  1.00  0.00    -0.091 C 
HETATM    3  C3  UNL     1      14.077  15.919  24.933  1.00  0.00     0.270 C 
ENDROOT
BRANCH   3   4
HETATM    4  O1  UNL     1      12.892  16.481  25.397  1.00  0.00    -0.322 OA
BRANCH   4   5
HETATM    5  C4  UNL     1      12.783  17.540  26.274  1.00  0.00     0.179 A 
HETATM    6  N1  UNL     1      13.883  17.971  26.913  1.00  0.00    -0.169 N 
HETATM    7  C5  UNL     1      13.836  18.995  27.776  1.00  0.00     0.679 A 
ATOM      8  H1  UNL     1      14.774  17.508  26.738  1.00  0.00     0.186 HD
HETATM    9  N3  UNL     1      12.660  19.619  28.019  1.00  0.00    -0.176 N 
HETATM   10  C6  UNL     1      11.512  19.253  27.422  1.00  0.00     0.138 A 
ATOM     11  H3  UNL     1      12.644  20.396  28.679  1.00  0.00     0.186 HD
HETATM   12  C12 UNL     1      11.596  18.192  26.538  1.00  0.00     0.106 A 
HETATM   13 BR1  UNL     1      10.039  17.597  25.644  1.00  0.00    -0.042 Br
BRANCH   7  14
HETATM   14  N2  UNL     1      14.932  19.352  28.350  1.00  0.00    -0.234 N 
ATOM     15  H22 UNL     1      15.583  20.008  27.918  1.00  0.00     0.174 HD
ATOM     16  H21 UNL     1      15.143  18.956  29.266  1.00  0.00     0.174 HD
ENDBRANCH   7  14
BRANCH  10  17
HETATM   17  N4  UNL     1      10.381  19.798  27.608  1.00  0.00    -0.374 N 
ATOM     18  H4  UNL     1       9.670  19.219  28.055  1.00  0.00     0.161 HD
BRANCH  17  19
HETATM   19  C7  UNL     1       9.989  21.122  27.268  1.00  0.00     0.135 C 
BRANCH  19  20
HETATM   20  C8  UNL     1       8.830  21.635  28.097  1.00  0.00     0.099 C 
HETATM   21  C9  UNL     1       9.410  22.402  29.269  1.00  0.00     0.022 C 
BRANCH  20  22
HETATM   22  C10 UNL     1       8.039  20.503  28.655  1.00  0.00     0.263 C 
HETATM   23  O2  UNL     1       7.147  19.914  27.963  1.00  0.00    -0.265 OA
BRANCH  22  24
HETATM   24  O3  UNL     1       8.233  20.036  29.947  1.00  0.00    -0.326 OA
HETATM   25  C11 UNL     1       7.151  19.816  30.834  1.00  0.00     0.213 C 
ENDBRANCH  22  24
ENDBRANCH  20  22
ENDBRANCH  19  20
ENDBRANCH  17  19
ENDBRANCH  10  17
ENDBRANCH   4   5
ENDBRANCH   3   4
TORSDOF 8
ENDMDL
MODEL 2
REMARK VINA RESULT: -7.156746913      1.687      6.640
REMARK  8 active torsions:
REMARK  status: ('A' for Active; 'I' for Inactive)
REMARK    1  A    between atoms: C3_3  and  O1_4 
REMARK    2  A    between atoms: O1_4  and  C4_5 
REMARK    3  A    between atoms: C5_8  and  N2_9 
REMARK    4  A    between atoms: C6_14  and  N4_15 
REMARK    5  A    between atoms: N4_15  and  C7_17 
REMARK    6  A    between atoms: C7_17  and  C8_18 
REMARK    7  A    between atoms: C8_18  and  C10_20 
REMARK    8  A    between atoms: C10_20  and  O3_22 
ROOT
HETATM    1  C1  UNL     1       7.897  20.085  30.371  1.00  0.00     0.014 C 
HETATM    2  C2  UNL     1       8.634  20.629  29.589  1.00  0.00    -0.091 C 
HETATM    3  C3  UNL     1       9.549  21.275  28.615  1.00  0.00     0.270 C 
ENDROOT
BRANCH   3   4
HETATM    4  O1  UNL     1       9.736  20.368  27.576  1.00  0.00    -0.322 OA
BRANCH   4   5
HETATM    5  C4  UNL     1      10.848  19.576  27.378  1.00  0.00     0.179 A 
HETATM    6  N1  UNL     1      12.029  19.977  27.878  1.00  0.00    -0.169 N 
HETATM    7  C5  UNL     1      13.141  19.249  27.716  1.00  0.00     0.679 A 
ATOM      8  H1  UNL     1      12.080  20.856  28.393  1.00  0.00     0.186 HD
HETATM    9  N3  UNL     1      13.090  18.081  27.035  1.00  0.00    -0.176 N 
HETATM   10  C6  UNL     1      11.950  17.605  26.503  1.00  0.00     0.138 A 
ATOM     11  H3  UNL     1      13.947  17.540  26.921  1.00  0.00     0.186 HD
HETATM   12  C12 UNL     1      10.820  18.382  26.688  1.00  0.00     0.106 A 
HETATM   13 BR1  UNL     1       9.165  17.805  25.980  1.00  0.00    -0.042 Br
BRANCH   7  14
HETATM   14  N2  UNL     1      14.237  19.699  28.224  1.00  0.00    -0.234 N 
ATOM     15  H22 UNL     1      14.330  19.900  29.220  1.00  0.00     0.174 HD
ATOM     16  H21 UNL     1      15.027  19.853  27.598  1.00  0.00     0.174 HD
ENDBRANCH   7  14
BRANCH  10  17
HETATM   17  N4  UNL     1      11.839  16.519  25.856  1.00  0.00    -0.374 N 
ATOM     18  H4  UNL     1      11.318  15.773  26.316  1.00  0.00     0.161 HD
BRANCH  17  19
HETATM   19  C7  UNL     1      12.357  16.220  24.566  1.00  0.00     0.135 C 
BRANCH  19  20
HETATM   20  C8  UNL     1      13.549  15.286  24.601  1.00  0.00     0.099 C 
HETATM   21  C9  UNL     1      13.176  14.040  23.823  1.00  0.00     0.022 C 
BRANCH  20  22
HETATM   22  C10 UNL     1      13.848  14.865  25.998  1.00  0.00     0.263 C 
HETATM   23  O2  UNL     1      14.672  15.511  26.723  1.00  0.00    -0.265 OA
BRANCH  22  24
HETATM   24  O3  UNL     1      13.248  13.755  26.576  1.00  0.00    -0.326 OA
HETATM   25  C11 UNL     1      13.522  13.364  27.909  1.00  0.00     0.213 C 
ENDBRANCH  22  24
ENDBRANCH  20  22
ENDBRANCH  19  20
ENDBRANCH  17  19
ENDBRANCH  10  17
ENDBRANCH   4   5
ENDBRANCH   3   4
TORSDOF 8
ENDMDL
MODEL 3
REMARK VINA RESULT: -7.120609145      1.667      6.550
REMARK  8 active torsions:
REMARK  status: ('A' for Active; 'I' for Inactive)
REMARK    1  A    between atoms: C3_3  and  O1_4 
REMARK    2  A    between atoms: O1_4  and  C4_5 
REMARK    3  A    between atoms: C5_8  and  N2_9 
REMARK    4  A    between atoms: C6_14  and  N4_15 
REMARK    5  A    between atoms: N4_15  and  C7_17 
REMARK    6  A    between atoms: C7_17  and  C8_18 
REMARK    7  A    between atoms: C8_18  and  C10_20 
REMARK    8  A    between atoms: C10_20  and  O3_22 
ROOT
HETATM    1  C1  UNL     1       7.431  19.165  29.021  1.00  0.00     0.014 C 
HETATM    2  C2  UNL     1       8.104  20.049  28.553  1.00  0.00    -0.091 C 
HETATM    3  C3  UNL     1       8.947  21.119  27.965  1.00  0.00     0.270 C 
ENDROOT
BRANCH   3   4
HETATM    4  O1  UNL     1       9.596  20.562  26.867  1.00  0.00    -0.322 OA
BRANCH   4   5
HETATM    5  C4  UNL     1      10.677  19.706  26.909  1.00  0.00     0.179 A 
HETATM    6  N1  UNL     1      11.791  20.097  27.551  1.00  0.00    -0.169 N 
HETATM    7  C5  UNL     1      12.870  19.307  27.623  1.00  0.00     0.679 A 
ATOM      8  H1  UNL     1      11.815  21.015  27.992  1.00  0.00     0.186 HD
HETATM    9  N3  UNL     1      12.853  18.085  27.042  1.00  0.00    -0.176 N 
HETATM   10  C6  UNL     1      11.780  17.615  26.381  1.00  0.00     0.138 A 
ATOM     11  H3  UNL     1      13.684  17.498  27.107  1.00  0.00     0.186 HD
HETATM   12  C12 UNL     1      10.682  18.457  26.324  1.00  0.00     0.106 A 
HETATM   13 BR1  UNL     1       9.121  17.893  25.419  1.00  0.00    -0.042 Br
BRANCH   7  14
HETATM   14  N2  UNL     1      13.901  19.750  28.256  1.00  0.00    -0.234 N 
ATOM     15  H22 UNL     1      13.959  20.712  28.592  1.00  0.00     0.174 HD
ATOM     16  H21 UNL     1      14.677  19.108  28.417  1.00  0.00     0.174 HD
ENDBRANCH   7  14
BRANCH  10  17
HETATM   17  N4  UNL     1      11.704  16.482  25.817  1.00  0.00    -0.374 N 
ATOM     18  H4  UNL     1      11.189  15.761  26.322  1.00  0.00     0.161 HD
BRANCH  17  19
HETATM   19  C7  UNL     1      12.253  16.097  24.563  1.00  0.00     0.135 C 
BRANCH  19  20
HETATM   20  C8  UNL     1      13.481  15.220  24.691  1.00  0.00     0.099 C 
HETATM   21  C9  UNL     1      13.275  14.012  23.798  1.00  0.00     0.022 C 
BRANCH  20  22
HETATM   22  C10 UNL     1      13.630  14.721  26.086  1.00  0.00     0.263 C 
HETATM   23  O2  UNL     1      13.125  13.611  26.450  1.00  0.00    -0.265 OA
BRANCH  22  24
HETATM   24  O3  UNL     1      14.323  15.436  27.053  1.00  0.00    -0.326 OA
HETATM   25  C11 UNL     1      15.692  15.767  26.902  1.00  0.00     0.213 C 
ENDBRANCH  22  24
ENDBRANCH  20  22
ENDBRANCH  19  20
ENDBRANCH  17  19
ENDBRANCH  10  17
ENDBRANCH   4   5
ENDBRANCH   3   4
TORSDOF 8
ENDMDL
MODEL 4
REMARK VINA RESULT: -6.982291042      1.718      7.186
REMARK  8 active torsions:
REMARK  status: ('A' for Active; 'I' for Inactive)
REMARK    1  A    between atoms: C3_3  and  O1_4 
REMARK    2  A    between atoms: O1_4  and  C4_5 
REMARK    3  A    between atoms: C5_8  and  N2_9 
REMARK    4  A    between atoms: C6_14  and  N4_15 
REMARK    5  A    between atoms: N4_15  and  C7_17 
REMARK    6  A    between atoms: C7_17  and  C8_18 
REMARK    7  A    between atoms: C8_18  and  C10_20 
REMARK    8  A    between atoms: C10_20  and  O3_22 
ROOT
HETATM    1  C1  UNL     1       7.896  20.114  30.527  1.00  0.00     0.014 C 
HETATM    2  C2  UNL     1       8.688  20.573  29.743  1.00  0.00    -0.091 C 
HETATM    3  C3  UNL     1       9.669  21.113  28.769  1.00  0.00     0.270 C 
ENDROOT
BRANCH   3   4
HETATM    4  O1  UNL     1       9.810  20.156  27.769  1.00  0.00    -0.322 OA
BRANCH   4   5
HETATM    5  C4  UNL     1      10.978  19.508  27.422  1.00  0.00     0.179 A 
HETATM    6  N1  UNL     1      12.125  19.874  28.018  1.00  0.00    -0.169 N 
HETATM    7  C5  UNL     1      13.288  19.280  27.720  1.00  0.00     0.679 A 
ATOM      8  H1  UNL     1      12.111  20.621  28.712  1.00  0.00     0.186 HD
HETATM    9  N3  UNL     1      13.324  18.288  26.800  1.00  0.00    -0.176 N 
HETATM   10  C6  UNL     1      12.223  17.860  26.158  1.00  0.00     0.138 A 
ATOM     11  H3  UNL     1      14.219  17.848  26.587  1.00  0.00     0.186 HD
HETATM   12  C12 UNL     1      11.038  18.495  26.488  1.00  0.00     0.106 A 
HETATM   13 BR1  UNL     1       9.431  17.969  25.643  1.00  0.00    -0.042 Br
BRANCH   7  14
HETATM   14  N2  UNL     1      14.347  19.685  28.332  1.00  0.00    -0.234 N 
ATOM     15  H22 UNL     1      15.261  19.708  27.879  1.00  0.00     0.174 HD
ATOM     16  H21 UNL     1      14.253  19.988  29.302  1.00  0.00     0.174 HD
ENDBRANCH   7  14
BRANCH  10  17
HETATM   17  N4  UNL     1      12.193  16.936  25.289  1.00  0.00    -0.374 N 
ATOM     18  H4  UNL     1      11.816  17.190  24.375  1.00  0.00     0.161 HD
BRANCH  17  19
HETATM   19  C7  UNL     1      12.622  15.589  25.438  1.00  0.00     0.135 C 
BRANCH  19  20
HETATM   20  C8  UNL     1      13.763  15.218  24.514  1.00  0.00     0.099 C 
HETATM   21  C9  UNL     1      13.537  13.790  24.059  1.00  0.00     0.022 C 
BRANCH  20  22
HETATM   22  C10 UNL     1      15.063  15.253  25.240  1.00  0.00     0.263 C 
HETATM   23  O2  UNL     1      15.208  15.932  26.307  1.00  0.00    -0.265 OA
BRANCH  22  24
HETATM   24  O3  UNL     1      16.174  14.553  24.792  1.00  0.00    -0.326 OA
HETATM   25  C11 UNL     1      17.472  15.119  24.805  1.00  0.00     0.213 C 
ENDBRANCH  22  24
ENDBRANCH  20  22
ENDBRANCH  19  20
ENDBRANCH  17  19
ENDBRANCH  10  17
ENDBRANCH   4   5
ENDBRANCH   3   4
TORSDOF 8
ENDMDL
MODEL 5
REMARK VINA RESULT: -6.959903520      1.358      2.001
REMARK  8 active torsions:
REMARK  status: ('A' for Active; 'I' for Inactive)
REMARK    1  A    between atoms: C3_3  and  O1_4 
REMARK    2  A    between atoms: O1_4  and  C4_5 
REMARK    3  A    between atoms: C5_8  and  N2_9 
REMARK    4  A    between atoms: C6_14  and  N4_15 
REMARK    5  A    between atoms: N4_15  and  C7_17 
REMARK    6  A    between atoms: C7_17  and  C8_18 
REMARK    7  A    between atoms: C8_18  and  C10_20 
REMARK    8  A    between atoms: C10_20  and  O3_22 
ROOT
HETATM    1  C1  UNL     1      13.491  13.570  24.524  1.00  0.00     0.014 C 
HETATM    2  C2  UNL     1      13.117  14.715  24.480  1.00  0.00    -0.091 C 
HETATM    3  C3  UNL     1      12.639  16.119  24.445  1.00  0.00     0.270 C 
ENDROOT
BRANCH   3   4
HETATM    4  O1  UNL     1      12.022  16.364  25.668  1.00  0.00    -0.322 OA
BRANCH   4   5
HETATM    5  C4  UNL     1      11.875  17.596  26.272  1.00  0.00     0.179 A 
HETATM    6  N1  UNL     1      12.906  18.106  26.967  1.00  0.00    -0.169 N 
HETATM    7  C5  UNL     1      12.820  19.297  27.574  1.00  0.00     0.679 A 
ATOM      8  H1  UNL     1      13.774  17.575  27.033  1.00  0.00     0.186 HD
HETATM    9  N3  UNL     1      11.674  20.014  27.495  1.00  0.00    -0.176 N 
HETATM   10  C6  UNL     1      10.596  19.578  26.820  1.00  0.00     0.138 A 
ATOM     11  H3  UNL     1      11.628  20.918  27.964  1.00  0.00     0.186 HD
HETATM   12  C12 UNL     1      10.718  18.344  26.205  1.00  0.00     0.106 A 
HETATM   13 BR1  UNL     1       9.260  17.639  25.230  1.00  0.00    -0.042 Br
BRANCH   7  14
HETATM   14  N2  UNL     1      13.850  19.721  28.221  1.00  0.00    -0.234 N 
ATOM     15  H22 UNL     1      14.600  19.095  28.516  1.00  0.00     0.174 HD
ATOM     16  H21 UNL     1      13.902  20.716  28.438  1.00  0.00     0.174 HD
ENDBRANCH   7  14
BRANCH  10  17
HETATM   17  N4  UNL     1       9.497  20.203  26.710  1.00  0.00    -0.374 N 
ATOM     18  H4  UNL     1       9.468  20.942  26.007  1.00  0.00     0.161 HD
BRANCH  17  19
HETATM   19  C7  UNL     1       8.302  19.996  27.453  1.00  0.00     0.135 C 
BRANCH  19  20
HETATM   20  C8  UNL     1       8.537  19.879  28.944  1.00  0.00     0.099 C 
HETATM   21  C9  UNL     1       7.240  19.415  29.576  1.00  0.00     0.022 C 
BRANCH  20  22
HETATM   22  C10 UNL     1       8.869  21.206  29.533  1.00  0.00     0.263 C 
HETATM   23  O2  UNL     1       8.233  21.662  30.537  1.00  0.00    -0.265 OA
BRANCH  22  24
HETATM   24  O3  UNL     1       9.880  22.006  29.020  1.00  0.00    -0.326 OA
HETATM   25  C11 UNL     1       9.605  23.217  28.340  1.00  0.00     0.213 C 
ENDBRANCH  22  24
ENDBRANCH  20  22
ENDBRANCH  19  20
ENDBRANCH  17  19
ENDBRANCH  10  17
ENDBRANCH   4   5
ENDBRANCH   3   4
TORSDOF 8
ENDMDL
