MODEL 1
REMARK VINA RESULT: -7.889720883      0.000      0.000
REMARK  6 active torsions:
REMARK  status: ('A' for Active; 'I' for Inactive)
REMARK    1  A    between atoms: O1_2  and  C2_3 
REMARK    2  A    between atoms: C8_11  and  O2_12 
REMARK    3  A    between atoms: C9_14  and  O3_15 
REMARK    4  A    between atoms: C11_17  and  C12_18 
REMARK    5  A    between atoms: C12_18  and  O4_19 
REMARK    6  A    between atoms: C13_21  and  C14_22 
ROOT
HETATM    1  C2  UNL     1      13.839  16.713  26.851  1.00  0.00     0.106 A 
HETATM    2  C3  UNL     1      12.826  16.466  25.953  1.00  0.00     0.070 A 
HETATM    3  C4  UNL     1      11.649  17.227  25.957  1.00  0.00     0.049 A 
HETATM    4  N1  UNL     1      10.539  17.187  25.202  1.00  0.00    -0.350 N 
ATOM      5  H1  UNL     1      10.358  16.539  24.434  1.00  0.00     0.166 HD
HETATM    6  C5  UNL     1       9.712  18.150  25.635  1.00  0.00     0.109 A 
HETATM    7  C6  UNL     1      10.312  18.814  26.687  1.00  0.00    -0.002 A 
HETATM    8  C7  UNL     1      11.559  18.228  26.902  1.00  0.00     0.036 A 
HETATM    9  C8  UNL     1      12.567  18.488  27.811  1.00  0.00     0.115 A 
HETATM   10  C9  UNL     1      13.707  17.724  27.779  1.00  0.00     0.136 A 
HETATM   11  C11 UNL     1       9.673  19.943  27.403  1.00  0.00     0.069 C 
HETATM   12  C13 UNL     1       8.174  19.773  27.290  1.00  0.00     0.109 C 
HETATM   13  N2  UNL     1       7.788  19.648  25.899  1.00  0.00    -0.349 N 
ATOM     14  H2  UNL     1       7.139  20.299  25.458  1.00  0.00     0.163 HD
HETATM   15  C15 UNL     1       8.373  18.559  25.183  1.00  0.00     0.269 C 
HETATM   16  O5  UNL     1       7.768  18.000  24.231  1.00  0.00    -0.266 OA
ENDROOT
BRANCH  11  17
HETATM   17  C12 UNL     1      10.038  21.278  26.768  1.00  0.00     0.175 C 
BRANCH  17  18
HETATM   18  O4  UNL     1      10.179  22.248  27.754  1.00  0.00    -0.400 OA
ATOM     19  H4  UNL     1      10.581  23.027  27.386  1.00  0.00     0.209 HD
ENDBRANCH  17  18
ENDBRANCH  11  17
BRANCH  12  20
HETATM   20  C14 UNL     1       7.685  18.606  28.116  1.00  0.00     0.140 C 
HETATM   21 CL1  UNL     1       6.984  19.234  29.620  1.00  0.00    -0.128 Cl
ENDBRANCH  12  20
BRANCH   9  22
HETATM   22  O2  UNL     1      12.390  19.522  28.732  1.00  0.00    -0.357 OA
ATOM     23  H2  UNL     1      13.156  19.898  29.149  1.00  0.00     0.217 HD
ENDBRANCH   9  22
BRANCH  10  24
HETATM   24  O3  UNL     1      14.700  17.992  28.687  1.00  0.00    -0.351 OA
HETATM   25  C10 UNL     1      15.699  18.925  28.340  1.00  0.00     0.210 C 
ENDBRANCH  10  24
BRANCH   1  26
HETATM   26  O1  UNL     1      14.989  15.968  26.845  1.00  0.00    -0.353 OA
HETATM   27  C1  UNL     1      15.514  15.355  25.680  1.00  0.00     0.210 C 
ENDBRANCH   1  26
TORSDOF 6
ENDMDL
MODEL 2
REMARK VINA RESULT: -6.988113092      4.307      7.624
REMARK  6 active torsions:
REMARK  status: ('A' for Active; 'I' for Inactive)
REMARK    1  A    between atoms: O1_2  and  C2_3 
REMARK    2  A    between atoms: C8_11  and  O2_12 
REMARK    3  A    between atoms: C9_14  and  O3_15 
REMARK    4  A    between atoms: C11_17  and  C12_18 
REMARK    5  A    between atoms: C12_18  and  O4_19 
REMARK    6  A    between atoms: C13_21  and  C14_22 
ROOT
HETATM    1  C2  UNL     1      12.592  17.288  25.995  1.00  0.00     0.106 A 
HETATM    2  C3  UNL     1      12.552  16.365  24.977  1.00  0.00     0.070 A 
HETATM    3  C4  UNL     1      13.395  15.246  24.977  1.00  0.00     0.049 A 
HETATM    4  N1  UNL     1      13.546  14.222  24.120  1.00  0.00    -0.350 N 
ATOM      5  H1  UNL     1      13.025  14.081  23.253  1.00  0.00     0.166 HD
HETATM    6  C5  UNL     1      14.504  13.417  24.605  1.00  0.00     0.109 A 
HETATM    7  C6  UNL     1      14.968  13.942  25.795  1.00  0.00    -0.002 A 
HETATM    8  C7  UNL     1      14.261  15.119  26.043  1.00  0.00     0.036 A 
HETATM    9  C8  UNL     1      14.313  16.038  27.073  1.00  0.00     0.115 A 
HETATM   10  C9  UNL     1      13.473  17.124  27.042  1.00  0.00     0.136 A 
HETATM   11  C11 UNL     1      16.031  13.301  26.604  1.00  0.00     0.069 C 
HETATM   12  C13 UNL     1      16.906  12.501  25.665  1.00  0.00     0.109 C 
HETATM   13  N2  UNL     1      16.099  11.578  24.894  1.00  0.00    -0.349 N 
ATOM     14  H2  UNL     1      16.253  10.570  24.925  1.00  0.00     0.163 HD
HETATM   15  C15 UNL     1      15.075  12.163  24.089  1.00  0.00     0.269 C 
HETATM   16  O5  UNL     1      14.700  11.628  23.013  1.00  0.00    -0.266 OA
ENDROOT
BRANCH  11  17
HETATM   17  C12 UNL     1      15.443  12.338  27.626  1.00  0.00     0.175 C 
BRANCH  17  18
HETATM   18  O4  UNL     1      15.193  13.008  28.818  1.00  0.00    -0.400 OA
ATOM     19  H4  UNL     1      14.511  12.559  29.304  1.00  0.00     0.209 HD
ENDBRANCH  17  18
ENDBRANCH  11  17
BRANCH  12  20
HETATM   20  C14 UNL     1      17.735  13.400  24.777  1.00  0.00     0.140 C 
HETATM   21 CL1  UNL     1      18.588  12.393  23.591  1.00  0.00    -0.128 Cl
ENDBRANCH  12  20
BRANCH   9  22
HETATM   22  O2  UNL     1      15.221  15.830  28.114  1.00  0.00    -0.357 OA
ATOM     23  H2  UNL     1      15.904  16.473  28.259  1.00  0.00     0.217 HD
ENDBRANCH   9  22
BRANCH  10  24
HETATM   24  O3  UNL     1      13.535  18.029  28.072  1.00  0.00    -0.351 OA
HETATM   25  C10 UNL     1      14.505  19.049  28.016  1.00  0.00     0.210 C 
ENDBRANCH  10  24
BRANCH   1  26
HETATM   26  O1  UNL     1      11.766  18.382  25.993  1.00  0.00    -0.353 OA
HETATM   27  C1  UNL     1      10.355  18.293  26.087  1.00  0.00     0.210 C 
ENDBRANCH   1  26
TORSDOF 6
ENDMDL
MODEL 3
REMARK VINA RESULT: -6.928787500      1.281      1.506
REMARK  6 active torsions:
REMARK  status: ('A' for Active; 'I' for Inactive)
REMARK    1  A    between atoms: O1_2  and  C2_3 
REMARK    2  A    between atoms: C8_11  and  O2_12 
REMARK    3  A    between atoms: C9_14  and  O3_15 
REMARK    4  A    between atoms: C11_17  and  C12_18 
REMARK    5  A    between atoms: C12_18  and  O4_19 
REMARK    6  A    between atoms: C13_21  and  C14_22 
ROOT
HETATM    1  C2  UNL     1      12.941  16.255  25.326  1.00  0.00     0.106 A 
HETATM    2  C3  UNL     1      11.699  16.411  24.757  1.00  0.00     0.070 A 
HETATM    3  C4  UNL     1      10.780  17.341  25.261  1.00  0.00     0.049 A 
HETATM    4  N1  UNL     1       9.533  17.677  24.892  1.00  0.00    -0.350 N 
ATOM      5  H1  UNL     1       9.006  17.274  24.116  1.00  0.00     0.166 HD
HETATM    6  C5  UNL     1       9.102  18.637  25.726  1.00  0.00     0.109 A 
HETATM    7  C6  UNL     1      10.098  18.914  26.641  1.00  0.00    -0.002 A 
HETATM    8  C7  UNL     1      11.183  18.086  26.350  1.00  0.00     0.036 A 
HETATM    9  C8  UNL     1      12.427  17.941  26.933  1.00  0.00     0.115 A 
HETATM   10  C9  UNL     1      13.304  17.020  26.414  1.00  0.00     0.136 A 
HETATM   11  C11 UNL     1       9.958  19.931  27.708  1.00  0.00     0.069 C 
HETATM   12  C13 UNL     1       8.486  20.056  28.036  1.00  0.00     0.109 C 
HETATM   13  N2  UNL     1       7.728  20.338  26.835  1.00  0.00    -0.349 N 
ATOM     14  H2  UNL     1       7.158  21.178  26.740  1.00  0.00     0.163 HD
HETATM   15  C15 UNL     1       7.827  19.368  25.790  1.00  0.00     0.269 C 
HETATM   16  O5  UNL     1       6.877  19.168  24.989  1.00  0.00    -0.266 OA
ENDROOT
BRANCH  11  17
HETATM   17  C12 UNL     1      10.447  21.295  27.241  1.00  0.00     0.175 C 
BRANCH  17  18
HETATM   18  O4  UNL     1       9.918  22.292  28.054  1.00  0.00    -0.400 OA
ATOM     19  H4  UNL     1      10.309  23.129  27.833  1.00  0.00     0.209 HD
ENDBRANCH  17  18
ENDBRANCH  11  17
BRANCH  12  20
HETATM   20  C14 UNL     1       7.972  18.828  28.751  1.00  0.00     0.140 C 
HETATM   21 CL1  UNL     1       6.900  19.348  30.066  1.00  0.00    -0.128 Cl
ENDBRANCH  12  20
BRANCH   9  22
HETATM   22  O2  UNL     1      12.750  18.738  28.033  1.00  0.00    -0.357 OA
ATOM     23  H2  UNL     1      13.407  18.427  28.645  1.00  0.00     0.217 HD
ENDBRANCH   9  22
BRANCH  10  24
HETATM   24  O3  UNL     1      14.536  16.886  27.002  1.00  0.00    -0.351 OA
HETATM   25  C10 UNL     1      14.881  15.643  27.571  1.00  0.00     0.210 C 
ENDBRANCH  10  24
BRANCH   1  26
HETATM   26  O1  UNL     1      13.839  15.345  24.831  1.00  0.00    -0.353 OA
HETATM   27  C1  UNL     1      13.456  14.172  24.135  1.00  0.00     0.210 C 
ENDBRANCH   1  26
TORSDOF 6
ENDMDL
MODEL 4
REMARK VINA RESULT: -6.466589439      3.231      6.876
REMARK  6 active torsions:
REMARK  status: ('A' for Active; 'I' for Inactive)
REMARK    1  A    between atoms: O1_2  and  C2_3 
REMARK    2  A    between atoms: C8_11  and  O2_12 
REMARK    3  A    between atoms: C9_14  and  O3_15 
REMARK    4  A    between atoms: C11_17  and  C12_18 
REMARK    5  A    between atoms: C12_18  and  O4_19 
REMARK    6  A    between atoms: C13_21  and  C14_22 
ROOT
HETATM    1  C2  UNL     1      11.399  19.388  27.267  1.00  0.00     0.106 A 
HETATM    2  C3  UNL     1      12.585  19.215  27.940  1.00  0.00     0.070 A 
HETATM    3  C4  UNL     1      13.393  18.092  27.715  1.00  0.00     0.049 A 
HETATM    4  N1  UNL     1      14.570  17.701  28.232  1.00  0.00    -0.350 N 
ATOM      5  H1  UNL     1      15.114  18.203  28.934  1.00  0.00     0.166 HD
HETATM    6  C5  UNL     1      14.902  16.533  27.660  1.00  0.00     0.109 A 
HETATM    7  C6  UNL     1      13.914  16.178  26.763  1.00  0.00    -0.002 A 
HETATM    8  C7  UNL     1      12.939  17.175  26.790  1.00  0.00     0.036 A 
HETATM    9  C8  UNL     1      11.750  17.333  26.105  1.00  0.00     0.115 A 
HETATM   10  C9  UNL     1      10.982  18.446  26.350  1.00  0.00     0.136 A 
HETATM   11  C11 UNL     1      13.964  14.940  25.951  1.00  0.00     0.069 C 
HETATM   12  C13 UNL     1      14.784  13.921  26.713  1.00  0.00     0.109 C 
HETATM   13  N2  UNL     1      16.081  14.472  27.047  1.00  0.00    -0.349 N 
ATOM     14  H2  UNL     1      16.949  14.040  26.732  1.00  0.00     0.163 HD
HETATM   15  C15 UNL     1      16.070  15.659  27.844  1.00  0.00     0.269 C 
HETATM   16  O5  UNL     1      17.007  15.919  28.643  1.00  0.00    -0.266 OA
ENDROOT
BRANCH  11  17
HETATM   17  C12 UNL     1      14.650  15.182  24.614  1.00  0.00     0.175 C 
BRANCH  17  18
HETATM   18  O4  UNL     1      15.386  14.060  24.249  1.00  0.00    -0.400 OA
ATOM     19  H4  UNL     1      15.520  14.054  23.308  1.00  0.00     0.209 HD
ENDBRANCH  17  18
ENDBRANCH  11  17
BRANCH  12  20
HETATM   20  C14 UNL     1      14.051  13.424  27.937  1.00  0.00     0.140 C 
HETATM   21 CL1  UNL     1      13.137  11.969  27.494  1.00  0.00    -0.128 Cl
ENDBRANCH  12  20
BRANCH   9  22
HETATM   22  O2  UNL     1      11.368  16.354  25.186  1.00  0.00    -0.357 OA
ATOM     23  H2  UNL     1      10.442  16.189  25.053  1.00  0.00     0.217 HD
ENDBRANCH   9  22
BRANCH  10  24
HETATM   24  O3  UNL     1       9.803  18.591  25.664  1.00  0.00    -0.351 OA
HETATM   25  C10 UNL     1       8.635  18.011  26.198  1.00  0.00     0.210 C 
ENDBRANCH  10  24
BRANCH   1  26
HETATM   26  O1  UNL     1      10.611  20.487  27.488  1.00  0.00    -0.353 OA
HETATM   27  C1  UNL     1       9.881  20.694  28.685  1.00  0.00     0.210 C 
ENDBRANCH   1  26
TORSDOF 6
ENDMDL
MODEL 5
REMARK VINA RESULT: -6.356704610      4.182      7.731
REMARK  6 active torsions:
REMARK  status: ('A' for Active; 'I' for Inactive)
REMARK    1  A    between atoms: O1_2  and  C2_3 
REMARK    2  A    between atoms: C8_11  and  O2_12 
REMARK    3  A    between atoms: C9_14  and  O3_15 
REMARK    4  A    between atoms: C11_17  and  C12_18 
REMARK    5  A    between atoms: C12_18  and  O4_19 
REMARK    6  A    between atoms: C13_21  and  C14_22 
ROOT
HETATM    1  C2  UNL     1      12.388  16.855  25.309  1.00  0.00     0.106 A 
HETATM    2  C3  UNL     1      12.433  15.719  24.536  1.00  0.00     0.070 A 
HETATM    3  C4  UNL     1      13.488  14.804  24.647  1.00  0.00     0.049 A 
HETATM    4  N1  UNL     1      13.757  13.646  24.021  1.00  0.00    -0.350 N 
ATOM      5  H1  UNL     1      13.185  13.206  23.300  1.00  0.00     0.166 HD
HETATM    6  C5  UNL     1      14.911  13.170  24.514  1.00  0.00     0.109 A 
HETATM    7  C6  UNL     1      15.382  14.046  25.472  1.00  0.00    -0.002 A 
HETATM    8  C7  UNL     1      14.473  15.100  25.566  1.00  0.00     0.036 A 
HETATM    9  C8  UNL     1      14.444  16.237  26.350  1.00  0.00     0.115 A 
HETATM   10  C9  UNL     1      13.394  17.113  26.215  1.00  0.00     0.136 A 
HETATM   11  C11 UNL     1      16.640  13.825  26.224  1.00  0.00     0.069 C 
HETATM   12  C13 UNL     1      17.555  12.989  25.356  1.00  0.00     0.109 C 
HETATM   13  N2  UNL     1      16.882  11.776  24.942  1.00  0.00    -0.349 N 
ATOM     14  H2  UNL     1      17.248  10.851  25.167  1.00  0.00     0.163 HD
HETATM   15  C15 UNL     1      15.674  11.952  24.200  1.00  0.00     0.269 C 
HETATM   16  O5  UNL     1      15.304  11.111  23.340  1.00  0.00    -0.266 OA
ENDROOT
BRANCH  11  17
HETATM   17  C12 UNL     1      16.386  13.052  27.511  1.00  0.00     0.175 C 
BRANCH  17  18
HETATM   18  O4  UNL     1      16.048  13.932  28.532  1.00  0.00    -0.400 OA
ATOM     19  H4  UNL     1      15.103  14.002  28.599  1.00  0.00     0.209 HD
ENDBRANCH  17  18
ENDBRANCH  11  17
BRANCH  12  20
HETATM   20  C14 UNL     1      18.071  13.778  24.175  1.00  0.00     0.140 C 
HETATM   21 CL1  UNL     1      18.548  15.391  24.738  1.00  0.00    -0.128 Cl
ENDBRANCH  12  20
BRANCH   9  22
HETATM   22  O2  UNL     1      15.484  16.457  27.254  1.00  0.00    -0.357 OA
ATOM     23  H2  UNL     1      15.297  16.416  28.184  1.00  0.00     0.217 HD
ENDBRANCH   9  22
BRANCH  10  24
HETATM   24  O3  UNL     1      13.376  18.238  27.000  1.00  0.00    -0.351 OA
HETATM   25  C10 UNL     1      12.554  18.250  28.145  1.00  0.00     0.210 C 
ENDBRANCH  10  24
BRANCH   1  26
HETATM   26  O1  UNL     1      11.354  17.748  25.199  1.00  0.00    -0.353 OA
HETATM   27  C1  UNL     1      10.009  17.424  25.508  1.00  0.00     0.210 C 
ENDBRANCH   1  26
TORSDOF 6
ENDMDL
