MODEL 1
REMARK VINA RESULT: -7.323943922      0.000      0.000
REMARK  8 active torsions:
REMARK  status: ('A' for Active; 'I' for Inactive)
REMARK    1  A    between atoms: C2_2  and  N1_4 
REMARK    2  A    between atoms: N1_4  and  C4_6 
REMARK    3  A    between atoms: C6_10  and  C7_11 
REMARK    4  A    between atoms: C7_11  and  C8_12 
REMARK    5  A    between atoms: C8_12  and  N3_13 
REMARK    6  A    between atoms: N3_13  and  C9_15 
REMARK    7  A    between atoms: C11_22  and  N6_23 
REMARK    8  A    between atoms: N6_23  and  C12_25 
ROOT
HETATM    1  N3  UNL     1      12.405  19.971  27.897  1.00  0.00    -0.225 N 
ATOM      2  H3  UNL     1      12.660  20.927  27.648  1.00  0.00     0.177 HD
ENDROOT
BRANCH   1   3
HETATM    3  C8  UNL     1      11.025  19.620  28.204  1.00  0.00     0.143 C 
BRANCH   3   4
HETATM    4  C7  UNL     1      10.045  20.287  27.314  1.00  0.00     0.068 C 
BRANCH   4   5
HETATM    5  C6  UNL     1       9.444  19.331  26.317  1.00  0.00     0.003 A 
HETATM    6  C5  UNL     1       9.960  18.191  25.768  1.00  0.00     0.105 A 
HETATM    7  N2  UNL     1       9.217  17.526  24.914  1.00  0.00    -0.346 N 
HETATM    8  C4  UNL     1       8.002  17.994  24.630  1.00  0.00     0.145 A 
ATOM      9  H2  UNL     1       9.561  16.670  24.479  1.00  0.00     0.167 HD
HETATM   10  S1  UNL     1       7.893  19.404  25.578  1.00  0.00    -0.057 SA
BRANCH   8  11
HETATM   11  N1  UNL     1       7.106  17.495  23.818  1.00  0.00    -0.367 N 
ATOM     12  H1  UNL     1       6.817  16.529  23.969  1.00  0.00     0.162 HD
BRANCH  11  13
HETATM   13  C2  UNL     1       6.509  18.201  22.745  1.00  0.00     0.075 C 
HETATM   14  C1  UNL     1       5.589  17.303  21.959  1.00  0.00     0.032 C 
HETATM   15  C3  UNL     1       7.486  18.901  21.839  1.00  0.00     0.032 C 
ENDBRANCH  11  13
ENDBRANCH   8  11
ENDBRANCH   4   5
ENDBRANCH   3   4
ENDBRANCH   1   3
BRANCH   1  16
HETATM   16  C9  UNL     1      13.295  19.038  27.948  1.00  0.00     0.695 A 
HETATM   17  N4  UNL     1      14.552  19.244  28.378  1.00  0.00    -0.165 N 
HETATM   18  C10 UNL     1      15.463  18.258  28.424  1.00  0.00     0.208 A 
ATOM     19  H4  UNL     1      14.823  20.180  28.679  1.00  0.00     0.186 HD
HETATM   20 CL1  UNL     1      17.098  18.516  28.981  1.00  0.00    -0.044 Cl
HETATM   21  N5  UNL     1      15.071  17.026  28.017  1.00  0.00    -0.164 N 
HETATM   22  C11 UNL     1      13.827  16.790  27.583  1.00  0.00     0.701 A 
ATOM     23  H5  UNL     1      15.742  16.259  28.041  1.00  0.00     0.186 HD
HETATM   24  N7  UNL     1      12.940  17.794  27.548  1.00  0.00    -0.022 N 
ATOM     25  H7  UNL     1      11.991  17.620  27.218  1.00  0.00     0.203 HD
BRANCH  22  26
HETATM   26  N6  UNL     1      13.467  15.632  27.202  1.00  0.00    -0.167 N 
ATOM     27  H6  UNL     1      13.369  14.904  27.910  1.00  0.00     0.186 HD
BRANCH  26  28
HETATM   28  C12 UNL     1      13.191  15.290  25.851  1.00  0.00     0.368 C 
HETATM   29  O1  UNL     1      12.773  16.101  24.993  1.00  0.00    -0.283 OA
ENDBRANCH  26  28
ENDBRANCH  22  26
ENDBRANCH   1  16
TORSDOF 8
ENDMDL
MODEL 2
REMARK VINA RESULT: -7.288961161      2.025      2.719
REMARK  8 active torsions:
REMARK  status: ('A' for Active; 'I' for Inactive)
REMARK    1  A    between atoms: C2_2  and  N1_4 
REMARK    2  A    between atoms: N1_4  and  C4_6 
REMARK    3  A    between atoms: C6_10  and  C7_11 
REMARK    4  A    between atoms: C7_11  and  C8_12 
REMARK    5  A    between atoms: C8_12  and  N3_13 
REMARK    6  A    between atoms: N3_13  and  C9_15 
REMARK    7  A    between atoms: C11_22  and  N6_23 
REMARK    8  A    between atoms: N6_23  and  C12_25 
ROOT
HETATM    1  N3  UNL     1      12.472  19.893  27.968  1.00  0.00    -0.225 N 
ATOM      2  H3  UNL     1      12.737  20.861  27.785  1.00  0.00     0.177 HD
ENDROOT
BRANCH   1   3
HETATM    3  C8  UNL     1      11.082  19.529  28.203  1.00  0.00     0.143 C 
BRANCH   3   4
HETATM    4  C7  UNL     1      10.139  20.218  27.291  1.00  0.00     0.068 C 
BRANCH   4   5
HETATM    5  C6  UNL     1       9.499  19.266  26.313  1.00  0.00     0.003 A 
HETATM    6  C5  UNL     1       9.975  18.104  25.776  1.00  0.00     0.105 A 
HETATM    7  N2  UNL     1       9.204  17.449  24.940  1.00  0.00    -0.346 N 
HETATM    8  C4  UNL     1       8.002  17.950  24.660  1.00  0.00     0.145 A 
ATOM      9  H2  UNL     1       9.518  16.576  24.514  1.00  0.00     0.167 HD
HETATM   10  S1  UNL     1       7.945  19.376  25.588  1.00  0.00    -0.057 SA
BRANCH   8  11
HETATM   11  N1  UNL     1       7.083  17.467  23.863  1.00  0.00    -0.367 N 
ATOM     12  H1  UNL     1       6.746  16.522  24.049  1.00  0.00     0.162 HD
BRANCH  11  13
HETATM   13  C2  UNL     1       6.525  18.161  22.762  1.00  0.00     0.075 C 
HETATM   14  C1  UNL     1       5.677  17.241  21.922  1.00  0.00     0.032 C 
HETATM   15  C3  UNL     1       7.528  18.898  21.915  1.00  0.00     0.032 C 
ENDBRANCH  11  13
ENDBRANCH   8  11
ENDBRANCH   4   5
ENDBRANCH   3   4
ENDBRANCH   1   3
BRANCH   1  16
HETATM   16  C9  UNL     1      13.359  18.957  27.995  1.00  0.00     0.695 A 
HETATM   17  N4  UNL     1      13.091  17.679  27.672  1.00  0.00    -0.165 N 
HETATM   18  C10 UNL     1      14.030  16.720  27.707  1.00  0.00     0.208 A 
ATOM     19  H4  UNL     1      12.142  17.431  27.390  1.00  0.00     0.186 HD
HETATM   20 CL1  UNL     1      13.691  15.058  27.288  1.00  0.00    -0.044 Cl
HETATM   21  N5  UNL     1      15.279  17.082  28.085  1.00  0.00    -0.164 N 
HETATM   22  C11 UNL     1      15.577  18.345  28.413  1.00  0.00     0.701 A 
ATOM     23  H5  UNL     1      16.012  16.374  28.120  1.00  0.00     0.186 HD
HETATM   24  N7  UNL     1      14.619  19.281  28.369  1.00  0.00    -0.022 N 
ATOM     25  H7  UNL     1      14.840  20.245  28.619  1.00  0.00     0.203 HD
BRANCH  22  26
HETATM   26  N6  UNL     1      16.752  18.679  28.768  1.00  0.00    -0.167 N 
ATOM     27  H6  UNL     1      17.084  19.608  28.510  1.00  0.00     0.186 HD
BRANCH  26  28
HETATM   28  C12 UNL     1      17.631  17.836  29.501  1.00  0.00     0.368 C 
HETATM   29  O1  UNL     1      17.295  17.188  30.519  1.00  0.00    -0.283 OA
ENDBRANCH  26  28
ENDBRANCH  22  26
ENDBRANCH   1  16
TORSDOF 8
ENDMDL
MODEL 3
REMARK VINA RESULT: -7.286560072      4.573      6.797
REMARK  8 active torsions:
REMARK  status: ('A' for Active; 'I' for Inactive)
REMARK    1  A    between atoms: C2_2  and  N1_4 
REMARK    2  A    between atoms: N1_4  and  C4_6 
REMARK    3  A    between atoms: C6_10  and  C7_11 
REMARK    4  A    between atoms: C7_11  and  C8_12 
REMARK    5  A    between atoms: C8_12  and  N3_13 
REMARK    6  A    between atoms: N3_13  and  C9_15 
REMARK    7  A    between atoms: C11_22  and  N6_23 
REMARK    8  A    between atoms: N6_23  and  C12_25 
ROOT
HETATM    1  N3  UNL     1      10.592  18.825  27.886  1.00  0.00    -0.225 N 
ATOM      2  H3  UNL     1      10.419  17.920  28.324  1.00  0.00     0.177 HD
ENDROOT
BRANCH   1   3
HETATM    3  C8  UNL     1      11.440  18.936  26.707  1.00  0.00     0.143 C 
BRANCH   3   4
HETATM    4  C7  UNL     1      12.665  18.107  26.794  1.00  0.00     0.068 C 
BRANCH   4   5
HETATM    5  C6  UNL     1      12.649  16.969  25.806  1.00  0.00     0.003 A 
HETATM    6  C5  UNL     1      11.672  16.569  24.940  1.00  0.00     0.105 A 
HETATM    7  N2  UNL     1      11.915  15.534  24.170  1.00  0.00    -0.346 N 
HETATM    8  C4  UNL     1      13.099  14.930  24.273  1.00  0.00     0.145 A 
ATOM      9  H2  UNL     1      11.214  15.199  23.508  1.00  0.00     0.167 HD
HETATM   10  S1  UNL     1      13.894  15.830  25.478  1.00  0.00    -0.057 SA
BRANCH   8  11
HETATM   11  N1  UNL     1      13.545  13.895  23.609  1.00  0.00    -0.367 N 
ATOM     12  H1  UNL     1      13.444  13.904  22.595  1.00  0.00     0.162 HD
BRANCH  11  13
HETATM   13  C2  UNL     1      14.159  12.763  24.200  1.00  0.00     0.075 C 
HETATM   14  C1  UNL     1      14.624  11.793  23.145  1.00  0.00     0.032 C 
HETATM   15  C3  UNL     1      13.321  12.070  25.241  1.00  0.00     0.032 C 
ENDBRANCH  11  13
ENDBRANCH   8  11
ENDBRANCH   4   5
ENDBRANCH   3   4
ENDBRANCH   1   3
BRANCH   1  16
HETATM   16  C9  UNL     1      10.064  19.903  28.360  1.00  0.00     0.695 A 
HETATM   17  N4  UNL     1      10.317  21.126  27.861  1.00  0.00    -0.165 N 
HETATM   18  C10 UNL     1       9.755  22.236  28.369  1.00  0.00     0.208 A 
ATOM     19  H4  UNL     1      10.955  21.214  27.070  1.00  0.00     0.186 HD
HETATM   20 CL1  UNL     1      10.077  23.828  27.728  1.00  0.00    -0.044 Cl
HETATM   21  N5  UNL     1       8.912  22.084  29.419  1.00  0.00    -0.164 N 
HETATM   22  C11 UNL     1       8.641  20.881  29.937  1.00  0.00     0.701 A 
ATOM     23  H5  UNL     1       8.472  22.910  29.824  1.00  0.00     0.186 HD
HETATM   24  N7  UNL     1       9.216  19.791  29.409  1.00  0.00    -0.022 N 
ATOM     25  H7  UNL     1       9.014  18.871  29.800  1.00  0.00     0.203 HD
BRANCH  22  26
HETATM   26  N6  UNL     1       7.849  20.746  30.922  1.00  0.00    -0.167 N 
ATOM     27  H6  UNL     1       7.974  21.363  31.725  1.00  0.00     0.186 HD
BRANCH  26  28
HETATM   28  C12 UNL     1       6.799  19.790  30.974  1.00  0.00     0.368 C 
HETATM   29  O1  UNL     1       6.550  18.971  30.059  1.00  0.00    -0.283 OA
ENDBRANCH  26  28
ENDBRANCH  22  26
ENDBRANCH   1  16
TORSDOF 8
ENDMDL
MODEL 4
REMARK VINA RESULT: -7.285731678      4.130      7.851
REMARK  8 active torsions:
REMARK  status: ('A' for Active; 'I' for Inactive)
REMARK    1  A    between atoms: C2_2  and  N1_4 
REMARK    2  A    between atoms: N1_4  and  C4_6 
REMARK    3  A    between atoms: C6_10  and  C7_11 
REMARK    4  A    between atoms: C7_11  and  C8_12 
REMARK    5  A    between atoms: C8_12  and  N3_13 
REMARK    6  A    between atoms: N3_13  and  C9_15 
REMARK    7  A    between atoms: C11_22  and  N6_23 
REMARK    8  A    between atoms: N6_23  and  C12_25 
ROOT
HETATM    1  N3  UNL     1       7.488  19.430  23.289  1.00  0.00    -0.225 N 
ATOM      2  H3  UNL     1       7.933  20.330  23.103  1.00  0.00     0.177 HD
ENDROOT
BRANCH   1   3
HETATM    3  C8  UNL     1       7.078  19.062  24.637  1.00  0.00     0.143 C 
BRANCH   3   4
HETATM    4  C7  UNL     1       7.881  19.729  25.690  1.00  0.00     0.068 C 
BRANCH   4   5
HETATM    5  C6  UNL     1       9.261  19.137  25.810  1.00  0.00     0.003 A 
HETATM    6  C5  UNL     1      10.464  19.745  26.031  1.00  0.00     0.105 A 
HETATM    7  N2  UNL     1      11.535  18.989  26.100  1.00  0.00    -0.346 N 
HETATM    8  C4  UNL     1      11.393  17.673  25.952  1.00  0.00     0.145 A 
ATOM      9  H2  UNL     1      12.455  19.400  26.264  1.00  0.00     0.167 HD
HETATM   10  S1  UNL     1       9.719  17.484  25.707  1.00  0.00    -0.057 SA
BRANCH   8  11
HETATM   11  N1  UNL     1      12.315  16.745  25.984  1.00  0.00    -0.367 N 
ATOM     12  H1  UNL     1      12.450  16.242  26.861  1.00  0.00     0.162 HD
BRANCH  11  13
HETATM   13  C2  UNL     1      13.139  16.390  24.888  1.00  0.00     0.075 C 
HETATM   14  C1  UNL     1      12.410  15.469  23.945  1.00  0.00     0.032 C 
HETATM   15  C3  UNL     1      14.478  15.820  25.273  1.00  0.00     0.032 C 
ENDBRANCH  11  13
ENDBRANCH   8  11
ENDBRANCH   4   5
ENDBRANCH   3   4
ENDBRANCH   1   3
BRANCH   1  16
HETATM   16  C9  UNL     1       7.273  18.587  22.336  1.00  0.00     0.695 A 
HETATM   17  N4  UNL     1       7.904  18.641  21.150  1.00  0.00    -0.165 N 
HETATM   18  C10 UNL     1       7.666  17.752  20.171  1.00  0.00     0.208 A 
ATOM     19  H4  UNL     1       8.585  19.383  20.987  1.00  0.00     0.186 HD
HETATM   20 CL1  UNL     1       8.479  17.815  18.627  1.00  0.00    -0.044 Cl
HETATM   21  N5  UNL     1       6.755  16.780  20.419  1.00  0.00    -0.164 N 
HETATM   22  C11 UNL     1       6.111  16.700  21.590  1.00  0.00     0.701 A 
ATOM     23  H5  UNL     1       6.554  16.092  19.695  1.00  0.00     0.186 HD
HETATM   24  N7  UNL     1       6.370  17.602  22.547  1.00  0.00    -0.022 N 
ATOM     25  H7  UNL     1       5.881  17.546  23.441  1.00  0.00     0.203 HD
BRANCH  22  26
HETATM   26  N6  UNL     1       5.257  15.785  21.816  1.00  0.00    -0.167 N 
ATOM     27  H6  UNL     1       5.063  15.117  21.070  1.00  0.00     0.186 HD
BRANCH  26  28
HETATM   28  C12 UNL     1       4.557  15.637  23.043  1.00  0.00     0.368 C 
HETATM   29  O1  UNL     1       3.652  14.792  23.237  1.00  0.00    -0.283 OA
ENDBRANCH  26  28
ENDBRANCH  22  26
ENDBRANCH   1  16
TORSDOF 8
ENDMDL
MODEL 5
REMARK VINA RESULT: -7.269623750      4.482      9.224
REMARK  8 active torsions:
REMARK  status: ('A' for Active; 'I' for Inactive)
REMARK    1  A    between atoms: C2_2  and  N1_4 
REMARK    2  A    between atoms: N1_4  and  C4_6 
REMARK    3  A    between atoms: C6_10  and  C7_11 
REMARK    4  A    between atoms: C7_11  and  C8_12 
REMARK    5  A    between atoms: C8_12  and  N3_13 
REMARK    6  A    between atoms: N3_13  and  C9_15 
REMARK    7  A    between atoms: C11_22  and  N6_23 
REMARK    8  A    between atoms: N6_23  and  C12_25 
ROOT
HETATM    1  N3  UNL     1      13.212  18.585  27.168  1.00  0.00    -0.225 N 
ATOM      2  H3  UNL     1      13.843  19.083  26.540  1.00  0.00     0.177 HD
ENDROOT
BRANCH   1   3
HETATM    3  C8  UNL     1      13.686  17.471  27.978  1.00  0.00     0.143 C 
BRANCH   3   4
HETATM    4  C7  UNL     1      14.841  16.765  27.374  1.00  0.00     0.068 C 
BRANCH   4   5
HETATM    5  C6  UNL     1      16.135  17.098  28.069  1.00  0.00     0.003 A 
HETATM    6  C5  UNL     1      16.494  18.211  28.776  1.00  0.00     0.105 A 
HETATM    7  N2  UNL     1      17.699  18.251  29.296  1.00  0.00    -0.346 N 
HETATM    8  C4  UNL     1      18.506  17.206  29.108  1.00  0.00     0.145 A 
ATOM      9  H2  UNL     1      18.011  19.061  29.831  1.00  0.00     0.167 HD
HETATM   10  S1  UNL     1      17.558  16.140  28.179  1.00  0.00    -0.057 SA
BRANCH   8  11
HETATM   11  N1  UNL     1      19.732  17.038  29.532  1.00  0.00    -0.367 N 
ATOM     12  H1  UNL     1      20.487  17.163  28.859  1.00  0.00     0.162 HD
BRANCH  11  13
HETATM   13  C2  UNL     1      20.084  16.695  30.861  1.00  0.00     0.075 C 
HETATM   14  C1  UNL     1      19.197  15.595  31.384  1.00  0.00     0.032 C 
HETATM   15  C3  UNL     1      20.124  17.859  31.816  1.00  0.00     0.032 C 
ENDBRANCH  11  13
ENDBRANCH   8  11
ENDBRANCH   4   5
ENDBRANCH   3   4
ENDBRANCH   1   3
BRANCH   1  16
HETATM   16  C9  UNL     1      11.971  18.924  27.267  1.00  0.00     0.695 A 
HETATM   17  N4  UNL     1      10.961  18.156  26.822  1.00  0.00    -0.165 N 
HETATM   18  C10 UNL     1       9.675  18.528  26.937  1.00  0.00     0.208 A 
ATOM     19  H4  UNL     1      11.178  17.261  26.383  1.00  0.00     0.186 HD
HETATM   20 CL1  UNL     1       8.357  17.536  26.362  1.00  0.00    -0.044 Cl
HETATM   21  N5  UNL     1       9.420  19.721  27.524  1.00  0.00    -0.164 N 
HETATM   22  C11 UNL     1      10.404  20.508  27.977  1.00  0.00     0.701 A 
ATOM     23  H5  UNL     1       8.453  20.029  27.624  1.00  0.00     0.186 HD
HETATM   24  N7  UNL     1      11.678  20.110  27.849  1.00  0.00    -0.022 N 
ATOM     25  H7  UNL     1      12.431  20.706  28.191  1.00  0.00     0.203 HD
BRANCH  22  26
HETATM   26  N6  UNL     1      10.157  21.628  28.527  1.00  0.00    -0.167 N 
ATOM     27  H6  UNL     1      10.788  22.406  28.332  1.00  0.00     0.186 HD
BRANCH  26  28
HETATM   28  C12 UNL     1       9.058  21.861  29.397  1.00  0.00     0.368 C 
HETATM   29  O1  UNL     1       8.672  21.053  30.273  1.00  0.00    -0.283 OA
ENDBRANCH  26  28
ENDBRANCH  22  26
ENDBRANCH   1  16
TORSDOF 8
ENDMDL
