MODEL 1
REMARK VINA RESULT: -5.761814838      0.000      0.000
REMARK  2 active torsions:
REMARK  status: ('A' for Active; 'I' for Inactive)
REMARK    1  A    between atoms: N1_6  and  O1_8 
REMARK    2  A    between atoms: C8_12  and  C9_13 
ROOT
HETATM    1  C9  UNL     1      19.556  -8.955   6.386  1.00  0.00     0.129 C 
HETATM    2  C10 UNL     1      19.692  -9.625   7.672  1.00  0.00     0.059 C 
HETATM    3  N2  UNL     1      19.774 -10.159   8.695  1.00  0.00    -0.197 NA
ENDROOT
BRANCH   1   4
HETATM    4  C8  UNL     1      20.381  -9.583   5.292  1.00  0.00     0.013 C 
HETATM    5  C6  UNL     1      20.711  -8.721   4.140  1.00  0.00     0.008 C 
HETATM    6  C2  UNL     1      22.199  -8.783   3.958  1.00  0.00    -0.031 C 
HETATM    7  C5  UNL     1      20.143  -9.362   2.929  1.00  0.00     0.019 C 
HETATM    8  C7  UNL     1      20.182  -7.316   4.171  1.00  0.00     0.023 C 
HETATM    9  C1  UNL     1      22.950  -7.576   4.388  1.00  0.00     0.016 C 
HETATM   10  C3  UNL     1      22.403  -9.011   2.480  1.00  0.00     0.016 C 
HETATM   11  C12 UNL     1      22.660  -9.969   4.759  1.00  0.00     0.011 C 
HETATM   12  C4  UNL     1      21.245  -9.962   2.174  1.00  0.00     0.056 C 
HETATM   13  C11 UNL     1      21.666 -10.165   5.846  1.00  0.00     0.007 C 
HETATM   14  N1  UNL     1      18.907  -9.371   2.624  1.00  0.00    -0.277 N 
ATOM     15  H1  UNL     1      18.269  -8.901   3.266  1.00  0.00     0.193 HD
BRANCH  14  16
HETATM   16  O1  UNL     1      18.360  -9.946   1.527  1.00  0.00    -0.290 OA
ATOM     17  H1  UNL     1      18.749  -9.980   0.661  1.00  0.00     0.244 HD
ENDBRANCH  14  16
ENDBRANCH   1   4
TORSDOF 2
ENDMDL
MODEL 2
REMARK VINA RESULT: -5.575222543      2.805      4.721
REMARK  2 active torsions:
REMARK  status: ('A' for Active; 'I' for Inactive)
REMARK    1  A    between atoms: N1_6  and  O1_8 
REMARK    2  A    between atoms: C8_12  and  C9_13 
ROOT
HETATM    1  C9  UNL     1      22.904  -9.661   1.934  1.00  0.00     0.129 C 
HETATM    2  C10 UNL     1      23.714 -10.832   1.627  1.00  0.00     0.059 C 
HETATM    3  N2  UNL     1      24.379 -11.749   1.389  1.00  0.00    -0.197 NA
ENDROOT
BRANCH   1   4
HETATM    4  C8  UNL     1      21.765  -9.951   2.877  1.00  0.00     0.013 C 
HETATM    5  C6  UNL     1      21.724  -9.159   4.123  1.00  0.00     0.008 C 
HETATM    6  C2  UNL     1      20.356  -8.551   4.211  1.00  0.00    -0.031 C 
HETATM    7  C5  UNL     1      21.801 -10.112   5.257  1.00  0.00     0.019 C 
HETATM    8  C7  UNL     1      22.826  -8.159   4.327  1.00  0.00     0.023 C 
HETATM    9  C1  UNL     1      20.280  -7.096   3.921  1.00  0.00     0.016 C 
HETATM   10  C3  UNL     1      19.902  -8.813   5.626  1.00  0.00     0.016 C 
HETATM   11  C12 UNL     1      19.509  -9.301   3.221  1.00  0.00     0.011 C 
HETATM   12  C4  UNL     1      20.467 -10.215   5.854  1.00  0.00     0.056 C 
HETATM   13  C11 UNL     1      20.429  -9.817   2.175  1.00  0.00     0.007 C 
HETATM   14  N1  UNL     1      22.857 -10.719   5.626  1.00  0.00    -0.277 N 
ATOM     15  H1  UNL     1      23.708 -10.531   5.095  1.00  0.00     0.193 HD
BRANCH  14  16
HETATM   16  O1  UNL     1      22.958 -11.592   6.656  1.00  0.00    -0.290 OA
ATOM     17  H1  UNL     1      23.437 -11.451   7.464  1.00  0.00     0.244 HD
ENDBRANCH  14  16
ENDBRANCH   1   4
TORSDOF 2
ENDMDL
MODEL 3
REMARK VINA RESULT: -5.559801232      5.526      7.022
REMARK  2 active torsions:
REMARK  status: ('A' for Active; 'I' for Inactive)
REMARK    1  A    between atoms: N1_6  and  O1_8 
REMARK    2  A    between atoms: C8_12  and  C9_13 
ROOT
HETATM    1  C9  UNL     1      27.529 -13.700   7.865  1.00  0.00     0.129 C 
HETATM    2  C10 UNL     1      26.857 -14.787   8.564  1.00  0.00     0.059 C 
HETATM    3  N2  UNL     1      26.331 -15.640   9.141  1.00  0.00    -0.197 NA
ENDROOT
BRANCH   1   4
HETATM    4  C8  UNL     1      26.655 -13.006   6.853  1.00  0.00     0.013 C 
HETATM    5  C6  UNL     1      25.798 -11.916   7.362  1.00  0.00     0.008 C 
HETATM    6  C2  UNL     1      26.067 -10.713   6.507  1.00  0.00    -0.031 C 
HETATM    7  C5  UNL     1      24.390 -12.289   7.078  1.00  0.00     0.019 C 
HETATM    8  C7  UNL     1      25.876 -11.621   8.832  1.00  0.00     0.023 C 
HETATM    9  C1  UNL     1      26.877  -9.642   7.141  1.00  0.00     0.016 C 
HETATM   10  C3  UNL     1      24.703 -10.174   6.150  1.00  0.00     0.016 C 
HETATM   11  C12 UNL     1      26.783 -11.226   5.289  1.00  0.00     0.011 C 
HETATM   12  C4  UNL     1      23.923 -11.475   5.954  1.00  0.00     0.056 C 
HETATM   13  C11 UNL     1      27.477 -12.475   5.696  1.00  0.00     0.007 C 
HETATM   14  N1  UNL     1      23.729 -13.167   7.720  1.00  0.00    -0.277 N 
ATOM     15  H1  UNL     1      24.211 -13.645   8.482  1.00  0.00     0.193 HD
BRANCH  14  16
HETATM   16  O1  UNL     1      22.445 -13.528   7.485  1.00  0.00    -0.290 OA
ATOM     17  H1  UNL     1      21.710 -13.394   8.073  1.00  0.00     0.244 HD
ENDBRANCH  14  16
ENDBRANCH   1   4
TORSDOF 2
ENDMDL
MODEL 4
REMARK VINA RESULT: -5.482165850      2.942      4.686
REMARK  2 active torsions:
REMARK  status: ('A' for Active; 'I' for Inactive)
REMARK    1  A    between atoms: N1_6  and  O1_8 
REMARK    2  A    between atoms: C8_12  and  C9_13 
ROOT
HETATM    1  C9  UNL     1      23.437 -10.309   1.520  1.00  0.00     0.129 C 
HETATM    2  C10 UNL     1      24.181 -11.508   1.882  1.00  0.00     0.059 C 
HETATM    3  N2  UNL     1      24.792 -12.445   2.176  1.00  0.00    -0.197 NA
ENDROOT
BRANCH   1   4
HETATM    4  C8  UNL     1      22.100 -10.202   2.207  1.00  0.00     0.013 C 
HETATM    5  C6  UNL     1      21.965  -9.138   3.222  1.00  0.00     0.008 C 
HETATM    6  C2  UNL     1      20.748  -8.340   2.860  1.00  0.00    -0.031 C 
HETATM    7  C5  UNL     1      21.633  -9.795   4.510  1.00  0.00     0.019 C 
HETATM    8  C7  UNL     1      23.174  -8.284   3.475  1.00  0.00     0.023 C 
HETATM    9  C1  UNL     1      21.009  -7.000   2.275  1.00  0.00     0.016 C 
HETATM   10  C3  UNL     1      19.981  -8.190   4.152  1.00  0.00     0.016 C 
HETATM   11  C12 UNL     1      19.987  -9.177   1.871  1.00  0.00     0.011 C 
HETATM   12  C4  UNL     1      20.212  -9.563   4.784  1.00  0.00     0.056 C 
HETATM   13  C11 UNL     1      20.981 -10.051   1.196  1.00  0.00     0.007 C 
HETATM   14  N1  UNL     1      22.460 -10.439   5.232  1.00  0.00    -0.277 N 
ATOM     15  H1  UNL     1      23.419 -10.505   4.890  1.00  0.00     0.193 HD
BRANCH  14  16
HETATM   16  O1  UNL     1      22.186 -11.047   6.411  1.00  0.00    -0.290 OA
ATOM     17  H1  UNL     1      21.993 -10.611   7.233  1.00  0.00     0.244 HD
ENDBRANCH  14  16
ENDBRANCH   1   4
TORSDOF 2
ENDMDL
MODEL 5
REMARK VINA RESULT: -5.426633145      2.197      3.101
REMARK  2 active torsions:
REMARK  status: ('A' for Active; 'I' for Inactive)
REMARK    1  A    between atoms: N1_6  and  O1_8 
REMARK    2  A    between atoms: C8_12  and  C9_13 
ROOT
HETATM    1  C9  UNL     1      23.452  -9.994   4.827  1.00  0.00     0.129 C 
HETATM    2  C10 UNL     1      23.560 -11.011   5.864  1.00  0.00     0.059 C 
HETATM    3  N2  UNL     1      23.645 -11.801   6.705  1.00  0.00    -0.197 NA
ENDROOT
BRANCH   1   4
HETATM    4  C8  UNL     1      22.330 -10.246   3.853  1.00  0.00     0.013 C 
HETATM    5  C6  UNL     1      21.323  -9.175   3.719  1.00  0.00     0.008 C 
HETATM    6  C2  UNL     1      21.215  -8.856   2.257  1.00  0.00    -0.031 C 
HETATM    7  C5  UNL     1      20.008  -9.753   4.090  1.00  0.00     0.019 C 
HETATM    8  C7  UNL     1      21.512  -7.954   4.573  1.00  0.00     0.023 C 
HETATM    9  C1  UNL     1      21.841  -7.579   1.829  1.00  0.00     0.016 C 
HETATM   10  C3  UNL     1      19.733  -8.816   1.974  1.00  0.00     0.016 C 
HETATM   11  C12 UNL     1      21.874 -10.000   1.538  1.00  0.00     0.011 C 
HETATM   12  C4  UNL     1      19.240  -9.961   2.860  1.00  0.00     0.056 C 
HETATM   13  C11 UNL     1      22.870 -10.579   2.477  1.00  0.00     0.007 C 
HETATM   14  N1  UNL     1      19.639 -10.011   5.281  1.00  0.00    -0.277 N 
ATOM     15  H1  UNL     1      20.303  -9.803   6.027  1.00  0.00     0.193 HD
BRANCH  14  16
HETATM   16  O1  UNL     1      18.447 -10.537   5.650  1.00  0.00    -0.290 OA
ATOM     17  H1  UNL     1      17.602 -10.329   5.269  1.00  0.00     0.244 HD
ENDBRANCH  14  16
ENDBRANCH   1   4
TORSDOF 2
ENDMDL
