MODEL 1
REMARK VINA RESULT: -5.593078615      0.000      0.000
REMARK  4 active torsions:
REMARK  status: ('A' for Active; 'I' for Inactive)
REMARK    1  A    between atoms: N1_1  and  N2_4 
REMARK    2  A    between atoms: N2_4  and  N3_5 
REMARK    3  A    between atoms: N3_5  and  C1_7 
REMARK    4  A    between atoms: C9_15  and  O1_16 
ROOT
HETATM    1  C1  UNL     1      25.321 -12.196   7.930  1.00  0.00     0.167 C 
HETATM    2  C2  UNL     1      25.017 -12.667   9.320  1.00  0.00     0.064 C 
HETATM    3  C3  UNL     1      26.113 -13.496   9.927  1.00  0.00     0.005 C 
HETATM    4  C4  UNL     1      26.488 -14.695   9.112  1.00  0.00     0.001 C 
HETATM    5  C5  UNL     1      26.226 -14.430   7.629  1.00  0.00     0.009 C 
HETATM    6  C6  UNL     1      26.546 -12.949   7.448  1.00  0.00     0.044 C 
HETATM    7  C7  UNL     1      26.943 -12.607   6.055  1.00  0.00     0.014 C 
HETATM    8  C8  UNL     1      26.850 -11.089   5.905  1.00  0.00     0.061 C 
HETATM    9  C9  UNL     1      26.680 -10.441   7.277  1.00  0.00     0.260 C 
HETATM   10  O2  UNL     1      25.494 -10.833   7.865  1.00  0.00    -0.329 OA
ENDROOT
BRANCH   1  11
HETATM   11  N3  UNL     1      24.203 -12.637   7.083  1.00  0.00    -0.216 N 
ATOM     12  H3  UNL     1      24.047 -13.630   6.912  1.00  0.00     0.200 HD
BRANCH  11  13
HETATM   13  N2  UNL     1      23.447 -11.787   6.577  1.00  0.00    -0.246 NA
BRANCH  13  14
HETATM   14  N1  UNL     1      23.036 -10.824   5.911  1.00  0.00    -0.261 N 
ATOM     15  H12 UNL     1      23.501 -10.109   6.469  1.00  0.00     0.193 HD
ATOM     16  H11 UNL     1      22.557 -10.274   5.197  1.00  0.00     0.193 HD
ENDBRANCH  13  14
ENDBRANCH  11  13
ENDBRANCH   1  11
BRANCH   9  17
HETATM   17  O1  UNL     1      26.575  -9.057   7.027  1.00  0.00    -0.371 OA
ATOM     18  H1  UNL     1      26.309  -8.671   7.853  1.00  0.00     0.212 HD
ENDBRANCH   9  17
TORSDOF 4
ENDMDL
MODEL 2
REMARK VINA RESULT: -5.288505688      2.756      4.186
REMARK  4 active torsions:
REMARK  status: ('A' for Active; 'I' for Inactive)
REMARK    1  A    between atoms: N1_1  and  N2_4 
REMARK    2  A    between atoms: N2_4  and  N3_5 
REMARK    3  A    between atoms: N3_5  and  C1_7 
REMARK    4  A    between atoms: C9_15  and  O1_16 
ROOT
HETATM    1  C1  UNL     1      25.434 -12.829   8.705  1.00  0.00     0.167 C 
HETATM    2  C2  UNL     1      25.881 -11.581   8.005  1.00  0.00     0.064 C 
HETATM    3  C3  UNL     1      26.326 -11.812   6.589  1.00  0.00     0.005 C 
HETATM    4  C4  UNL     1      27.420 -12.825   6.455  1.00  0.00     0.001 C 
HETATM    5  C5  UNL     1      27.336 -13.848   7.589  1.00  0.00     0.009 C 
HETATM    6  C6  UNL     1      25.840 -14.008   7.843  1.00  0.00     0.044 C 
HETATM    7  C7  UNL     1      25.491 -15.327   8.438  1.00  0.00     0.014 C 
HETATM    8  C8  UNL     1      24.074 -15.221   9.000  1.00  0.00     0.061 C 
HETATM    9  C9  UNL     1      23.413 -13.937   8.507  1.00  0.00     0.260 C 
HETATM   10  O2  UNL     1      24.084 -12.824   8.972  1.00  0.00    -0.329 OA
ENDROOT
BRANCH   1  11
HETATM   11  N3  UNL     1      26.227 -12.925   9.940  1.00  0.00    -0.216 N 
ATOM     12  H3  UNL     1      26.808 -13.744  10.115  1.00  0.00     0.200 HD
BRANCH  11  13
HETATM   13  N2  UNL     1      26.181 -11.996  10.769  1.00  0.00    -0.246 NA
BRANCH  13  14
HETATM   14  N1  UNL     1      26.482 -11.234  11.700  1.00  0.00    -0.261 N 
ATOM     15  H12 UNL     1      25.522 -11.005  11.957  1.00  0.00     0.193 HD
ATOM     16  H11 UNL     1      27.028 -10.692  12.370  1.00  0.00     0.193 HD
ENDBRANCH  13  14
ENDBRANCH  11  13
ENDBRANCH   1  11
BRANCH   9  17
HETATM   17  O1  UNL     1      22.134 -13.921   9.101  1.00  0.00    -0.371 OA
ATOM     18  H1  UNL     1      21.650 -14.620   8.679  1.00  0.00     0.212 HD
ENDBRANCH   9  17
TORSDOF 4
ENDMDL
MODEL 3
REMARK VINA RESULT: -5.273123445      6.263      7.600
REMARK  4 active torsions:
REMARK  status: ('A' for Active; 'I' for Inactive)
REMARK    1  A    between atoms: N1_1  and  N2_4 
REMARK    2  A    between atoms: N2_4  and  N3_5 
REMARK    3  A    between atoms: N3_5  and  C1_7 
REMARK    4  A    between atoms: C9_15  and  O1_16 
ROOT
HETATM    1  C1  UNL     1      20.278  -9.284   3.949  1.00  0.00     0.167 C 
HETATM    2  C2  UNL     1      19.363  -9.939   2.959  1.00  0.00     0.064 C 
HETATM    3  C3  UNL     1      19.950 -10.055   1.581  1.00  0.00     0.005 C 
HETATM    4  C4  UNL     1      20.389  -8.747   0.998  1.00  0.00     0.001 C 
HETATM    5  C5  UNL     1      20.796  -7.781   2.111  1.00  0.00     0.009 C 
HETATM    6  C6  UNL     1      21.431  -8.675   3.173  1.00  0.00     0.044 C 
HETATM    7  C7  UNL     1      22.407  -7.951   4.032  1.00  0.00     0.014 C 
HETATM    8  C8  UNL     1      22.666  -8.812   5.267  1.00  0.00     0.061 C 
HETATM    9  C9  UNL     1      22.086 -10.208   5.059  1.00  0.00     0.260 C 
HETATM   10  O2  UNL     1      20.713 -10.158   4.918  1.00  0.00    -0.329 OA
ENDROOT
BRANCH   1  11
HETATM   11  N3  UNL     1      19.531  -8.160   4.533  1.00  0.00    -0.216 N 
ATOM     12  H3  UNL     1      19.343  -7.324   3.979  1.00  0.00     0.200 HD
BRANCH  11  13
HETATM   13  N2  UNL     1      19.129  -8.239   5.709  1.00  0.00    -0.246 NA
BRANCH  13  14
HETATM   14  N1  UNL     1      18.662  -8.690   6.766  1.00  0.00    -0.261 N 
ATOM     15  H12 UNL     1      19.532  -9.115   7.087  1.00  0.00     0.193 HD
ATOM     16  H11 UNL     1      18.010  -8.920   7.516  1.00  0.00     0.193 HD
ENDBRANCH  13  14
ENDBRANCH  11  13
ENDBRANCH   1  11
BRANCH   9  17
HETATM   17  O1  UNL     1      22.348 -10.906   6.256  1.00  0.00    -0.371 OA
ATOM     18  H1  UNL     1      21.877 -10.433   6.933  1.00  0.00     0.212 HD
ENDBRANCH   9  17
TORSDOF 4
ENDMDL
MODEL 4
REMARK VINA RESULT: -5.126082428      1.957      3.922
REMARK  4 active torsions:
REMARK  status: ('A' for Active; 'I' for Inactive)
REMARK    1  A    between atoms: N1_1  and  N2_4 
REMARK    2  A    between atoms: N2_4  and  N3_5 
REMARK    3  A    between atoms: N3_5  and  C1_7 
REMARK    4  A    between atoms: C9_15  and  O1_16 
ROOT
HETATM    1  C1  UNL     1      25.566 -12.888   7.135  1.00  0.00     0.167 C 
HETATM    2  C2  UNL     1      25.939 -12.591   5.713  1.00  0.00     0.064 C 
HETATM    3  C3  UNL     1      27.106 -11.655   5.580  1.00  0.00     0.005 C 
HETATM    4  C4  UNL     1      26.916 -10.346   6.283  1.00  0.00     0.001 C 
HETATM    5  C5  UNL     1      25.988 -10.521   7.486  1.00  0.00     0.009 C 
HETATM    6  C6  UNL     1      26.319 -11.912   8.019  1.00  0.00     0.044 C 
HETATM    7  C7  UNL     1      26.013 -12.066   9.467  1.00  0.00     0.014 C 
HETATM    8  C8  UNL     1      26.006 -13.561   9.783  1.00  0.00     0.061 C 
HETATM    9  C9  UNL     1      26.593 -14.344   8.611  1.00  0.00     0.260 C 
HETATM   10  O2  UNL     1      25.816 -14.196   7.479  1.00  0.00    -0.329 OA
ENDROOT
BRANCH   1  11
HETATM   11  N3  UNL     1      24.140 -12.558   7.272  1.00  0.00    -0.216 N 
ATOM     12  H3  UNL     1      23.805 -11.621   7.050  1.00  0.00     0.200 HD
BRANCH  11  13
HETATM   13  N2  UNL     1      23.345 -13.434   7.663  1.00  0.00    -0.246 NA
BRANCH  13  14
HETATM   14  N1  UNL     1      22.766 -14.263   8.382  1.00  0.00    -0.261 N 
ATOM     15  H12 UNL     1      23.555 -14.420   9.009  1.00  0.00     0.193 HD
ATOM     16  H11 UNL     1      22.050 -14.881   8.764  1.00  0.00     0.193 HD
ENDBRANCH  13  14
ENDBRANCH  11  13
ENDBRANCH   1  11
BRANCH   9  17
HETATM   17  O1  UNL     1      26.512 -15.700   8.988  1.00  0.00    -0.371 OA
ATOM     18  H1  UNL     1      26.084 -16.139   8.262  1.00  0.00     0.212 HD
ENDBRANCH   9  17
TORSDOF 4
ENDMDL
MODEL 5
REMARK VINA RESULT: -4.981310083      2.397      3.876
REMARK  4 active torsions:
REMARK  status: ('A' for Active; 'I' for Inactive)
REMARK    1  A    between atoms: N1_1  and  N2_4 
REMARK    2  A    between atoms: N2_4  and  N3_5 
REMARK    3  A    between atoms: N3_5  and  C1_7 
REMARK    4  A    between atoms: C9_15  and  O1_16 
ROOT
HETATM    1  C1  UNL     1      25.298 -11.775   7.198  1.00  0.00     0.167 C 
HETATM    2  C2  UNL     1      24.978 -10.970   5.974  1.00  0.00     0.064 C 
HETATM    3  C3  UNL     1      25.368 -11.647   4.690  1.00  0.00     0.005 C 
HETATM    4  C4  UNL     1      26.815 -12.026   4.620  1.00  0.00     0.001 C 
HETATM    5  C5  UNL     1      27.360 -12.294   6.023  1.00  0.00     0.009 C 
HETATM    6  C6  UNL     1      26.188 -12.925   6.769  1.00  0.00     0.044 C 
HETATM    7  C7  UNL     1      26.620 -13.794   7.898  1.00  0.00     0.014 C 
HETATM    8  C8  UNL     1      25.402 -14.038   8.788  1.00  0.00     0.061 C 
HETATM    9  C9  UNL     1      24.135 -13.573   8.074  1.00  0.00     0.260 C 
HETATM   10  O2  UNL     1      24.167 -12.211   7.847  1.00  0.00    -0.329 OA
ENDROOT
BRANCH   1  11
HETATM   11  N3  UNL     1      26.118 -10.915   8.063  1.00  0.00    -0.216 N 
ATOM     12  H3  UNL     1      26.461 -11.263   8.958  1.00  0.00     0.200 HD
BRANCH  11  13
HETATM   13  N2  UNL     1      26.390  -9.757   7.693  1.00  0.00    -0.246 NA
BRANCH  13  14
HETATM   14  N1  UNL     1      26.993  -8.686   7.524  1.00  0.00    -0.261 N 
ATOM     15  H12 UNL     1      26.426  -8.147   8.177  1.00  0.00     0.193 HD
ATOM     16  H11 UNL     1      27.660  -7.994   7.181  1.00  0.00     0.193 HD
ENDBRANCH  13  14
ENDBRANCH  11  13
ENDBRANCH   1  11
BRANCH   9  17
HETATM   17  O1  UNL     1      23.083 -13.811   8.983  1.00  0.00    -0.371 OA
ATOM     18  H1  UNL     1      22.823 -14.714   8.837  1.00  0.00     0.212 HD
ENDBRANCH   9  17
TORSDOF 4
ENDMDL
