MODEL 1
REMARK VINA RESULT: -6.093133468      0.000      0.000
REMARK  2 active torsions:
REMARK  status: ('A' for Active; 'I' for Inactive)
REMARK    1  A    between atoms: C2_2  and  N1_5 
REMARK    2  A    between atoms: N1_5  and  N2_7 
ROOT
HETATM    1  N2  UNL     1      24.132 -11.442   6.306  1.00  0.00    -0.287 N 
ATOM      2  H2  UNL     1      23.117 -11.343   6.272  1.00  0.00     0.188 HD
HETATM    3  C5  UNL     1      24.671 -12.279   7.118  1.00  0.00     0.132 C 
HETATM    4  C6  UNL     1      26.129 -12.283   7.024  1.00  0.00     0.085 C 
HETATM    5  C7  UNL     1      26.773 -13.540   7.561  1.00  0.00     0.008 C 
HETATM    6  C8  UNL     1      26.650 -13.697   9.031  1.00  0.00     0.001 C 
HETATM    7  C9  UNL     1      25.816 -14.860   9.473  1.00  0.00     0.002 C 
HETATM    8  C10 UNL     1      24.481 -14.948   8.796  1.00  0.00     0.027 C 
HETATM    9  C11 UNL     1      23.668 -13.677   9.061  1.00  0.00     0.177 C 
HETATM   10  O1  UNL     1      23.694 -12.935   7.848  1.00  0.00    -0.338 OA
ENDROOT
BRANCH   1  11
HETATM   11  N1  UNL     1      24.935 -10.673   5.473  1.00  0.00    -0.326 N 
ATOM     12  H1  UNL     1      25.735 -10.155   5.836  1.00  0.00     0.181 HD
BRANCH  11  13
HETATM   13  C2  UNL     1      24.584 -10.640   4.049  1.00  0.00     0.035 C 
HETATM   14  C1  UNL     1      23.094 -10.443   3.918  1.00  0.00     0.039 C 
HETATM   15  C3  UNL     1      25.359  -9.509   3.434  1.00  0.00     0.039 C 
HETATM   16  C4  UNL     1      24.985 -11.930   3.366  1.00  0.00     0.039 C 
ENDBRANCH  11  13
ENDBRANCH   1  11
TORSDOF 2
ENDMDL
MODEL 2
REMARK VINA RESULT: -6.080117388      0.997      1.589
REMARK  2 active torsions:
REMARK  status: ('A' for Active; 'I' for Inactive)
REMARK    1  A    between atoms: C2_2  and  N1_5 
REMARK    2  A    between atoms: N1_5  and  N2_7 
ROOT
HETATM    1  N2  UNL     1      23.712 -11.718   6.464  1.00  0.00    -0.287 N 
ATOM      2  H2  UNL     1      22.697 -11.817   6.475  1.00  0.00     0.188 HD
HETATM    3  C5  UNL     1      24.445 -12.511   7.160  1.00  0.00     0.132 C 
HETATM    4  C6  UNL     1      25.871 -12.218   7.018  1.00  0.00     0.085 C 
HETATM    5  C7  UNL     1      26.772 -13.372   7.391  1.00  0.00     0.008 C 
HETATM    6  C8  UNL     1      26.761 -13.700   8.838  1.00  0.00     0.001 C 
HETATM    7  C9  UNL     1      26.190 -15.043   9.175  1.00  0.00     0.002 C 
HETATM    8  C10 UNL     1      24.863 -15.322   8.537  1.00  0.00     0.027 C 
HETATM    9  C11 UNL     1      23.837 -14.270   8.968  1.00  0.00     0.177 C 
HETATM   10  O1  UNL     1      23.653 -13.417   7.844  1.00  0.00    -0.338 OA
ENDROOT
BRANCH   1  11
HETATM   11  N1  UNL     1      24.307 -10.724   5.695  1.00  0.00    -0.326 N 
ATOM     12  H1  UNL     1      25.316 -10.571   5.711  1.00  0.00     0.181 HD
BRANCH  11  13
HETATM   13  C2  UNL     1      23.423  -9.905   4.860  1.00  0.00     0.035 C 
HETATM   14  C1  UNL     1      23.365 -10.504   3.476  1.00  0.00     0.039 C 
HETATM   15  C3  UNL     1      22.077  -9.896   5.527  1.00  0.00     0.039 C 
HETATM   16  C4  UNL     1      23.930  -8.482   4.773  1.00  0.00     0.039 C 
ENDBRANCH  11  13
ENDBRANCH   1  11
TORSDOF 2
ENDMDL
MODEL 3
REMARK VINA RESULT: -6.069877468      1.013      1.554
REMARK  2 active torsions:
REMARK  status: ('A' for Active; 'I' for Inactive)
REMARK    1  A    between atoms: C2_2  and  N1_5 
REMARK    2  A    between atoms: N1_5  and  N2_7 
ROOT
HETATM    1  N2  UNL     1      23.714 -11.703   6.461  1.00  0.00    -0.287 N 
ATOM      2  H2  UNL     1      22.699 -11.805   6.471  1.00  0.00     0.188 HD
HETATM    3  C5  UNL     1      24.447 -12.496   7.158  1.00  0.00     0.132 C 
HETATM    4  C6  UNL     1      25.872 -12.200   7.019  1.00  0.00     0.085 C 
HETATM    5  C7  UNL     1      26.775 -13.352   7.391  1.00  0.00     0.008 C 
HETATM    6  C8  UNL     1      26.763 -13.682   8.838  1.00  0.00     0.001 C 
HETATM    7  C9  UNL     1      26.194 -15.027   9.173  1.00  0.00     0.002 C 
HETATM    8  C10 UNL     1      24.869 -15.308   8.531  1.00  0.00     0.027 C 
HETATM    9  C11 UNL     1      23.840 -14.259   8.963  1.00  0.00     0.177 C 
HETATM   10  O1  UNL     1      23.656 -13.405   7.840  1.00  0.00    -0.338 OA
ENDROOT
BRANCH   1  11
HETATM   11  N1  UNL     1      24.308 -10.708   5.695  1.00  0.00    -0.326 N 
ATOM     12  H1  UNL     1      25.320 -10.584   5.676  1.00  0.00     0.181 HD
BRANCH  11  13
HETATM   13  C2  UNL     1      23.416  -9.843   4.915  1.00  0.00     0.035 C 
HETATM   14  C1  UNL     1      24.003  -8.454   4.866  1.00  0.00     0.039 C 
HETATM   15  C3  UNL     1      23.299 -10.455   3.549  1.00  0.00     0.039 C 
HETATM   16  C4  UNL     1      22.038  -9.787   5.541  1.00  0.00     0.039 C 
ENDBRANCH  11  13
ENDBRANCH   1  11
TORSDOF 2
ENDMDL
MODEL 4
REMARK VINA RESULT: -6.062522688      0.096      1.158
REMARK  2 active torsions:
REMARK  status: ('A' for Active; 'I' for Inactive)
REMARK    1  A    between atoms: C2_2  and  N1_5 
REMARK    2  A    between atoms: N1_5  and  N2_7 
ROOT
HETATM    1  N2  UNL     1      24.105 -11.546   6.286  1.00  0.00    -0.287 N 
ATOM      2  H2  UNL     1      23.088 -11.497   6.219  1.00  0.00     0.188 HD
HETATM    3  C5  UNL     1      24.658 -12.366   7.107  1.00  0.00     0.132 C 
HETATM    4  C6  UNL     1      26.117 -12.296   7.063  1.00  0.00     0.085 C 
HETATM    5  C7  UNL     1      26.805 -13.526   7.607  1.00  0.00     0.008 C 
HETATM    6  C8  UNL     1      26.641 -13.709   9.071  1.00  0.00     0.001 C 
HETATM    7  C9  UNL     1      25.851 -14.917   9.470  1.00  0.00     0.002 C 
HETATM    8  C10 UNL     1      24.546 -15.063   8.746  1.00  0.00     0.027 C 
HETATM    9  C11 UNL     1      23.662 -13.837   8.998  1.00  0.00     0.177 C 
HETATM   10  O1  UNL     1      23.691 -13.079   7.795  1.00  0.00    -0.338 OA
ENDROOT
BRANCH   1  11
HETATM   11  N1  UNL     1      24.897 -10.727   5.491  1.00  0.00    -0.326 N 
ATOM     12  H1  UNL     1      25.677 -10.199   5.881  1.00  0.00     0.181 HD
BRANCH  11  13
HETATM   13  C2  UNL     1      24.562 -10.654   4.064  1.00  0.00     0.035 C 
HETATM   14  C1  UNL     1      25.007 -11.929   3.392  1.00  0.00     0.039 C 
HETATM   15  C3  UNL     1      23.075 -10.458   3.974  1.00  0.00     0.039 C 
HETATM   16  C4  UNL     1      25.247  -9.473   3.410  1.00  0.00     0.039 C 
ENDBRANCH  11  13
ENDBRANCH   1  11
TORSDOF 2
ENDMDL
MODEL 5
REMARK VINA RESULT: -6.056308148      0.990      1.134
REMARK  2 active torsions:
REMARK  status: ('A' for Active; 'I' for Inactive)
REMARK    1  A    between atoms: C2_2  and  N1_5 
REMARK    2  A    between atoms: N1_5  and  N2_7 
ROOT
HETATM    1  N2  UNL     1      23.723 -11.711   6.461  1.00  0.00    -0.287 N 
ATOM      2  H2  UNL     1      22.707 -11.809   6.470  1.00  0.00     0.188 HD
HETATM    3  C5  UNL     1      24.453 -12.505   7.159  1.00  0.00     0.132 C 
HETATM    4  C6  UNL     1      25.879 -12.215   7.021  1.00  0.00     0.085 C 
HETATM    5  C7  UNL     1      26.778 -13.370   7.395  1.00  0.00     0.008 C 
HETATM    6  C8  UNL     1      26.763 -13.699   8.842  1.00  0.00     0.001 C 
HETATM    7  C9  UNL     1      26.189 -15.041   9.177  1.00  0.00     0.002 C 
HETATM    8  C10 UNL     1      24.863 -15.318   8.535  1.00  0.00     0.027 C 
HETATM    9  C11 UNL     1      23.837 -14.265   8.964  1.00  0.00     0.177 C 
HETATM   10  O1  UNL     1      23.658 -13.411   7.840  1.00  0.00    -0.338 OA
ENDROOT
BRANCH   1  11
HETATM   11  N1  UNL     1      24.321 -10.718   5.695  1.00  0.00    -0.326 N 
ATOM     12  H1  UNL     1      25.330 -10.571   5.708  1.00  0.00     0.181 HD
BRANCH  11  13
HETATM   13  C2  UNL     1      23.438  -9.891   4.865  1.00  0.00     0.035 C 
HETATM   14  C1  UNL     1      22.077  -9.828   5.513  1.00  0.00     0.039 C 
HETATM   15  C3  UNL     1      24.078  -8.535   4.764  1.00  0.00     0.039 C 
HETATM   16  C4  UNL     1      23.309 -10.471   3.473  1.00  0.00     0.039 C 
ENDBRANCH  11  13
ENDBRANCH   1  11
TORSDOF 2
ENDMDL
