MODEL 1
REMARK VINA RESULT: -5.759637957      0.000      0.000
REMARK  2 active torsions:
REMARK  status: ('A' for Active; 'I' for Inactive)
REMARK    1  A    between atoms: N1_5  and  O2_7 
REMARK    2  A    between atoms: C6_11  and  C7_12 
ROOT
HETATM    1  O1  UNL     1      23.996 -11.221   6.433  1.00  0.00    -0.297 OA
HETATM    2  C1  UNL     1      25.233 -11.236   6.460  1.00  0.00     0.136 C 
HETATM    3  C2  UNL     1      25.908  -9.918   6.556  1.00  0.00     0.133 C 
HETATM    4  C3  UNL     1      27.160 -10.016   5.729  1.00  0.00     0.017 C 
HETATM    5  N1  UNL     1      27.411  -9.096   4.888  1.00  0.00    -0.277 N 
ATOM      6  H1  UNL     1      26.754  -8.321   4.801  1.00  0.00     0.193 HD
HETATM    7  C4  UNL     1      28.010 -11.200   5.972  1.00  0.00     0.056 C 
HETATM    8  C5  UNL     1      27.250 -12.486   5.702  1.00  0.00     0.018 C 
HETATM    9  C6  UNL     1      25.923 -12.531   6.398  1.00  0.00     0.060 C 
ENDROOT
BRANCH   9  10
HETATM   10  C7  UNL     1      26.143 -13.049   7.799  1.00  0.00    -0.003 C 
HETATM   11  C8  UNL     1      27.158 -14.153   7.820  1.00  0.00     0.005 C 
HETATM   12  C9  UNL     1      26.662 -15.211   8.770  1.00  0.00     0.000 C 
HETATM   13  C10 UNL     1      25.544 -14.495   9.536  1.00  0.00     0.000 C 
HETATM   14  C11 UNL     1      24.927 -13.678   8.393  1.00  0.00     0.005 C 
ENDBRANCH   9  10
BRANCH   5  15
HETATM   15  O2  UNL     1      28.519  -9.100   4.098  1.00  0.00    -0.290 OA
ATOM     16  H2  UNL     1      29.090  -8.346   4.007  1.00  0.00     0.244 HD
ENDBRANCH   5  15
TORSDOF 2
ENDMDL
MODEL 2
REMARK VINA RESULT: -5.654738309      2.931      4.995
REMARK  2 active torsions:
REMARK  status: ('A' for Active; 'I' for Inactive)
REMARK    1  A    between atoms: N1_5  and  O2_7 
REMARK    2  A    between atoms: C6_11  and  C7_12 
ROOT
HETATM    1  O1  UNL     1      23.205 -11.859   6.737  1.00  0.00    -0.297 OA
HETATM    2  C1  UNL     1      24.253 -12.485   6.938  1.00  0.00     0.136 C 
HETATM    3  C2  UNL     1      24.108 -13.899   7.363  1.00  0.00     0.133 C 
HETATM    4  C3  UNL     1      25.217 -14.169   8.341  1.00  0.00     0.017 C 
HETATM    5  N1  UNL     1      24.932 -14.728   9.448  1.00  0.00    -0.277 N 
ATOM      6  H1  UNL     1      23.961 -14.974   9.635  1.00  0.00     0.193 HD
HETATM    7  C4  UNL     1      26.571 -13.754   7.922  1.00  0.00     0.056 C 
HETATM    8  C5  UNL     1      26.629 -12.260   7.655  1.00  0.00     0.018 C 
HETATM    9  C6  UNL     1      25.535 -11.794   6.742  1.00  0.00     0.060 C 
ENDROOT
BRANCH   9  10
HETATM   10  C7  UNL     1      25.996 -11.986   5.317  1.00  0.00    -0.003 C 
HETATM   11  C8  UNL     1      27.446 -11.640   5.162  1.00  0.00     0.005 C 
HETATM   12  C9  UNL     1      27.600 -10.886   3.866  1.00  0.00     0.000 C 
HETATM   13  C10 UNL     1      26.269 -11.148   3.151  1.00  0.00     0.000 C 
HETATM   14  C11 UNL     1      25.312 -11.080   4.349  1.00  0.00     0.005 C 
ENDBRANCH   9  10
BRANCH   5  15
HETATM   15  O2  UNL     1      25.869 -15.012  10.393  1.00  0.00    -0.290 OA
ATOM     16  H2  UNL     1      26.652 -14.489  10.516  1.00  0.00     0.244 HD
ENDBRANCH   5  15
TORSDOF 2
ENDMDL
MODEL 3
REMARK VINA RESULT: -5.593330262      1.729      2.815
REMARK  2 active torsions:
REMARK  status: ('A' for Active; 'I' for Inactive)
REMARK    1  A    between atoms: N1_5  and  O2_7 
REMARK    2  A    between atoms: C6_11  and  C7_12 
ROOT
HETATM    1  O1  UNL     1      28.223 -11.990   5.766  1.00  0.00    -0.297 OA
HETATM    2  C1  UNL     1      26.987 -12.014   5.738  1.00  0.00     0.136 C 
HETATM    3  C2  UNL     1      26.354 -11.972   4.397  1.00  0.00     0.133 C 
HETATM    4  C3  UNL     1      25.099 -11.157   4.540  1.00  0.00     0.017 C 
HETATM    5  N1  UNL     1      24.877 -10.224   3.703  1.00  0.00    -0.277 N 
ATOM      6  H1  UNL     1      25.559 -10.060   2.963  1.00  0.00     0.193 HD
HETATM    7  C4  UNL     1      24.212 -11.517   5.664  1.00  0.00     0.056 C 
HETATM    8  C5  UNL     1      24.930 -11.383   6.995  1.00  0.00     0.018 C 
HETATM    9  C6  UNL     1      26.255 -12.083   7.010  1.00  0.00     0.060 C 
ENDROOT
BRANCH   9  10
HETATM   10  C7  UNL     1      26.019 -13.530   7.375  1.00  0.00    -0.003 C 
HETATM   11  C8  UNL     1      24.900 -13.668   8.363  1.00  0.00     0.005 C 
HETATM   12  C9  UNL     1      25.310 -14.705   9.376  1.00  0.00     0.000 C 
HETATM   13  C10 UNL     1      26.513 -15.383   8.712  1.00  0.00     0.000 C 
HETATM   14  C11 UNL     1      27.180 -14.161   8.067  1.00  0.00     0.005 C 
ENDBRANCH   9  10
BRANCH   5  15
HETATM   15  O2  UNL     1      23.769  -9.436   3.753  1.00  0.00    -0.290 OA
ATOM     16  H2  UNL     1      23.804  -8.511   3.968  1.00  0.00     0.244 HD
ENDBRANCH   5  15
TORSDOF 2
ENDMDL
MODEL 4
REMARK VINA RESULT: -5.470095708      2.982      4.859
REMARK  2 active torsions:
REMARK  status: ('A' for Active; 'I' for Inactive)
REMARK    1  A    between atoms: N1_5  and  O2_7 
REMARK    2  A    between atoms: C6_11  and  C7_12 
ROOT
HETATM    1  O1  UNL     1      22.838 -11.298   6.390  1.00  0.00    -0.297 OA
HETATM    2  C1  UNL     1      23.927 -11.868   6.526  1.00  0.00     0.136 C 
HETATM    3  C2  UNL     1      23.940 -13.072   7.393  1.00  0.00     0.133 C 
HETATM    4  C3  UNL     1      25.256 -13.063   8.120  1.00  0.00     0.017 C 
HETATM    5  N1  UNL     1      25.259 -13.237   9.380  1.00  0.00    -0.277 N 
ATOM      6  H1  UNL     1      24.368 -13.376   9.856  1.00  0.00     0.193 HD
HETATM    7  C4  UNL     1      26.458 -12.849   7.289  1.00  0.00     0.056 C 
HETATM    8  C5  UNL     1      26.394 -11.517   6.563  1.00  0.00     0.018 C 
HETATM    9  C6  UNL     1      25.100 -11.320   5.832  1.00  0.00     0.060 C 
ENDROOT
BRANCH   9  10
HETATM   10  C7  UNL     1      25.224 -11.965   4.472  1.00  0.00    -0.003 C 
HETATM   11  C8  UNL     1      26.552 -11.664   3.844  1.00  0.00     0.005 C 
HETATM   12  C9  UNL     1      26.313 -11.379   2.384  1.00  0.00     0.000 C 
HETATM   13  C10 UNL     1      24.884 -11.886   2.160  1.00  0.00     0.000 C 
HETATM   14  C11 UNL     1      24.239 -11.443   3.480  1.00  0.00     0.005 C 
ENDBRANCH   9  10
BRANCH   5  15
HETATM   15  O2  UNL     1      26.400 -13.246  10.121  1.00  0.00    -0.290 OA
ATOM     16  H2  UNL     1      27.096 -13.879   9.989  1.00  0.00     0.244 HD
ENDBRANCH   5  15
TORSDOF 2
ENDMDL
MODEL 5
REMARK VINA RESULT: -5.425274567      1.618      1.939
REMARK  2 active torsions:
REMARK  status: ('A' for Active; 'I' for Inactive)
REMARK    1  A    between atoms: N1_5  and  O2_7 
REMARK    2  A    between atoms: C6_11  and  C7_12 
ROOT
HETATM    1  O1  UNL     1      26.497  -9.575   7.853  1.00  0.00    -0.297 OA
HETATM    2  C1  UNL     1      26.486 -10.424   6.953  1.00  0.00     0.136 C 
HETATM    3  C2  UNL     1      27.533 -10.294   5.910  1.00  0.00     0.133 C 
HETATM    4  C3  UNL     1      26.899 -10.709   4.611  1.00  0.00     0.017 C 
HETATM    5  N1  UNL     1      27.037  -9.955   3.595  1.00  0.00    -0.277 N 
ATOM      6  H1  UNL     1      27.574  -9.094   3.696  1.00  0.00     0.193 HD
HETATM    7  C4  UNL     1      26.155 -11.984   4.628  1.00  0.00     0.056 C 
HETATM    8  C5  UNL     1      25.017 -11.943   5.633  1.00  0.00     0.018 C 
HETATM    9  C6  UNL     1      25.459 -11.473   6.986  1.00  0.00     0.060 C 
ENDROOT
BRANCH   9  10
HETATM   10  C7  UNL     1      25.985 -12.665   7.751  1.00  0.00    -0.003 C 
HETATM   11  C8  UNL     1      25.218 -13.909   7.416  1.00  0.00     0.005 C 
HETATM   12  C9  UNL     1      25.000 -14.670   8.698  1.00  0.00     0.000 C 
HETATM   13  C10 UNL     1      25.976 -13.998   9.671  1.00  0.00     0.000 C 
HETATM   14  C11 UNL     1      25.822 -12.537   9.228  1.00  0.00     0.005 C 
ENDBRANCH   9  10
BRANCH   5  15
HETATM   15  O2  UNL     1      26.500 -10.249   2.380  1.00  0.00    -0.290 OA
ATOM     16  H2  UNL     1      26.595  -9.681   1.624  1.00  0.00     0.244 HD
ENDBRANCH   5  15
TORSDOF 2
ENDMDL
