MODEL 1
REMARK VINA RESULT: -5.372784648      0.000      0.000
REMARK  1 active torsions:
REMARK  status: ('A' for Active; 'I' for Inactive)
REMARK    1  A    between atoms: N1_2  and  C1_4 
ROOT
HETATM    1  C1  UNL     1      20.127  -9.547   5.659  1.00  0.00     0.155 C 
HETATM    2  C2  UNL     1      21.556  -9.101   5.756  1.00  0.00     0.032 C 
HETATM    3  C3  UNL     1      22.549 -10.196   5.550  1.00  0.00     0.002 C 
HETATM    4  C4  UNL     1      23.545  -9.870   4.448  1.00  0.00     0.000 C 
HETATM    5  C5  UNL     1      23.559 -10.903   3.360  1.00  0.00     0.000 C 
HETATM    6  C6  UNL     1      23.578 -10.291   1.979  1.00  0.00     0.000 C 
HETATM    7  C7  UNL     1      22.255 -10.333   1.290  1.00  0.00     0.000 C 
HETATM    8  C8  UNL     1      21.418  -9.103   1.488  1.00  0.00     0.000 C 
HETATM    9  C9  UNL     1      20.018  -9.502   1.888  1.00  0.00     0.000 C 
HETATM   10  C10 UNL     1      19.655  -8.994   3.260  1.00  0.00     0.002 C 
HETATM   11  C11 UNL     1      19.756 -10.071   4.300  1.00  0.00     0.032 C 
ENDROOT
BRANCH   1  12
HETATM   12  N1  UNL     1      19.798 -10.543   6.634  1.00  0.00    -0.151 N 
HETATM   13  O1  UNL     1      19.410 -11.667   6.291  1.00  0.00    -0.536 OA
HETATM   14  O2  UNL     1      19.910 -10.265   7.966  1.00  0.00    -0.536 OA
ENDBRANCH   1  12
TORSDOF 1
ENDMDL
MODEL 2
REMARK VINA RESULT: -4.907931583      1.897      2.066
REMARK  1 active torsions:
REMARK  status: ('A' for Active; 'I' for Inactive)
REMARK    1  A    between atoms: N1_2  and  C1_4 
ROOT
HETATM    1  C1  UNL     1      20.047  -9.331   5.011  1.00  0.00     0.155 C 
HETATM    2  C2  UNL     1      20.490  -7.920   4.767  1.00  0.00     0.032 C 
HETATM    3  C3  UNL     1      21.938  -7.787   4.432  1.00  0.00     0.002 C 
HETATM    4  C4  UNL     1      22.161  -7.048   3.122  1.00  0.00     0.000 C 
HETATM    5  C5  UNL     1      22.951  -7.853   2.132  1.00  0.00     0.000 C 
HETATM    6  C6  UNL     1      22.369  -7.794   0.739  1.00  0.00     0.000 C 
HETATM    7  C7  UNL     1      21.615  -9.023   0.355  1.00  0.00     0.000 C 
HETATM    8  C8  UNL     1      20.142  -8.956   0.639  1.00  0.00     0.000 C 
HETATM    9  C9  UNL     1      19.708 -10.211   1.358  1.00  0.00     0.000 C 
HETATM   10  C10 UNL     1      19.173  -9.917   2.735  1.00  0.00     0.002 C 
HETATM   11  C11 UNL     1      20.183 -10.217   3.804  1.00  0.00     0.032 C 
ENDROOT
BRANCH   1  12
HETATM   12  N1  UNL     1      20.744  -9.943   6.102  1.00  0.00    -0.151 N 
HETATM   13  O1  UNL     1      21.569 -10.843   5.906  1.00  0.00    -0.536 OA
HETATM   14  O2  UNL     1      20.506  -9.536   7.384  1.00  0.00    -0.536 OA
ENDBRANCH   1  12
TORSDOF 1
ENDMDL
MODEL 3
REMARK VINA RESULT: -4.817497851      2.200      3.879
REMARK  1 active torsions:
REMARK  status: ('A' for Active; 'I' for Inactive)
REMARK    1  A    between atoms: N1_2  and  C1_4 
ROOT
HETATM    1  C1  UNL     1      21.433 -10.110   5.203  1.00  0.00     0.155 C 
HETATM    2  C2  UNL     1      20.797  -9.736   3.897  1.00  0.00     0.032 C 
HETATM    3  C3  UNL     1      19.942  -8.514   3.966  1.00  0.00     0.002 C 
HETATM    4  C4  UNL     1      20.355  -7.465   2.945  1.00  0.00     0.000 C 
HETATM    5  C5  UNL     1      20.690  -6.146   3.577  1.00  0.00     0.000 C 
HETATM    6  C6  UNL     1      21.950  -5.534   3.012  1.00  0.00     0.000 C 
HETATM    7  C7  UNL     1      23.136  -5.677   3.906  1.00  0.00     0.000 C 
HETATM    8  C8  UNL     1      23.972  -6.893   3.631  1.00  0.00     0.000 C 
HETATM    9  C9  UNL     1      24.252  -7.618   4.926  1.00  0.00     0.000 C 
HETATM   10  C10 UNL     1      23.668  -9.007   4.935  1.00  0.00     0.002 C 
HETATM   11  C11 UNL     1      22.391  -9.072   5.719  1.00  0.00     0.032 C 
ENDROOT
BRANCH   1  12
HETATM   12  N1  UNL     1      20.467 -10.382   6.224  1.00  0.00    -0.151 N 
HETATM   13  O1  UNL     1      20.498  -9.784   7.307  1.00  0.00    -0.536 OA
HETATM   14  O2  UNL     1      19.488 -11.312   6.015  1.00  0.00    -0.536 OA
ENDBRANCH   1  12
TORSDOF 1
ENDMDL
MODEL 4
REMARK VINA RESULT: -4.745833938      7.539      9.110
REMARK  1 active torsions:
REMARK  status: ('A' for Active; 'I' for Inactive)
REMARK    1  A    between atoms: N1_2  and  C1_4 
ROOT
HETATM    1  C1  UNL     1      27.862  -7.233   7.048  1.00  0.00     0.155 C 
HETATM    2  C2  UNL     1      29.132  -6.438   6.987  1.00  0.00     0.032 C 
HETATM    3  C3  UNL     1      30.132  -6.811   8.030  1.00  0.00     0.002 C 
HETATM    4  C4  UNL     1      31.481  -7.174   7.430  1.00  0.00     0.000 C 
HETATM    5  C5  UNL     1      31.933  -8.552   7.817  1.00  0.00     0.000 C 
HETATM    6  C6  UNL     1      32.494  -9.328   6.648  1.00  0.00     0.000 C 
HETATM    7  C7  UNL     1      31.553 -10.351   6.105  1.00  0.00     0.000 C 
HETATM    8  C8  UNL     1      30.699  -9.862   4.972  1.00  0.00     0.000 C 
HETATM    9  C9  UNL     1      29.257 -10.230   5.229  1.00  0.00     0.000 C 
HETATM   10  C10 UNL     1      28.377  -9.014   5.360  1.00  0.00     0.002 C 
HETATM   11  C11 UNL     1      28.063  -8.701   6.793  1.00  0.00     0.032 C 
ENDROOT
BRANCH   1  12
HETATM   12  N1  UNL     1      27.179  -7.080   8.297  1.00  0.00    -0.151 N 
HETATM   13  O1  UNL     1      26.965  -8.053   9.030  1.00  0.00    -0.536 OA
HETATM   14  O2  UNL     1      26.753  -5.846   8.700  1.00  0.00    -0.536 OA
ENDBRANCH   1  12
TORSDOF 1
ENDMDL
MODEL 5
REMARK VINA RESULT: -4.708118235      4.106      5.908
REMARK  1 active torsions:
REMARK  status: ('A' for Active; 'I' for Inactive)
REMARK    1  A    between atoms: N1_2  and  C1_4 
ROOT
HETATM    1  C1  UNL     1      25.596 -12.748   7.222  1.00  0.00     0.155 C 
HETATM    2  C2  UNL     1      24.543 -12.668   6.157  1.00  0.00     0.032 C 
HETATM    3  C3  UNL     1      23.881 -11.334   6.057  1.00  0.00     0.002 C 
HETATM    4  C4  UNL     1      23.958 -10.758   4.652  1.00  0.00     0.000 C 
HETATM    5  C5  UNL     1      24.613  -9.408   4.617  1.00  0.00     0.000 C 
HETATM    6  C6  UNL     1      25.608  -9.275   3.489  1.00  0.00     0.000 C 
HETATM    7  C7  UNL     1      27.029  -9.380   3.931  1.00  0.00     0.000 C 
HETATM    8  C8  UNL     1      27.596 -10.768   3.855  1.00  0.00     0.000 C 
HETATM    9  C9  UNL     1      28.289 -11.104   5.154  1.00  0.00     0.000 C 
HETATM   10  C10 UNL     1      27.642 -12.270   5.854  1.00  0.00     0.002 C 
HETATM   11  C11 UNL     1      26.759 -11.826   6.983  1.00  0.00     0.032 C 
ENDROOT
BRANCH   1  12
HETATM   12  N1  UNL     1      25.073 -12.488   8.529  1.00  0.00    -0.151 N 
HETATM   13  O1  UNL     1      25.693 -11.784   9.335  1.00  0.00    -0.536 OA
HETATM   14  O2  UNL     1      23.871 -13.017   8.906  1.00  0.00    -0.536 OA
ENDBRANCH   1  12
TORSDOF 1
ENDMDL
