MODEL 1
REMARK VINA RESULT: -5.211702070      0.000      0.000
REMARK  3 active torsions:
REMARK  status: ('A' for Active; 'I' for Inactive)
REMARK       I    between atoms: C2_2  and  N1_4 
REMARK    1  A    between atoms: N1_4  and  C3_6 
REMARK    2  A    between atoms: C3_6  and  S2_8 
REMARK    3  A    between atoms: S2_8  and  C4_9 
ROOT
HETATM    1  C3  UNL     1      25.265 -11.030   5.511  1.00  0.00     0.141 C 
HETATM    2  S1  UNL     1      25.807 -11.873   4.239  1.00  0.00    -0.052 SA
ENDROOT
BRANCH   1   3
HETATM    3  N1  UNL     1      24.221 -10.082   5.342  1.00  0.00    -0.313 N 
HETATM    4  C2  UNL     1      22.911 -10.348   5.781  1.00  0.00     0.219 C 
HETATM    5  C1  UNL     1      21.840  -9.308   5.577  1.00  0.00     0.117 C 
HETATM    6  O1  UNL     1      22.637 -11.434   6.333  1.00  0.00    -0.274 OA
ATOM      7  H1  UNL     1      24.426  -9.189   4.893  1.00  0.00     0.170 HD
ENDBRANCH   1   3
BRANCH   1   8
HETATM    8  S2  UNL     1      25.986 -11.300   7.118  1.00  0.00    -0.096 SA
BRANCH   8   9
HETATM    9  C4  UNL     1      25.732 -13.002   7.603  1.00  0.00     0.054 C 
HETATM   10  C5  UNL     1      27.066 -13.735   7.716  1.00  0.00     0.015 C 
HETATM   11  C6  UNL     1      26.632 -14.933   8.570  1.00  0.00     0.001 C 
HETATM   12  C7  UNL     1      25.943 -14.200   9.702  1.00  0.00     0.001 C 
HETATM   13  C8  UNL     1      25.126 -13.152   8.979  1.00  0.00     0.015 C 
ENDBRANCH   8   9
ENDBRANCH   1   8
TORSDOF 3
ENDMDL
MODEL 2
REMARK VINA RESULT: -5.209441207      1.179      1.739
REMARK  3 active torsions:
REMARK  status: ('A' for Active; 'I' for Inactive)
REMARK       I    between atoms: C2_2  and  N1_4 
REMARK    1  A    between atoms: N1_4  and  C3_6 
REMARK    2  A    between atoms: C3_6  and  S2_8 
REMARK    3  A    between atoms: S2_8  and  C4_9 
ROOT
HETATM    1  C3  UNL     1      25.836 -10.745   6.036  1.00  0.00     0.141 C 
HETATM    2  S1  UNL     1      26.508  -9.667   7.040  1.00  0.00    -0.052 SA
ENDROOT
BRANCH   1   3
HETATM    3  N1  UNL     1      24.810 -10.340   5.141  1.00  0.00    -0.313 N 
HETATM    4  C2  UNL     1      23.460 -10.654   5.384  1.00  0.00     0.219 C 
HETATM    5  C1  UNL     1      22.410 -10.201   4.403  1.00  0.00     0.117 C 
HETATM    6  O1  UNL     1      23.134 -11.301   6.402  1.00  0.00    -0.274 OA
ATOM      7  H1  UNL     1      25.058  -9.811   4.305  1.00  0.00     0.170 HD
ENDBRANCH   1   3
BRANCH   1   8
HETATM    8  S2  UNL     1      26.392 -12.438   6.064  1.00  0.00    -0.096 SA
BRANCH   8   9
HETATM    9  C4  UNL     1      25.950 -13.182   7.628  1.00  0.00     0.054 C 
HETATM   10  C5  UNL     1      24.792 -14.161   7.451  1.00  0.00     0.015 C 
HETATM   11  C6  UNL     1      24.938 -14.970   8.746  1.00  0.00     0.001 C 
HETATM   12  C7  UNL     1      26.406 -15.332   8.654  1.00  0.00     0.001 C 
HETATM   13  C8  UNL     1      27.049 -14.033   8.222  1.00  0.00     0.015 C 
ENDBRANCH   8   9
ENDBRANCH   1   8
TORSDOF 3
ENDMDL
MODEL 3
REMARK VINA RESULT: -5.078635184      2.041      2.574
REMARK  3 active torsions:
REMARK  status: ('A' for Active; 'I' for Inactive)
REMARK       I    between atoms: C2_2  and  N1_4 
REMARK    1  A    between atoms: N1_4  and  C3_6 
REMARK    2  A    between atoms: C3_6  and  S2_8 
REMARK    3  A    between atoms: S2_8  and  C4_9 
ROOT
HETATM    1  C3  UNL     1      25.535 -11.501   5.985  1.00  0.00     0.141 C 
HETATM    2  S1  UNL     1      26.333 -10.224   6.579  1.00  0.00    -0.052 SA
ENDROOT
BRANCH   1   3
HETATM    3  N1  UNL     1      25.689 -11.864   4.621  1.00  0.00    -0.313 N 
HETATM    4  C2  UNL     1      24.657 -11.659   3.687  1.00  0.00     0.219 C 
HETATM    5  C1  UNL     1      24.870 -12.062   2.251  1.00  0.00     0.117 C 
HETATM    6  O1  UNL     1      23.574 -11.148   4.043  1.00  0.00    -0.274 OA
ATOM      7  H1  UNL     1      26.567 -12.283   4.311  1.00  0.00     0.170 HD
ENDBRANCH   1   3
BRANCH   1   8
HETATM    8  S2  UNL     1      24.464 -12.444   7.053  1.00  0.00    -0.096 SA
BRANCH   8   9
HETATM    9  C4  UNL     1      25.427 -13.152   8.383  1.00  0.00     0.054 C 
HETATM   10  C5  UNL     1      24.634 -14.238   9.103  1.00  0.00     0.015 C 
HETATM   11  C6  UNL     1      25.781 -14.971   9.810  1.00  0.00     0.001 C 
HETATM   12  C7  UNL     1      26.700 -15.202   8.628  1.00  0.00     0.001 C 
HETATM   13  C8  UNL     1      26.669 -13.871   7.910  1.00  0.00     0.015 C 
ENDBRANCH   8   9
ENDBRANCH   1   8
TORSDOF 3
ENDMDL
MODEL 4
REMARK VINA RESULT: -4.975482857      2.880      3.643
REMARK  3 active torsions:
REMARK  status: ('A' for Active; 'I' for Inactive)
REMARK       I    between atoms: C2_2  and  N1_4 
REMARK    1  A    between atoms: N1_4  and  C3_6 
REMARK    2  A    between atoms: C3_6  and  S2_8 
REMARK    3  A    between atoms: S2_8  and  C4_9 
ROOT
HETATM    1  C3  UNL     1      26.670 -11.616   5.707  1.00  0.00     0.141 C 
HETATM    2  S1  UNL     1      25.788 -11.666   4.349  1.00  0.00    -0.052 SA
ENDROOT
BRANCH   1   3
HETATM    3  N1  UNL     1      28.082 -11.482   5.633  1.00  0.00    -0.313 N 
HETATM    4  C2  UNL     1      28.699 -10.217   5.641  1.00  0.00     0.219 C 
HETATM    5  C1  UNL     1      30.201 -10.129   5.561  1.00  0.00     0.117 C 
HETATM    6  O1  UNL     1      28.010  -9.178   5.714  1.00  0.00    -0.274 OA
ATOM      7  H1  UNL     1      28.660 -12.320   5.573  1.00  0.00     0.170 HD
ENDBRANCH   1   3
BRANCH   1   8
HETATM    8  S2  UNL     1      25.856 -11.733   7.288  1.00  0.00    -0.096 SA
BRANCH   8   9
HETATM    9  C4  UNL     1      25.650 -13.454   7.723  1.00  0.00     0.054 C 
HETATM   10  C5  UNL     1      27.006 -14.127   7.917  1.00  0.00     0.015 C 
HETATM   11  C6  UNL     1      26.569 -15.362   8.717  1.00  0.00     0.001 C 
HETATM   12  C7  UNL     1      25.768 -14.686   9.810  1.00  0.00     0.001 C 
HETATM   13  C8  UNL     1      24.956 -13.661   9.050  1.00  0.00     0.015 C 
ENDBRANCH   8   9
ENDBRANCH   1   8
TORSDOF 3
ENDMDL
MODEL 5
REMARK VINA RESULT: -4.925035294      1.876      1.902
REMARK  3 active torsions:
REMARK  status: ('A' for Active; 'I' for Inactive)
REMARK       I    between atoms: C2_2  and  N1_4 
REMARK    1  A    between atoms: N1_4  and  C3_6 
REMARK    2  A    between atoms: C3_6  and  S2_8 
REMARK    3  A    between atoms: S2_8  and  C4_9 
ROOT
HETATM    1  C3  UNL     1      26.176 -10.972   5.801  1.00  0.00     0.141 C 
HETATM    2  S1  UNL     1      27.701 -11.015   5.258  1.00  0.00    -0.052 SA
ENDROOT
BRANCH   1   3
HETATM    3  N1  UNL     1      25.150 -10.407   4.997  1.00  0.00    -0.313 N 
HETATM    4  C2  UNL     1      24.489 -11.166   4.013  1.00  0.00     0.219 C 
HETATM    5  C1  UNL     1      23.408 -10.519   3.186  1.00  0.00     0.117 C 
HETATM    6  O1  UNL     1      24.794 -12.362   3.826  1.00  0.00    -0.274 OA
ATOM      7  H1  UNL     1      24.888  -9.431   5.135  1.00  0.00     0.170 HD
ENDBRANCH   1   3
BRANCH   1   8
HETATM    8  S2  UNL     1      25.796 -11.637   7.410  1.00  0.00    -0.096 SA
BRANCH   8   9
HETATM    9  C4  UNL     1      26.061 -13.404   7.399  1.00  0.00     0.054 C 
HETATM   10  C5  UNL     1      26.858 -13.837   8.628  1.00  0.00     0.015 C 
HETATM   11  C6  UNL     1      26.531 -15.336   8.632  1.00  0.00     0.001 C 
HETATM   12  C7  UNL     1      25.020 -15.267   8.554  1.00  0.00     0.001 C 
HETATM   13  C8  UNL     1      24.784 -14.206   7.502  1.00  0.00     0.015 C 
ENDBRANCH   8   9
ENDBRANCH   1   8
TORSDOF 3
ENDMDL
