MODEL 1
REMARK VINA RESULT: -5.916360913      0.000      0.000
REMARK  1 active torsions:
REMARK  status: ('A' for Active; 'I' for Inactive)
REMARK    1  A    between atoms: C2_3  and  N2_4 
ROOT
HETATM    1  N1  UNL     1      22.734 -11.345   6.402  1.00  0.00    -0.105 NA
HETATM    2  C1  UNL     1      22.217 -10.294   5.554  1.00  0.00     0.053 C 
HETATM    3  C2  UNL     1      20.950  -9.900   5.690  1.00  0.00     0.100 C 
HETATM    4  C3  UNL     1      20.289  -8.855   4.908  1.00  0.00     0.065 C 
HETATM    5  C4  UNL     1      19.777  -9.321   3.569  1.00  0.00     0.006 C 
HETATM    6  C5  UNL     1      20.251  -8.425   2.447  1.00  0.00     0.000 C 
HETATM    7  C6  UNL     1      20.585  -9.177   1.194  1.00  0.00     0.000 C 
HETATM    8  C7  UNL     1      21.680 -10.172   1.352  1.00  0.00     0.000 C 
HETATM    9  C8  UNL     1      22.909  -9.647   2.026  1.00  0.00     0.000 C 
HETATM   10  C9  UNL     1      23.160 -10.482   3.257  1.00  0.00     0.006 C 
HETATM   11  C10 UNL     1      23.094  -9.656   4.534  1.00  0.00     0.056 C 
ENDROOT
BRANCH   3  12
HETATM   12  N2  UNL     1      20.192 -10.588   6.708  1.00  0.00    -0.118 N 
HETATM   13  O1  UNL     1      19.656 -11.676   6.519  1.00  0.00    -0.532 OA
HETATM   14  O2  UNL     1      20.113  -9.926   7.927  1.00  0.00    -0.532 OA
ENDBRANCH   3  12
TORSDOF 1
ENDMDL
MODEL 2
REMARK VINA RESULT: -5.459056599      5.528      7.515
REMARK  1 active torsions:
REMARK  status: ('A' for Active; 'I' for Inactive)
REMARK    1  A    between atoms: C2_3  and  N2_4 
ROOT
HETATM    1  N1  UNL     1      23.840 -11.480   4.869  1.00  0.00    -0.105 NA
HETATM    2  C1  UNL     1      24.764 -11.799   5.935  1.00  0.00     0.053 C 
HETATM    3  C2  UNL     1      26.075 -11.801   5.694  1.00  0.00     0.100 C 
HETATM    4  C3  UNL     1      27.125 -12.103   6.667  1.00  0.00     0.065 C 
HETATM    5  C4  UNL     1      27.374 -13.578   6.863  1.00  0.00     0.006 C 
HETATM    6  C5  UNL     1      27.338 -13.960   8.325  1.00  0.00     0.000 C 
HETATM    7  C6  UNL     1      26.703 -15.296   8.568  1.00  0.00     0.000 C 
HETATM    8  C7  UNL     1      25.283 -15.386   8.133  1.00  0.00     0.000 C 
HETATM    9  C8  UNL     1      24.412 -14.265   8.608  1.00  0.00     0.000 C 
HETATM   10  C9  UNL     1      23.825 -13.584   7.397  1.00  0.00     0.006 C 
HETATM   11  C10 UNL     1      24.252 -12.126   7.295  1.00  0.00     0.056 C 
ENDROOT
BRANCH   3  12
HETATM   12  N2  UNL     1      26.458 -11.471   4.342  1.00  0.00    -0.118 N 
HETATM   13  O1  UNL     1      26.450 -12.292   3.428  1.00  0.00    -0.532 OA
HETATM   14  O2  UNL     1      26.837 -10.150   4.146  1.00  0.00    -0.532 OA
ENDBRANCH   3  12
TORSDOF 1
ENDMDL
MODEL 3
REMARK VINA RESULT: -5.120211316      3.776      5.594
REMARK  1 active torsions:
REMARK  status: ('A' for Active; 'I' for Inactive)
REMARK    1  A    between atoms: C2_3  and  N2_4 
ROOT
HETATM    1  N1  UNL     1      22.540 -11.057   6.337  1.00  0.00    -0.105 NA
HETATM    2  C1  UNL     1      23.867 -11.337   5.833  1.00  0.00     0.053 C 
HETATM    3  C2  UNL     1      24.637 -12.226   6.459  1.00  0.00     0.100 C 
HETATM    4  C3  UNL     1      25.994 -12.611   6.069  1.00  0.00     0.065 C 
HETATM    5  C4  UNL     1      27.063 -11.664   6.552  1.00  0.00     0.006 C 
HETATM    6  C5  UNL     1      27.969 -11.224   5.424  1.00  0.00     0.000 C 
HETATM    7  C6  UNL     1      28.387  -9.789   5.531  1.00  0.00     0.000 C 
HETATM    8  C7  UNL     1      27.259  -8.819   5.491  1.00  0.00     0.000 C 
HETATM    9  C8  UNL     1      26.292  -9.032   4.367  1.00  0.00     0.000 C 
HETATM   10  C9  UNL     1      24.925  -9.257   4.963  1.00  0.00     0.006 C 
HETATM   11  C10 UNL     1      24.369 -10.633   4.621  1.00  0.00     0.056 C 
ENDROOT
BRANCH   3  12
HETATM   12  N2  UNL     1      24.049 -12.847   7.623  1.00  0.00    -0.118 N 
HETATM   13  O1  UNL     1      23.133 -13.662   7.552  1.00  0.00    -0.532 OA
HETATM   14  O2  UNL     1      24.598 -12.455   8.836  1.00  0.00    -0.532 OA
ENDBRANCH   3  12
TORSDOF 1
ENDMDL
MODEL 4
REMARK VINA RESULT: -4.969880247      5.511      7.288
REMARK  1 active torsions:
REMARK  status: ('A' for Active; 'I' for Inactive)
REMARK    1  A    between atoms: C2_3  and  N2_4 
ROOT
HETATM    1  N1  UNL     1      28.457 -11.220   5.946  1.00  0.00    -0.105 NA
HETATM    2  C1  UNL     1      27.304 -12.086   6.063  1.00  0.00     0.053 C 
HETATM    3  C2  UNL     1      26.084 -11.594   5.846  1.00  0.00     0.100 C 
HETATM    4  C3  UNL     1      24.830 -12.344   5.927  1.00  0.00     0.065 C 
HETATM    5  C4  UNL     1      24.291 -12.488   7.327  1.00  0.00     0.006 C 
HETATM    6  C5  UNL     1      23.978 -13.930   7.659  1.00  0.00     0.000 C 
HETATM    7  C6  UNL     1      24.308 -14.293   9.075  1.00  0.00     0.000 C 
HETATM    8  C7  UNL     1      25.746 -14.143   9.425  1.00  0.00     0.000 C 
HETATM    9  C8  UNL     1      26.695 -14.778   8.456  1.00  0.00     0.000 C 
HETATM   10  C9  UNL     1      27.614 -13.704   7.930  1.00  0.00     0.006 C 
HETATM   11  C10 UNL     1      27.480 -13.519   6.425  1.00  0.00     0.056 C 
ENDROOT
BRANCH   3  12
HETATM   12  N2  UNL     1      26.032 -10.193   5.502  1.00  0.00    -0.118 N 
HETATM   13  O1  UNL     1      25.963  -9.302   6.345  1.00  0.00    -0.532 OA
HETATM   14  O2  UNL     1      26.068  -9.921   4.141  1.00  0.00    -0.532 OA
ENDBRANCH   3  12
TORSDOF 1
ENDMDL
MODEL 5
REMARK VINA RESULT: -4.936219832      1.641      1.919
REMARK  1 active torsions:
REMARK  status: ('A' for Active; 'I' for Inactive)
REMARK    1  A    between atoms: C2_3  and  N2_4 
ROOT
HETATM    1  N1  UNL     1      23.290  -8.459   5.291  1.00  0.00    -0.105 NA
HETATM    2  C1  UNL     1      22.059  -8.446   4.532  1.00  0.00     0.053 C 
HETATM    3  C2  UNL     1      21.050  -9.236   4.899  1.00  0.00     0.100 C 
HETATM    4  C3  UNL     1      19.750  -9.332   4.233  1.00  0.00     0.065 C 
HETATM    5  C4  UNL     1      19.743 -10.240   3.029  1.00  0.00     0.006 C 
HETATM    6  C5  UNL     1      19.159  -9.553   1.816  1.00  0.00     0.000 C 
HETATM    7  C6  UNL     1      19.860  -9.915   0.541  1.00  0.00     0.000 C 
HETATM    8  C7  UNL     1      21.301  -9.547   0.510  1.00  0.00     0.000 C 
HETATM    9  C8  UNL     1      21.596  -8.138   0.922  1.00  0.00     0.000 C 
HETATM   10  C9  UNL     1      22.534  -8.182   2.102  1.00  0.00     0.006 C 
HETATM   11  C10 UNL     1      21.920  -7.556   3.347  1.00  0.00     0.056 C 
ENDROOT
BRANCH   3  12
HETATM   12  N2  UNL     1      21.295 -10.057   6.061  1.00  0.00    -0.118 N 
HETATM   13  O1  UNL     1      22.013 -11.052   6.034  1.00  0.00    -0.532 OA
HETATM   14  O2  UNL     1      20.657  -9.636   7.221  1.00  0.00    -0.532 OA
ENDBRANCH   3  12
TORSDOF 1
ENDMDL
