MODEL 1
REMARK VINA RESULT: -6.333215529      0.000      0.000
REMARK  6 active torsions:
REMARK  status: ('A' for Active; 'I' for Inactive)
REMARK    1  A    between atoms: C5_6  and  N1_7 
REMARK    2  A    between atoms: N1_7  and  C6_8 
REMARK    3  A    between atoms: C11_13  and  C12_14 
REMARK    4  A    between atoms: C12_14  and  N2_15 
REMARK    5  A    between atoms: N2_15  and  C13_18 
REMARK    6  A    between atoms: C18_23  and  C19_24 
ROOT
HETATM    1  N2  UNL     1      25.278  61.838   7.830  1.00  0.00    -0.070 N 
ATOM      2  H21 UNL     1      24.318  62.067   8.088  1.00  0.00     0.277 HD
ATOM      3  H22 UNL     1      25.115  61.528   6.873  1.00  0.00     0.277 HD
ENDROOT
BRANCH   1   4
HETATM    4  C12 UNL     1      25.795  60.787   8.636  1.00  0.00     0.240 C 
BRANCH   4   5
HETATM    5  C11 UNL     1      26.704  59.812   7.965  1.00  0.00     0.047 C 
HETATM    6  C6  UNL     1      26.563  59.662   6.482  1.00  0.00     0.169 C 
HETATM    7  C7  UNL     1      26.023  58.286   6.101  1.00  0.00     0.040 C 
HETATM    8  C8  UNL     1      25.198  57.624   7.128  1.00  0.00     0.003 C 
HETATM    9  C9  UNL     1      25.791  57.547   8.506  1.00  0.00     0.001 C 
HETATM   10  C10 UNL     1      26.893  58.521   8.724  1.00  0.00     0.009 C 
BRANCH   6  11
HETATM   11  N1  UNL     1      27.688  59.902   5.751  1.00  0.00    -0.443 NA
BRANCH  11  12
HETATM   12  C5  UNL     1      28.759  59.907   5.254  1.00  0.00     0.123 C 
HETATM   13  C1  UNL     1      30.040  59.478   5.899  1.00  0.00     0.185 C 
HETATM   14  O1  UNL     1      30.118  59.244   7.143  1.00  0.00    -0.290 OA
HETATM   15  C2  UNL     1      31.109  59.384   4.886  1.00  0.00     0.086 C 
HETATM   16  C3  UNL     1      30.368  59.381   3.582  1.00  0.00     0.015 C 
HETATM   17  C4  UNL     1      29.194  60.314   3.862  1.00  0.00     0.076 C 
ENDBRANCH  11  12
ENDBRANCH   6  11
ENDBRANCH   4   5
ENDBRANCH   1   4
BRANCH   1  18
HETATM   18  C13 UNL     1      26.121  62.997   7.869  1.00  0.00     0.194 C 
HETATM   19  C14 UNL     1      25.227  64.147   8.375  1.00  0.00     0.034 C 
HETATM   20  C15 UNL     1      26.117  65.297   8.725  1.00  0.00     0.002 C 
HETATM   21  C16 UNL     1      26.781  65.790   7.454  1.00  0.00     0.001 C 
HETATM   22  C17 UNL     1      26.491  64.883   6.278  1.00  0.00     0.011 C 
HETATM   23  C18 UNL     1      26.809  63.422   6.645  1.00  0.00     0.049 C 
BRANCH  23  24
HETATM   24  C19 UNL     1      28.301  63.252   6.663  1.00  0.00    -0.050 A 
HETATM   25  C20 UNL     1      28.914  62.808   7.817  1.00  0.00     0.009 A 
HETATM   26  C21 UNL     1      30.290  62.630   7.922  1.00  0.00     0.026 A 
HETATM   27  C22 UNL     1      31.100  62.903   6.839  1.00  0.00     0.055 A 
HETATM   28 CL1  UNL     1      32.816  62.680   6.971  1.00  0.00    -0.083 Cl
HETATM   29  C23 UNL     1      30.482  63.347   5.690  1.00  0.00     0.056 A 
HETATM   30 CL2  UNL     1      31.498  63.711   4.289  1.00  0.00    -0.083 Cl
HETATM   31  C24 UNL     1      29.116  63.518   5.603  1.00  0.00     0.033 A 
ENDBRANCH  23  24
ENDBRANCH   1  18
TORSDOF 6
ENDMDL
MODEL 2
REMARK VINA RESULT: -6.328882081      5.200      7.585
REMARK  6 active torsions:
REMARK  status: ('A' for Active; 'I' for Inactive)
REMARK    1  A    between atoms: C5_6  and  N1_7 
REMARK    2  A    between atoms: N1_7  and  C6_8 
REMARK    3  A    between atoms: C11_13  and  C12_14 
REMARK    4  A    between atoms: C12_14  and  N2_15 
REMARK    5  A    between atoms: N2_15  and  C13_18 
REMARK    6  A    between atoms: C18_23  and  C19_24 
ROOT
HETATM    1  N2  UNL     1      28.925  58.385   2.048  1.00  0.00    -0.070 N 
ATOM      2  H21 UNL     1      29.498  58.458   1.207  1.00  0.00     0.277 HD
ATOM      3  H22 UNL     1      29.188  57.443   2.337  1.00  0.00     0.277 HD
ENDROOT
BRANCH   1   4
HETATM    4  C12 UNL     1      27.539  58.468   1.742  1.00  0.00     0.240 C 
BRANCH   4   5
HETATM    5  C11 UNL     1      27.181  58.954   0.377  1.00  0.00     0.047 C 
HETATM    6  C6  UNL     1      28.313  59.244  -0.559  1.00  0.00     0.169 C 
HETATM    7  C7  UNL     1      28.425  60.734  -0.868  1.00  0.00     0.040 C 
HETATM    8  C8  UNL     1      27.901  61.637   0.174  1.00  0.00     0.003 C 
HETATM    9  C9  UNL     1      26.510  61.347   0.663  1.00  0.00     0.001 C 
HETATM   10  C10 UNL     1      26.059  59.964   0.357  1.00  0.00     0.009 C 
BRANCH   6  11
HETATM   11  N1  UNL     1      28.299  58.559  -1.737  1.00  0.00    -0.443 NA
BRANCH  11  12
HETATM   12  C5  UNL     1      28.514  57.866  -2.669  1.00  0.00     0.123 C 
HETATM   13  C1  UNL     1      27.621  57.665  -3.853  1.00  0.00     0.185 C 
HETATM   14  O1  UNL     1      26.426  58.089  -3.869  1.00  0.00    -0.290 OA
HETATM   15  C2  UNL     1      28.344  56.938  -4.914  1.00  0.00     0.086 C 
HETATM   16  C3  UNL     1      29.784  57.052  -4.509  1.00  0.00     0.015 C 
HETATM   17  C4  UNL     1      29.709  56.991  -2.987  1.00  0.00     0.076 C 
ENDBRANCH  11  12
ENDBRANCH   6  11
ENDBRANCH   4   5
ENDBRANCH   1   4
BRANCH   1  18
HETATM   18  C13 UNL     1      29.308  59.360   3.028  1.00  0.00     0.194 C 
HETATM   19  C14 UNL     1      30.508  60.113   2.420  1.00  0.00     0.034 C 
HETATM   20  C15 UNL     1      30.753  61.330   3.254  1.00  0.00     0.002 C 
HETATM   21  C16 UNL     1      31.178  60.882   4.639  1.00  0.00     0.001 C 
HETATM   22  C17 UNL     1      31.056  59.383   4.808  1.00  0.00     0.011 C 
HETATM   23  C18 UNL     1      29.654  58.914   4.382  1.00  0.00     0.049 C 
BRANCH  23  24
HETATM   24  C19 UNL     1      28.676  59.314   5.450  1.00  0.00    -0.050 A 
HETATM   25  C20 UNL     1      29.028  59.160   6.775  1.00  0.00     0.009 A 
HETATM   26  C21 UNL     1      28.181  59.497   7.827  1.00  0.00     0.026 A 
HETATM   27  C22 UNL     1      26.928  60.011   7.559  1.00  0.00     0.055 A 
HETATM   28 CL1  UNL     1      25.873  60.433   8.871  1.00  0.00    -0.083 Cl
HETATM   29  C23 UNL     1      26.583  60.161   6.234  1.00  0.00     0.056 A 
HETATM   30 CL2  UNL     1      24.981  60.811   5.862  1.00  0.00    -0.083 Cl
HETATM   31  C24 UNL     1      27.435  59.822   5.204  1.00  0.00     0.033 A 
ENDBRANCH  23  24
ENDBRANCH   1  18
TORSDOF 6
ENDMDL
MODEL 3
REMARK VINA RESULT: -6.276825250      5.187      7.532
REMARK  6 active torsions:
REMARK  status: ('A' for Active; 'I' for Inactive)
REMARK    1  A    between atoms: C5_6  and  N1_7 
REMARK    2  A    between atoms: N1_7  and  C6_8 
REMARK    3  A    between atoms: C11_13  and  C12_14 
REMARK    4  A    between atoms: C12_14  and  N2_15 
REMARK    5  A    between atoms: N2_15  and  C13_18 
REMARK    6  A    between atoms: C18_23  and  C19_24 
ROOT
HETATM    1  N2  UNL     1      28.953  60.269   2.039  1.00  0.00    -0.070 N 
ATOM      2  H21 UNL     1      28.652  61.196   1.737  1.00  0.00     0.277 HD
ATOM      3  H22 UNL     1      29.672  60.100   1.336  1.00  0.00     0.277 HD
ENDROOT
BRANCH   1   4
HETATM    4  C12 UNL     1      27.898  59.322   1.942  1.00  0.00     0.240 C 
BRANCH   4   5
HETATM    5  C11 UNL     1      27.187  59.240   0.632  1.00  0.00     0.047 C 
HETATM    6  C6  UNL     1      27.966  59.625  -0.587  1.00  0.00     0.169 C 
HETATM    7  C7  UNL     1      27.429  60.905  -1.221  1.00  0.00     0.040 C 
HETATM    8  C8  UNL     1      26.739  61.826  -0.298  1.00  0.00     0.003 C 
HETATM    9  C9  UNL     1      25.664  61.222   0.559  1.00  0.00     0.001 C 
HETATM   10  C10 UNL     1      25.765  59.743   0.668  1.00  0.00     0.009 C 
BRANCH   6  11
HETATM   11  N1  UNL     1      28.063  58.671  -1.556  1.00  0.00    -0.443 NA
BRANCH  11  12
HETATM   12  C5  UNL     1      28.397  57.925  -2.408  1.00  0.00     0.123 C 
HETATM   13  C1  UNL     1      27.685  57.674  -3.700  1.00  0.00     0.185 C 
HETATM   14  O1  UNL     1      26.517  58.115  -3.917  1.00  0.00    -0.290 OA
HETATM   15  C2  UNL     1      28.540  56.879  -4.602  1.00  0.00     0.086 C 
HETATM   16  C3  UNL     1      29.906  56.991  -3.993  1.00  0.00     0.015 C 
HETATM   17  C4  UNL     1      29.604  57.015  -2.498  1.00  0.00     0.076 C 
ENDBRANCH  11  12
ENDBRANCH   6  11
ENDBRANCH   4   5
ENDBRANCH   1   4
BRANCH   1  18
HETATM   18  C13 UNL     1      29.510  60.305   3.360  1.00  0.00     0.194 C 
HETATM   19  C14 UNL     1      31.040  60.342   3.167  1.00  0.00     0.034 C 
HETATM   20  C15 UNL     1      31.657  60.687   4.484  1.00  0.00     0.002 C 
HETATM   21  C16 UNL     1      31.370  59.559   5.457  1.00  0.00     0.001 C 
HETATM   22  C17 UNL     1      30.419  58.539   4.870  1.00  0.00     0.011 C 
HETATM   23  C18 UNL     1      29.169  59.240   4.309  1.00  0.00     0.049 C 
BRANCH  23  24
HETATM   24  C19 UNL     1      28.309  59.670   5.464  1.00  0.00    -0.050 A 
HETATM   25  C20 UNL     1      28.124  61.016   5.700  1.00  0.00     0.009 A 
HETATM   26  C21 UNL     1      27.351  61.501   6.751  1.00  0.00     0.026 A 
HETATM   27  C22 UNL     1      26.731  60.616   7.609  1.00  0.00     0.055 A 
HETATM   28 CL1  UNL     1      25.766  61.221   8.919  1.00  0.00    -0.083 Cl
HETATM   29  C23 UNL     1      26.921  59.273   7.368  1.00  0.00     0.056 A 
HETATM   30 CL2  UNL     1      26.143  58.117   8.458  1.00  0.00    -0.083 Cl
HETATM   31  C24 UNL     1      27.691  58.810   6.322  1.00  0.00     0.033 A 
ENDBRANCH  23  24
ENDBRANCH   1  18
TORSDOF 6
ENDMDL
MODEL 4
REMARK VINA RESULT: -6.217607503      2.279      5.404
REMARK  6 active torsions:
REMARK  status: ('A' for Active; 'I' for Inactive)
REMARK    1  A    between atoms: C5_6  and  N1_7 
REMARK    2  A    between atoms: N1_7  and  C6_8 
REMARK    3  A    between atoms: C11_13  and  C12_14 
REMARK    4  A    between atoms: C12_14  and  N2_15 
REMARK    5  A    between atoms: N2_15  and  C13_18 
REMARK    6  A    between atoms: C18_23  and  C19_24 
ROOT
HETATM    1  N2  UNL     1      25.772  61.022   4.155  1.00  0.00    -0.070 N 
ATOM      2  H21 UNL     1      25.921  61.921   4.612  1.00  0.00     0.277 HD
ATOM      3  H22 UNL     1      24.932  61.251   3.624  1.00  0.00     0.277 HD
ENDROOT
BRANCH   1   4
HETATM    4  C12 UNL     1      25.523  59.992   5.103  1.00  0.00     0.240 C 
BRANCH   4   5
HETATM    5  C11 UNL     1      25.725  60.339   6.540  1.00  0.00     0.047 C 
HETATM    6  C6  UNL     1      26.925  61.169   6.876  1.00  0.00     0.169 C 
HETATM    7  C7  UNL     1      27.947  60.383   7.692  1.00  0.00     0.040 C 
HETATM    8  C8  UNL     1      27.923  58.921   7.496  1.00  0.00     0.003 C 
HETATM    9  C9  UNL     1      26.583  58.256   7.629  1.00  0.00     0.001 C 
HETATM   10  C10 UNL     1      25.445  59.203   7.495  1.00  0.00     0.009 C 
BRANCH   6  11
HETATM   11  N1  UNL     1      26.673  62.345   7.517  1.00  0.00    -0.443 NA
BRANCH  11  12
HETATM   12  C5  UNL     1      26.554  63.471   7.853  1.00  0.00     0.123 C 
HETATM   13  C1  UNL     1      25.440  64.398   7.478  1.00  0.00     0.185 C 
HETATM   14  O1  UNL     1      24.597  64.102   6.579  1.00  0.00    -0.290 OA
HETATM   15  C2  UNL     1      25.506  65.624   8.296  1.00  0.00     0.086 C 
HETATM   16  C3  UNL     1      26.426  65.255   9.422  1.00  0.00     0.015 C 
HETATM   17  C4  UNL     1      27.429  64.327   8.744  1.00  0.00     0.076 C 
ENDBRANCH  11  12
ENDBRANCH   6  11
ENDBRANCH   4   5
ENDBRANCH   1   4
BRANCH   1  18
HETATM   18  C13 UNL     1      26.865  60.689   3.288  1.00  0.00     0.194 C 
HETATM   19  C14 UNL     1      26.249  60.529   1.883  1.00  0.00     0.034 C 
HETATM   20  C15 UNL     1      27.371  60.485   0.896  1.00  0.00     0.002 C 
HETATM   21  C16 UNL     1      28.188  59.233   1.156  1.00  0.00     0.001 C 
HETATM   22  C17 UNL     1      27.741  58.522   2.414  1.00  0.00     0.011 C 
HETATM   23  C18 UNL     1      27.685  59.511   3.592  1.00  0.00     0.049 C 
BRANCH  23  24
HETATM   24  C19 UNL     1      29.092  59.812   4.024  1.00  0.00    -0.050 A 
HETATM   25  C20 UNL     1      29.886  58.787   4.494  1.00  0.00     0.009 A 
HETATM   26  C21 UNL     1      31.196  58.979   4.921  1.00  0.00     0.026 A 
HETATM   27  C22 UNL     1      31.750  60.242   4.883  1.00  0.00     0.055 A 
HETATM   28 CL1  UNL     1      33.385  60.480   5.415  1.00  0.00    -0.083 Cl
HETATM   29  C23 UNL     1      30.952  61.262   4.413  1.00  0.00     0.056 A 
HETATM   30 CL2  UNL     1      31.635  62.892   4.360  1.00  0.00    -0.083 Cl
HETATM   31  C24 UNL     1      29.655  61.054   3.993  1.00  0.00     0.033 A 
ENDBRANCH  23  24
ENDBRANCH   1  18
TORSDOF 6
ENDMDL
MODEL 5
REMARK VINA RESULT: -6.193296986      5.325      7.698
REMARK  6 active torsions:
REMARK  status: ('A' for Active; 'I' for Inactive)
REMARK    1  A    between atoms: C5_6  and  N1_7 
REMARK    2  A    between atoms: N1_7  and  C6_8 
REMARK    3  A    between atoms: C11_13  and  C12_14 
REMARK    4  A    between atoms: C12_14  and  N2_15 
REMARK    5  A    between atoms: N2_15  and  C13_18 
REMARK    6  A    between atoms: C18_23  and  C19_24 
ROOT
HETATM    1  N2  UNL     1      30.665  59.595   1.943  1.00  0.00    -0.070 N 
ATOM      2  H21 UNL     1      31.628  59.723   1.633  1.00  0.00     0.277 HD
ATOM      3  H22 UNL     1      30.626  58.576   1.917  1.00  0.00     0.277 HD
ENDROOT
BRANCH   1   4
HETATM    4  C12 UNL     1      29.742  60.174   1.029  1.00  0.00     0.240 C 
BRANCH   4   5
HETATM    5  C11 UNL     1      28.857  59.233   0.281  1.00  0.00     0.047 C 
HETATM    6  C6  UNL     1      28.278  59.727  -1.008  1.00  0.00     0.169 C 
HETATM    7  C7  UNL     1      26.764  59.903  -0.918  1.00  0.00     0.040 C 
HETATM    8  C8  UNL     1      26.238  60.167   0.434  1.00  0.00     0.003 C 
HETATM    9  C9  UNL     1      26.681  59.222   1.514  1.00  0.00     0.001 C 
HETATM   10  C10 UNL     1      27.904  58.456   1.155  1.00  0.00     0.009 C 
BRANCH   6  11
HETATM   11  N1  UNL     1      28.560  58.979  -2.111  1.00  0.00    -0.443 NA
BRANCH  11  12
HETATM   12  C5  UNL     1      28.724  58.130  -2.916  1.00  0.00     0.123 C 
HETATM   13  C1  UNL     1      27.728  57.665  -3.933  1.00  0.00     0.185 C 
HETATM   14  O1  UNL     1      26.513  58.023  -3.892  1.00  0.00    -0.290 OA
HETATM   15  C2  UNL     1      28.385  56.783  -4.916  1.00  0.00     0.086 C 
HETATM   16  C3  UNL     1      29.848  57.038  -4.706  1.00  0.00     0.015 C 
HETATM   17  C4  UNL     1      29.935  57.267  -3.201  1.00  0.00     0.076 C 
ENDBRANCH  11  12
ENDBRANCH   6  11
ENDBRANCH   4   5
ENDBRANCH   1   4
BRANCH   1  18
HETATM   18  C13 UNL     1      30.473  60.093   3.273  1.00  0.00     0.194 C 
HETATM   19  C14 UNL     1      31.872  60.509   3.770  1.00  0.00     0.034 C 
HETATM   20  C15 UNL     1      31.694  61.311   5.019  1.00  0.00     0.002 C 
HETATM   21  C16 UNL     1      31.105  60.407   6.086  1.00  0.00     0.001 C 
HETATM   22  C17 UNL     1      30.720  59.055   5.529  1.00  0.00     0.011 C 
HETATM   23  C18 UNL     1      29.842  59.228   4.276  1.00  0.00     0.049 C 
BRANCH  23  24
HETATM   24  C19 UNL     1      28.472  59.660   4.715  1.00  0.00    -0.050 A 
HETATM   25  C20 UNL     1      27.987  60.884   4.303  1.00  0.00     0.009 A 
HETATM   26  C21 UNL     1      26.733  61.364   4.669  1.00  0.00     0.026 A 
HETATM   27  C22 UNL     1      25.918  60.600   5.479  1.00  0.00     0.055 A 
HETATM   28 CL1  UNL     1      24.354  61.199   5.934  1.00  0.00    -0.083 Cl
HETATM   29  C23 UNL     1      26.408  59.379   5.888  1.00  0.00     0.056 A 
HETATM   30 CL2  UNL     1      25.386  58.383   6.933  1.00  0.00    -0.083 Cl
HETATM   31  C24 UNL     1      27.654  58.919   5.516  1.00  0.00     0.033 A 
ENDBRANCH  23  24
ENDBRANCH   1  18
TORSDOF 6
ENDMDL
