MODEL 1
REMARK VINA RESULT: -7.036095491      0.000      0.000
REMARK  6 active torsions:
REMARK  status: ('A' for Active; 'I' for Inactive)
REMARK    1  A    between atoms: S1_2  and  C2_3 
REMARK    2  A    between atoms: C4_5  and  C5_6 
REMARK    3  A    between atoms: N1_14  and  C12_15 
REMARK    4  A    between atoms: C12_15  and  C13_16 
REMARK    5  A    between atoms: C13_16  and  C14_17 
REMARK    6  A    between atoms: C14_17  and  O1_18 
ROOT
HETATM    1  C5  UNL     1      27.622  59.485   0.763  1.00  0.00     0.023 C 
HETATM    2  C6  UNL     1      27.901  58.542   1.887  1.00  0.00     0.045 C 
HETATM    3  C7  UNL     1      27.567  59.178   3.221  1.00  0.00     0.225 C 
HETATM    4  C8  UNL     1      28.859  59.418   3.948  1.00  0.00     0.058 C 
HETATM    5  C9  UNL     1      29.384  60.667   3.283  1.00  0.00     0.117 C 
HETATM    6 CL1  UNL     1      29.964  61.860   4.434  1.00  0.00    -0.123 Cl
HETATM    7  C10 UNL     1      28.233  61.165   2.433  1.00  0.00     0.242 C 
HETATM    8  C11 UNL     1      28.390  60.793   0.989  1.00  0.00     0.046 C 
HETATM    9  N1  UNL     1      27.063  60.485   2.970  1.00  0.00     0.099 N 
ENDROOT
BRANCH   9  10
HETATM   10  C12 UNL     1      26.596  61.223   4.096  1.00  0.00     0.276 C 
BRANCH  10  11
HETATM   11  C13 UNL     1      25.415  60.603   4.780  1.00  0.00     0.068 C 
BRANCH  11  12
HETATM   12  C14 UNL     1      25.739  60.146   6.172  1.00  0.00     0.059 C 
HETATM   13  C15 UNL     1      26.947  60.783   6.760  1.00  0.00     0.038 C 
HETATM   14  C16 UNL     1      27.802  59.835   7.589  1.00  0.00     0.003 C 
HETATM   15  C17 UNL     1      26.971  59.453   8.794  1.00  0.00     0.000 C 
HETATM   16  C18 UNL     1      26.442  58.060   8.540  1.00  0.00     0.000 C 
HETATM   17  C19 UNL     1      25.329  58.061   7.519  1.00  0.00     0.003 C 
HETATM   18  C20 UNL     1      25.740  58.646   6.205  1.00  0.00     0.038 C 
BRANCH  12  19
HETATM   19  O1  UNL     1      24.641  60.566   6.964  1.00  0.00    -0.390 OA
ATOM     20  H1  UNL     1      24.741  60.107   7.791  1.00  0.00     0.210 HD
ENDBRANCH  12  19
ENDBRANCH  11  12
ENDBRANCH  10  11
ENDBRANCH   9  10
BRANCH   1  21
HETATM   21  C4  UNL     1      28.037  58.967  -0.539  1.00  0.00    -0.052 A 
HETATM   22  C3  UNL     1      29.109  58.134  -0.710  1.00  0.00     0.027 A 
HETATM   23  C2  UNL     1      29.473  57.667  -1.961  1.00  0.00     0.022 A 
HETATM   24  C23 UNL     1      28.759  58.031  -3.081  1.00  0.00     0.050 A 
HETATM   25  C22 UNL     1      27.680  58.868  -2.930  1.00  0.00     0.026 A 
HETATM   26 CL2  UNL     1      29.254  57.416  -4.653  1.00  0.00    -0.083 Cl
HETATM   27  C21 UNL     1      27.328  59.327  -1.665  1.00  0.00     0.009 A 
BRANCH  23  28
HETATM   28  S1  UNL     1      30.876  56.588  -2.083  1.00  0.00    -0.133 SA
HETATM   29  C1  UNL     1      32.356  57.585  -1.697  1.00  0.00     0.095 C 
ENDBRANCH  23  28
ENDBRANCH   1  21
TORSDOF 6
ENDMDL
MODEL 2
REMARK VINA RESULT: -6.905723132      1.634      2.427
REMARK  6 active torsions:
REMARK  status: ('A' for Active; 'I' for Inactive)
REMARK    1  A    between atoms: S1_2  and  C2_3 
REMARK    2  A    between atoms: C4_5  and  C5_6 
REMARK    3  A    between atoms: N1_14  and  C12_15 
REMARK    4  A    between atoms: C12_15  and  C13_16 
REMARK    5  A    between atoms: C13_16  and  C14_17 
REMARK    6  A    between atoms: C14_17  and  O1_18 
ROOT
HETATM    1  C5  UNL     1      28.798  59.451   0.973  1.00  0.00     0.023 C 
HETATM    2  C6  UNL     1      28.482  60.911   0.993  1.00  0.00     0.045 C 
HETATM    3  C7  UNL     1      28.377  61.421   2.416  1.00  0.00     0.225 C 
HETATM    4  C8  UNL     1      26.936  61.758   2.674  1.00  0.00     0.058 C 
HETATM    5  C9  UNL     1      26.322  60.402   2.926  1.00  0.00     0.117 C 
HETATM    6 CL1  UNL     1      25.268  60.382   4.332  1.00  0.00    -0.123 Cl
HETATM    7  C10 UNL     1      27.501  59.460   3.048  1.00  0.00     0.242 C 
HETATM    8  C11 UNL     1      27.744  58.688   1.786  1.00  0.00     0.046 C 
HETATM    9  N1  UNL     1      28.640  60.332   3.294  1.00  0.00     0.099 N 
ENDROOT
BRANCH   9  10
HETATM   10  C12 UNL     1      28.686  60.625   4.687  1.00  0.00     0.276 C 
BRANCH  10  11
HETATM   11  C13 UNL     1      29.018  59.441   5.545  1.00  0.00     0.068 C 
BRANCH  11  12
HETATM   12  C14 UNL     1      28.190  59.394   6.794  1.00  0.00     0.059 C 
HETATM   13  C15 UNL     1      27.243  58.250   6.859  1.00  0.00     0.038 C 
HETATM   14  C16 UNL     1      25.893  58.600   7.469  1.00  0.00     0.003 C 
HETATM   15  C17 UNL     1      26.154  58.937   8.921  1.00  0.00     0.000 C 
HETATM   16  C18 UNL     1      26.111  60.443   9.038  1.00  0.00     0.000 C 
HETATM   17  C19 UNL     1      27.348  61.086   8.456  1.00  0.00     0.003 C 
HETATM   18  C20 UNL     1      27.565  60.740   7.016  1.00  0.00     0.038 C 
BRANCH  12  19
HETATM   19  O1  UNL     1      29.119  59.203   7.848  1.00  0.00    -0.390 OA
ATOM     20  H1  UNL     1      29.213  60.056   8.255  1.00  0.00     0.210 HD
ENDBRANCH  12  19
ENDBRANCH  11  12
ENDBRANCH  10  11
ENDBRANCH   9  10
BRANCH   1  21
HETATM   21  C4  UNL     1      28.794  58.880  -0.372  1.00  0.00    -0.052 A 
HETATM   22  C3  UNL     1      29.812  58.110  -0.865  1.00  0.00     0.027 A 
HETATM   23  C2  UNL     1      29.772  57.589  -2.146  1.00  0.00     0.022 A 
HETATM   24  C23 UNL     1      28.696  57.833  -2.971  1.00  0.00     0.050 A 
HETATM   25  C22 UNL     1      27.664  58.605  -2.494  1.00  0.00     0.026 A 
HETATM   26 CL2  UNL     1      28.684  57.153  -4.593  1.00  0.00    -0.083 Cl
HETATM   27  C21 UNL     1      27.721  59.120  -1.203  1.00  0.00     0.009 A 
BRANCH  23  28
HETATM   28  S1  UNL     1      31.137  56.598  -2.697  1.00  0.00    -0.133 SA
HETATM   29  C1  UNL     1      32.655  57.350  -2.016  1.00  0.00     0.095 C 
ENDBRANCH  23  28
ENDBRANCH   1  21
TORSDOF 6
ENDMDL
MODEL 3
REMARK VINA RESULT: -6.853306718      1.272      1.905
REMARK  6 active torsions:
REMARK  status: ('A' for Active; 'I' for Inactive)
REMARK    1  A    between atoms: S1_2  and  C2_3 
REMARK    2  A    between atoms: C4_5  and  C5_6 
REMARK    3  A    between atoms: N1_14  and  C12_15 
REMARK    4  A    between atoms: C12_15  and  C13_16 
REMARK    5  A    between atoms: C13_16  and  C14_17 
REMARK    6  A    between atoms: C14_17  and  O1_18 
ROOT
HETATM    1  C5  UNL     1      28.291  59.489   1.620  1.00  0.00     0.023 C 
HETATM    2  C6  UNL     1      28.974  58.897   2.809  1.00  0.00     0.045 C 
HETATM    3  C7  UNL     1      28.631  59.668   4.067  1.00  0.00     0.225 C 
HETATM    4  C8  UNL     1      29.872  60.386   4.513  1.00  0.00     0.058 C 
HETATM    5  C9  UNL     1      29.916  61.575   3.584  1.00  0.00     0.117 C 
HETATM    6 CL1  UNL     1      30.252  63.083   4.421  1.00  0.00    -0.123 Cl
HETATM    7  C10 UNL     1      28.575  61.566   2.881  1.00  0.00     0.242 C 
HETATM    8  C11 UNL     1      28.657  60.975   1.506  1.00  0.00     0.046 C 
HETATM    9  N1  UNL     1      27.735  60.714   3.711  1.00  0.00     0.099 N 
ENDROOT
BRANCH   9  10
HETATM   10  C12 UNL     1      27.211  61.504   4.775  1.00  0.00     0.276 C 
BRANCH  10  11
HETATM   11  C13 UNL     1      25.859  61.063   5.249  1.00  0.00     0.068 C 
BRANCH  11  12
HETATM   12  C14 UNL     1      25.939  60.212   6.481  1.00  0.00     0.059 C 
HETATM   13  C15 UNL     1      27.101  60.511   7.359  1.00  0.00     0.038 C 
HETATM   14  C16 UNL     1      27.742  59.276   7.976  1.00  0.00     0.003 C 
HETATM   15  C17 UNL     1      26.716  58.690   8.922  1.00  0.00     0.000 C 
HETATM   16  C18 UNL     1      26.109  57.494   8.225  1.00  0.00     0.000 C 
HETATM   17  C19 UNL     1      25.158  57.907   7.127  1.00  0.00     0.003 C 
HETATM   18  C20 UNL     1      25.804  58.769   6.088  1.00  0.00     0.038 C 
BRANCH  12  19
HETATM   19  O1  UNL     1      24.779  60.535   7.230  1.00  0.00    -0.390 OA
ATOM     20  H1  UNL     1      24.643  61.465   7.090  1.00  0.00     0.210 HD
ENDBRANCH  12  19
ENDBRANCH  11  12
ENDBRANCH  10  11
ENDBRANCH   9  10
BRANCH   1  21
HETATM   21  C4  UNL     1      28.680  58.857   0.359  1.00  0.00    -0.052 A 
HETATM   22  C3  UNL     1      28.048  59.100  -0.830  1.00  0.00     0.027 A 
HETATM   23  C2  UNL     1      28.444  58.480  -2.001  1.00  0.00     0.022 A 
HETATM   24  C23 UNL     1      29.496  57.591  -2.005  1.00  0.00     0.050 A 
HETATM   25  C22 UNL     1      30.142  57.333  -0.820  1.00  0.00     0.026 A 
HETATM   26 CL2  UNL     1      29.968  56.824  -3.515  1.00  0.00    -0.083 Cl
HETATM   27  C21 UNL     1      29.731  57.966   0.348  1.00  0.00     0.009 A 
BRANCH  23  28
HETATM   28  S1  UNL     1      27.566  58.862  -3.495  1.00  0.00    -0.133 SA
HETATM   29  C1  UNL     1      27.955  60.595  -3.920  1.00  0.00     0.095 C 
ENDBRANCH  23  28
ENDBRANCH   1  21
TORSDOF 6
ENDMDL
MODEL 4
REMARK VINA RESULT: -6.837143302      1.918      2.983
REMARK  6 active torsions:
REMARK  status: ('A' for Active; 'I' for Inactive)
REMARK    1  A    between atoms: S1_2  and  C2_3 
REMARK    2  A    between atoms: C4_5  and  C5_6 
REMARK    3  A    between atoms: N1_14  and  C12_15 
REMARK    4  A    between atoms: C12_15  and  C13_16 
REMARK    5  A    between atoms: C13_16  and  C14_17 
REMARK    6  A    between atoms: C14_17  and  O1_18 
ROOT
HETATM    1  C5  UNL     1      29.243  59.104   1.187  1.00  0.00     0.023 C 
HETATM    2  C6  UNL     1      29.069  60.587   1.171  1.00  0.00     0.045 C 
HETATM    3  C7  UNL     1      28.908  61.127   2.578  1.00  0.00     0.225 C 
HETATM    4  C8  UNL     1      27.492  61.604   2.723  1.00  0.00     0.058 C 
HETATM    5  C9  UNL     1      26.732  60.318   2.940  1.00  0.00     0.117 C 
HETATM    6 CL1  UNL     1      25.580  60.421   4.262  1.00  0.00    -0.123 Cl
HETATM    7  C10 UNL     1      27.802  59.269   3.158  1.00  0.00     0.242 C 
HETATM    8  C11 UNL     1      28.063  58.458   1.924  1.00  0.00     0.046 C 
HETATM    9  N1  UNL     1      28.999  60.032   3.482  1.00  0.00     0.099 N 
ENDROOT
BRANCH   9  10
HETATM   10  C12 UNL     1      28.969  60.340   4.873  1.00  0.00     0.276 C 
BRANCH  10  11
HETATM   11  C13 UNL     1      29.054  59.136   5.762  1.00  0.00     0.068 C 
BRANCH  11  12
HETATM   12  C14 UNL     1      28.146  59.243   6.951  1.00  0.00     0.059 C 
HETATM   13  C15 UNL     1      27.083  58.204   7.005  1.00  0.00     0.038 C 
HETATM   14  C16 UNL     1      25.740  58.721   7.499  1.00  0.00     0.003 C 
HETATM   15  C17 UNL     1      25.938  59.112   8.948  1.00  0.00     0.000 C 
HETATM   16  C18 UNL     1      26.043  60.619   8.986  1.00  0.00     0.000 C 
HETATM   17  C19 UNL     1      27.375  61.102   8.462  1.00  0.00     0.003 C 
HETATM   18  C20 UNL     1      27.649  60.655   7.060  1.00  0.00     0.038 C 
BRANCH  12  19
HETATM   19  O1  UNL     1      28.979  59.020   8.076  1.00  0.00    -0.390 OA
ATOM     20  H1  UNL     1      29.794  59.466   7.874  1.00  0.00     0.210 HD
ENDBRANCH  12  19
ENDBRANCH  11  12
ENDBRANCH  10  11
ENDBRANCH   9  10
BRANCH   1  21
HETATM   21  C4  UNL     1      29.284  58.515  -0.150  1.00  0.00    -0.052 A 
HETATM   22  C3  UNL     1      28.504  58.948  -1.187  1.00  0.00     0.027 A 
HETATM   23  C2  UNL     1      28.571  58.362  -2.439  1.00  0.00     0.022 A 
HETATM   24  C23 UNL     1      29.432  57.315  -2.679  1.00  0.00     0.050 A 
HETATM   25  C22 UNL     1      30.222  56.864  -1.649  1.00  0.00     0.026 A 
HETATM   26 CL2  UNL     1      29.485  56.596  -4.283  1.00  0.00    -0.083 Cl
HETATM   27  C21 UNL     1      30.143  57.466  -0.398  1.00  0.00     0.009 A 
BRANCH  23  28
HETATM   28  S1  UNL     1      27.523  58.996  -3.723  1.00  0.00    -0.133 SA
HETATM   29  C1  UNL     1      27.914  60.769  -3.910  1.00  0.00     0.095 C 
ENDBRANCH  23  28
ENDBRANCH   1  21
TORSDOF 6
ENDMDL
MODEL 5
REMARK VINA RESULT: -6.819438177      1.890      2.902
REMARK  6 active torsions:
REMARK  status: ('A' for Active; 'I' for Inactive)
REMARK    1  A    between atoms: S1_2  and  C2_3 
REMARK    2  A    between atoms: C4_5  and  C5_6 
REMARK    3  A    between atoms: N1_14  and  C12_15 
REMARK    4  A    between atoms: C12_15  and  C13_16 
REMARK    5  A    between atoms: C13_16  and  C14_17 
REMARK    6  A    between atoms: C14_17  and  O1_18 
ROOT
HETATM    1  C5  UNL     1      29.326  58.362   0.751  1.00  0.00     0.023 C 
HETATM    2  C6  UNL     1      30.186  59.423   1.355  1.00  0.00     0.045 C 
HETATM    3  C7  UNL     1      29.630  59.873   2.690  1.00  0.00     0.225 C 
HETATM    4  C8  UNL     1      29.123  61.277   2.522  1.00  0.00     0.058 C 
HETATM    5  C9  UNL     1      27.793  61.067   1.839  1.00  0.00     0.117 C 
HETATM    6 CL1  UNL     1      26.502  62.020   2.553  1.00  0.00    -0.123 Cl
HETATM    7  C10 UNL     1      27.550  59.574   1.918  1.00  0.00     0.242 C 
HETATM    8  C11 UNL     1      27.885  58.875   0.635  1.00  0.00     0.046 C 
HETATM    9  N1  UNL     1      28.458  59.112   2.957  1.00  0.00     0.099 N 
ENDROOT
BRANCH   9  10
HETATM   10  C12 UNL     1      27.831  59.315   4.221  1.00  0.00     0.276 C 
BRANCH  10  11
HETATM   11  C13 UNL     1      28.774  59.247   5.384  1.00  0.00     0.068 C 
BRANCH  11  12
HETATM   12  C14 UNL     1      28.060  59.315   6.700  1.00  0.00     0.059 C 
HETATM   13  C15 UNL     1      27.152  58.168   6.965  1.00  0.00     0.038 C 
HETATM   14  C16 UNL     1      25.852  58.556   7.653  1.00  0.00     0.003 C 
HETATM   15  C17 UNL     1      26.229  59.045   9.035  1.00  0.00     0.000 C 
HETATM   16  C18 UNL     1      26.157  60.554   9.002  1.00  0.00     0.000 C 
HETATM   17  C19 UNL     1      27.321  61.155   8.251  1.00  0.00     0.003 C 
HETATM   18  C20 UNL     1      27.421  60.666   6.840  1.00  0.00     0.038 C 
BRANCH  12  19
HETATM   19  O1  UNL     1      29.082  59.249   7.681  1.00  0.00    -0.390 OA
ATOM     20  H1  UNL     1      28.910  59.976   8.269  1.00  0.00     0.210 HD
ENDBRANCH  12  19
ENDBRANCH  11  12
ENDBRANCH  10  11
ENDBRANCH   9  10
BRANCH   1  21
HETATM   21  C4  UNL     1      29.749  57.974  -0.594  1.00  0.00    -0.052 A 
HETATM   22  C3  UNL     1      28.883  57.833  -1.644  1.00  0.00     0.027 A 
HETATM   23  C2  UNL     1      29.323  57.462  -2.902  1.00  0.00     0.022 A 
HETATM   24  C23 UNL     1      30.658  57.219  -3.136  1.00  0.00     0.050 A 
HETATM   25  C22 UNL     1      31.544  57.353  -2.093  1.00  0.00     0.026 A 
HETATM   26 CL2  UNL     1      31.176  56.748  -4.749  1.00  0.00    -0.083 Cl
HETATM   27  C21 UNL     1      31.084  57.729  -0.836  1.00  0.00     0.009 A 
BRANCH  23  28
HETATM   28  S1  UNL     1      28.126  57.309  -4.202  1.00  0.00    -0.133 SA
HETATM   29  C1  UNL     1      27.632  55.553  -4.275  1.00  0.00     0.095 C 
ENDBRANCH  23  28
ENDBRANCH   1  21
TORSDOF 6
ENDMDL
