MODEL 1
REMARK VINA RESULT: -6.197162714      0.000      0.000
REMARK  7 active torsions:
REMARK  status: ('A' for Active; 'I' for Inactive)
REMARK    1  A    between atoms: O1_2  and  C2_3 
REMARK    2  A    between atoms: C5_6  and  C6_7 
REMARK    3  A    between atoms: C6_7  and  N1_9 
REMARK    4  A    between atoms: N1_9  and  C8_11 
REMARK    5  A    between atoms: C8_11  and  O2_12 
REMARK    6  A    between atoms: C8_11  and  C9_14 
REMARK    7  A    between atoms: C22_29  and  O3_30 
ROOT
HETATM    1  C8  UNL     1      27.260  63.442   5.184  1.00  0.00     0.119 C 
ENDROOT
BRANCH   1   2
HETATM    2  N1  UNL     1      27.327  64.362   6.235  1.00  0.00    -0.343 N 
ATOM      3  H1  UNL     1      28.060  65.071   6.248  1.00  0.00     0.167 HD
BRANCH   2   4
HETATM    4  C6  UNL     1      26.349  64.304   7.307  1.00  0.00     0.020 C 
HETATM    5  C7  UNL     1      24.928  64.116   6.958  1.00  0.00     0.069 C 
BRANCH   4   6
HETATM    6  C5  UNL     1      26.862  63.952   8.615  1.00  0.00     0.028 A 
HETATM    7  C4  UNL     1      26.906  62.665   9.110  1.00  0.00     0.019 A 
HETATM    8  C3  UNL     1      27.266  62.354  10.415  1.00  0.00     0.041 A 
HETATM    9  C2  UNL     1      27.622  63.397  11.299  1.00  0.00     0.104 A 
HETATM   10  C22 UNL     1      27.587  64.712  10.792  1.00  0.00     0.141 A 
HETATM   11  C21 UNL     1      27.218  64.965   9.512  1.00  0.00     0.164 A 
HETATM   12  F1  UNL     1      27.171  66.231   9.047  1.00  0.00    -0.202 F 
BRANCH   9  13
HETATM   13  O1  UNL     1      27.960  63.121  12.534  1.00  0.00    -0.353 OA
HETATM   14  C1  UNL     1      27.642  62.954  13.810  1.00  0.00     0.210 C 
ENDBRANCH   9  13
BRANCH  10  15
HETATM   15  O3  UNL     1      27.955  65.780  11.640  1.00  0.00    -0.350 OA
HETATM   16  C23 UNL     1      26.775  66.366  12.282  1.00  0.00     0.210 C 
ENDBRANCH  10  15
ENDBRANCH   4   6
ENDBRANCH   2   4
ENDBRANCH   1   2
BRANCH   1  17
HETATM   17  O2  UNL     1      27.002  64.008   4.020  1.00  0.00    -0.349 OA
ATOM     18  H2  UNL     1      26.206  63.681   3.616  1.00  0.00     0.219 HD
ENDBRANCH   1  17
BRANCH   1  19
HETATM   19  C9  UNL     1      27.449  61.993   5.208  1.00  0.00     0.062 C 
HETATM   20  C10 UNL     1      26.462  61.397   4.232  1.00  0.00     0.013 C 
HETATM   21  C11 UNL     1      25.536  60.366   4.751  1.00  0.00     0.001 C 
HETATM   22  C12 UNL     1      24.732  60.609   5.955  1.00  0.00     0.000 C 
HETATM   23  C13 UNL     1      25.145  59.972   7.235  1.00  0.00     0.000 C 
HETATM   24  C14 UNL     1      25.392  58.499   7.175  1.00  0.00     0.000 C 
HETATM   25  C15 UNL     1      26.448  57.980   8.082  1.00  0.00     0.000 C 
HETATM   26  C16 UNL     1      27.629  58.866   8.320  1.00  0.00     0.000 C 
HETATM   27  C17 UNL     1      28.494  59.127   7.121  1.00  0.00     0.001 C 
HETATM   28  C18 UNL     1      29.074  60.518   7.220  1.00  0.00     0.020 C 
HETATM   29  C19 UNL     1      29.673  61.007   5.973  1.00  0.00     0.083 C 
HETATM   30 CL1  UNL     1      30.663  59.688   5.201  1.00  0.00    -0.125 Cl
HETATM   31  C20 UNL     1      28.850  61.591   4.907  1.00  0.00     0.033 C 
ENDBRANCH   1  19
TORSDOF 7
ENDMDL
MODEL 2
REMARK VINA RESULT: -6.151584431      2.832      4.488
REMARK  7 active torsions:
REMARK  status: ('A' for Active; 'I' for Inactive)
REMARK    1  A    between atoms: O1_2  and  C2_3 
REMARK    2  A    between atoms: C5_6  and  C6_7 
REMARK    3  A    between atoms: C6_7  and  N1_9 
REMARK    4  A    between atoms: N1_9  and  C8_11 
REMARK    5  A    between atoms: C8_11  and  O2_12 
REMARK    6  A    between atoms: C8_11  and  C9_14 
REMARK    7  A    between atoms: C22_29  and  O3_30 
ROOT
HETATM    1  C8  UNL     1      24.972  60.969   6.752  1.00  0.00     0.119 C 
ENDROOT
BRANCH   1   2
HETATM    2  N1  UNL     1      25.021  61.111   8.143  1.00  0.00    -0.343 N 
ATOM      3  H1  UNL     1      24.343  60.627   8.731  1.00  0.00     0.167 HD
BRANCH   2   4
HETATM    4  C6  UNL     1      26.041  61.951   8.746  1.00  0.00     0.020 C 
HETATM    5  C7  UNL     1      26.754  61.451   9.937  1.00  0.00     0.069 C 
BRANCH   4   6
HETATM    6  C5  UNL     1      26.616  62.966   7.889  1.00  0.00     0.028 A 
HETATM    7  C4  UNL     1      27.870  62.880   7.319  1.00  0.00     0.019 A 
HETATM    8  C3  UNL     1      28.468  63.918   6.615  1.00  0.00     0.041 A 
HETATM    9  C2  UNL     1      27.768  65.135   6.453  1.00  0.00     0.104 A 
HETATM   10  C22 UNL     1      26.483  65.221   7.027  1.00  0.00     0.141 A 
HETATM   11  C21 UNL     1      25.946  64.182   7.713  1.00  0.00     0.164 A 
HETATM   12  F1  UNL     1      24.723  64.286   8.273  1.00  0.00    -0.202 F 
BRANCH   9  13
HETATM   13  O1  UNL     1      28.321  66.124   5.797  1.00  0.00    -0.353 OA
HETATM   14  C1  UNL     1      29.067  67.219   5.769  1.00  0.00     0.210 C 
ENDBRANCH   9  13
BRANCH  10  15
HETATM   15  O3  UNL     1      25.744  66.413   6.868  1.00  0.00    -0.350 OA
HETATM   16  C23 UNL     1      25.942  67.304   8.015  1.00  0.00     0.210 C 
ENDBRANCH  10  15
ENDBRANCH   4   6
ENDBRANCH   2   4
ENDBRANCH   1   2
BRANCH   1  17
HETATM   17  O2  UNL     1      23.961  61.617   6.204  1.00  0.00    -0.349 OA
ATOM     18  H2  UNL     1      24.235  62.248   5.550  1.00  0.00     0.219 HD
ENDBRANCH   1  17
BRANCH   1  19
HETATM   19  C9  UNL     1      25.873  60.239   5.863  1.00  0.00     0.062 C 
HETATM   20  C10 UNL     1      25.933  58.813   6.361  1.00  0.00     0.013 C 
HETATM   21  C11 UNL     1      27.270  58.261   6.672  1.00  0.00     0.001 C 
HETATM   22  C12 UNL     1      28.197  58.978   7.557  1.00  0.00     0.000 C 
HETATM   23  C13 UNL     1      29.342  59.712   6.955  1.00  0.00     0.000 C 
HETATM   24  C14 UNL     1      30.183  58.928   5.999  1.00  0.00     0.000 C 
HETATM   25  C15 UNL     1      30.783  59.699   4.880  1.00  0.00     0.000 C 
HETATM   26  C16 UNL     1      29.969  60.820   4.318  1.00  0.00     0.000 C 
HETATM   27  C17 UNL     1      28.695  60.415   3.633  1.00  0.00     0.001 C 
HETATM   28  C18 UNL     1      27.657  61.493   3.837  1.00  0.00     0.020 C 
HETATM   29  C19 UNL     1      26.291  61.081   3.493  1.00  0.00     0.083 C 
HETATM   30 CL1  UNL     1      26.300  60.143   1.932  1.00  0.00    -0.125 Cl
HETATM   31  C20 UNL     1      25.462  60.319   4.435  1.00  0.00     0.033 C 
ENDBRANCH   1  19
TORSDOF 7
ENDMDL
MODEL 3
REMARK VINA RESULT: -6.045507182      4.271      6.187
REMARK  7 active torsions:
REMARK  status: ('A' for Active; 'I' for Inactive)
REMARK    1  A    between atoms: O1_2  and  C2_3 
REMARK    2  A    between atoms: C5_6  and  C6_7 
REMARK    3  A    between atoms: C6_7  and  N1_9 
REMARK    4  A    between atoms: N1_9  and  C8_11 
REMARK    5  A    between atoms: C8_11  and  O2_12 
REMARK    6  A    between atoms: C8_11  and  C9_14 
REMARK    7  A    between atoms: C22_29  and  O3_30 
ROOT
HETATM    1  C8  UNL     1      26.171  60.861   4.400  1.00  0.00     0.119 C 
ENDROOT
BRANCH   1   2
HETATM    2  N1  UNL     1      25.976  59.656   5.084  1.00  0.00    -0.343 N 
ATOM      3  H1  UNL     1      25.211  59.036   4.820  1.00  0.00     0.167 HD
BRANCH   2   4
HETATM    4  C6  UNL     1      26.867  59.293   6.172  1.00  0.00     0.020 C 
HETATM    5  C7  UNL     1      26.374  58.367   7.209  1.00  0.00     0.069 C 
BRANCH   4   6
HETATM    6  C5  UNL     1      28.282  59.463   5.917  1.00  0.00     0.028 A 
HETATM    7  C4  UNL     1      29.036  58.613   5.132  1.00  0.00     0.019 A 
HETATM    8  C3  UNL     1      30.416  58.703   5.008  1.00  0.00     0.041 A 
HETATM    9  C2  UNL     1      31.107  59.718   5.706  1.00  0.00     0.104 A 
HETATM   10  C22 UNL     1      30.338  60.593   6.500  1.00  0.00     0.141 A 
HETATM   11  C21 UNL     1      28.992  60.458   6.598  1.00  0.00     0.164 A 
HETATM   12  F1  UNL     1      28.271  61.291   7.376  1.00  0.00    -0.202 F 
BRANCH   9  13
HETATM   13  O1  UNL     1      32.410  59.813   5.603  1.00  0.00    -0.353 OA
HETATM   14  C1  UNL     1      33.493  60.147   4.917  1.00  0.00     0.210 C 
ENDBRANCH   9  13
BRANCH  10  15
HETATM   15  O3  UNL     1      30.990  61.633   7.198  1.00  0.00    -0.350 OA
HETATM   16  C23 UNL     1      30.989  62.868   6.409  1.00  0.00     0.210 C 
ENDBRANCH  10  15
ENDBRANCH   4   6
ENDBRANCH   2   4
ENDBRANCH   1   2
BRANCH   1  17
HETATM   17  O2  UNL     1      25.621  61.894   5.010  1.00  0.00    -0.349 OA
ATOM     18  H2  UNL     1      26.018  62.722   4.768  1.00  0.00     0.219 HD
ENDBRANCH   1  17
BRANCH   1  19
HETATM   19  C9  UNL     1      26.892  61.113   3.154  1.00  0.00     0.062 C 
HETATM   20  C10 UNL     1      26.017  60.623   2.024  1.00  0.00     0.013 C 
HETATM   21  C11 UNL     1      26.604  59.632   1.094  1.00  0.00     0.001 C 
HETATM   22  C12 UNL     1      27.241  58.408   1.598  1.00  0.00     0.000 C 
HETATM   23  C13 UNL     1      28.726  58.326   1.613  1.00  0.00     0.000 C 
HETATM   24  C14 UNL     1      29.407  58.665   0.326  1.00  0.00     0.000 C 
HETATM   25  C15 UNL     1      30.739  59.311   0.448  1.00  0.00     0.000 C 
HETATM   26  C16 UNL     1      30.933  60.250   1.595  1.00  0.00     0.000 C 
HETATM   27  C17 UNL     1      30.098  61.498   1.560  1.00  0.00     0.001 C 
HETATM   28  C18 UNL     1      29.755  61.908   2.972  1.00  0.00     0.020 C 
HETATM   29  C19 UNL     1      28.693  62.916   3.062  1.00  0.00     0.083 C 
HETATM   30 CL1  UNL     1      28.954  64.206   1.804  1.00  0.00    -0.125 Cl
HETATM   31  C20 UNL     1      27.276  62.541   2.990  1.00  0.00     0.033 C 
ENDBRANCH   1  19
TORSDOF 7
ENDMDL
MODEL 4
REMARK VINA RESULT: -6.038328749      3.334      5.102
REMARK  7 active torsions:
REMARK  status: ('A' for Active; 'I' for Inactive)
REMARK    1  A    between atoms: O1_2  and  C2_3 
REMARK    2  A    between atoms: C5_6  and  C6_7 
REMARK    3  A    between atoms: C6_7  and  N1_9 
REMARK    4  A    between atoms: N1_9  and  C8_11 
REMARK    5  A    between atoms: C8_11  and  O2_12 
REMARK    6  A    between atoms: C8_11  and  C9_14 
REMARK    7  A    between atoms: C22_29  and  O3_30 
ROOT
HETATM    1  C8  UNL     1      29.614  59.496   4.535  1.00  0.00     0.119 C 
ENDROOT
BRANCH   1   2
HETATM    2  N1  UNL     1      29.105  60.002   5.735  1.00  0.00    -0.343 N 
ATOM      3  H1  UNL     1      29.737  60.392   6.434  1.00  0.00     0.167 HD
BRANCH   2   4
HETATM    4  C6  UNL     1      27.675  59.968   5.982  1.00  0.00     0.020 C 
HETATM    5  C7  UNL     1      26.799  59.341   4.974  1.00  0.00     0.069 C 
BRANCH   4   6
HETATM    6  C5  UNL     1      27.266  60.101   7.365  1.00  0.00     0.028 A 
HETATM    7  C4  UNL     1      26.885  59.043   8.166  1.00  0.00     0.019 A 
HETATM    8  C3  UNL     1      26.360  59.196   9.443  1.00  0.00     0.041 A 
HETATM    9  C2  UNL     1      26.210  60.495   9.976  1.00  0.00     0.104 A 
HETATM   10  C22 UNL     1      26.608  61.576   9.163  1.00  0.00     0.141 A 
HETATM   11  C21 UNL     1      27.105  61.376   7.918  1.00  0.00     0.164 A 
HETATM   12  F1  UNL     1      27.464  62.422   7.144  1.00  0.00    -0.202 F 
BRANCH   9  13
HETATM   13  O1  UNL     1      25.713  60.656  11.178  1.00  0.00    -0.353 OA
HETATM   14  C1  UNL     1      25.559  60.247  12.429  1.00  0.00     0.210 C 
ENDBRANCH   9  13
BRANCH  10  15
HETATM   15  O3  UNL     1      26.492  62.890   9.669  1.00  0.00    -0.350 OA
HETATM   16  C23 UNL     1      27.722  63.293  10.356  1.00  0.00     0.210 C 
ENDBRANCH  10  15
ENDBRANCH   4   6
ENDBRANCH   2   4
ENDBRANCH   1   2
BRANCH   1  17
HETATM   17  O2  UNL     1      30.456  58.495   4.713  1.00  0.00    -0.349 OA
ATOM     18  H2  UNL     1      31.080  58.655   5.410  1.00  0.00     0.219 HD
ENDBRANCH   1  17
BRANCH   1  19
HETATM   19  C9  UNL     1      29.329  59.907   3.161  1.00  0.00     0.062 C 
HETATM   20  C10 UNL     1      29.940  61.275   2.968  1.00  0.00     0.013 C 
HETATM   21  C11 UNL     1      29.042  62.359   2.509  1.00  0.00     0.001 C 
HETATM   22  C12 UNL     1      27.777  62.637   3.202  1.00  0.00     0.000 C 
HETATM   23  C13 UNL     1      26.504  62.185   2.580  1.00  0.00     0.000 C 
HETATM   24  C14 UNL     1      26.305  62.578   1.151  1.00  0.00     0.000 C 
HETATM   25  C15 UNL     1      25.542  61.617   0.313  1.00  0.00     0.000 C 
HETATM   26  C16 UNL     1      25.737  60.164   0.605  1.00  0.00     0.000 C 
HETATM   27  C17 UNL     1      27.114  59.628   0.336  1.00  0.00     0.001 C 
HETATM   28  C18 UNL     1      27.425  58.534   1.330  1.00  0.00     0.020 C 
HETATM   29  C19 UNL     1      28.841  58.152   1.377  1.00  0.00     0.083 C 
HETATM   30 CL1  UNL     1      29.505  58.027  -0.314  1.00  0.00    -0.125 Cl
HETATM   31  C20 UNL     1      29.816  58.926   2.154  1.00  0.00     0.033 C 
ENDBRANCH   1  19
TORSDOF 7
ENDMDL
MODEL 5
REMARK VINA RESULT: -6.032854250      3.519      5.369
REMARK  7 active torsions:
REMARK  status: ('A' for Active; 'I' for Inactive)
REMARK    1  A    between atoms: O1_2  and  C2_3 
REMARK    2  A    between atoms: C5_6  and  C6_7 
REMARK    3  A    between atoms: C6_7  and  N1_9 
REMARK    4  A    between atoms: N1_9  and  C8_11 
REMARK    5  A    between atoms: C8_11  and  O2_12 
REMARK    6  A    between atoms: C8_11  and  C9_14 
REMARK    7  A    between atoms: C22_29  and  O3_30 
ROOT
HETATM    1  C8  UNL     1      26.295  59.703   4.797  1.00  0.00     0.119 C 
ENDROOT
BRANCH   1   2
HETATM    2  N1  UNL     1      26.571  58.776   5.807  1.00  0.00    -0.343 N 
ATOM      3  H1  UNL     1      26.905  57.843   5.568  1.00  0.00     0.167 HD
BRANCH   2   4
HETATM    4  C6  UNL     1      26.379  59.147   7.198  1.00  0.00     0.020 C 
HETATM    5  C7  UNL     1      25.985  58.100   8.160  1.00  0.00     0.069 C 
BRANCH   4   6
HETATM    6  C5  UNL     1      27.038  60.363   7.627  1.00  0.00     0.028 A 
HETATM    7  C4  UNL     1      26.381  61.547   7.896  1.00  0.00     0.019 A 
HETATM    8  C3  UNL     1      27.032  62.743   8.169  1.00  0.00     0.041 A 
HETATM    9  C2  UNL     1      28.444  62.771   8.188  1.00  0.00     0.104 A 
HETATM   10  C22 UNL     1      29.117  61.560   7.924  1.00  0.00     0.141 A 
HETATM   11  C21 UNL     1      28.436  60.420   7.653  1.00  0.00     0.164 A 
HETATM   12  F1  UNL     1      29.093  59.273   7.383  1.00  0.00    -0.202 F 
BRANCH   9  13
HETATM   13  O1  UNL     1      29.073  63.892   8.440  1.00  0.00    -0.353 OA
HETATM   14  C1  UNL     1      29.584  65.047   8.037  1.00  0.00     0.210 C 
ENDBRANCH   9  13
BRANCH  10  15
HETATM   15  O3  UNL     1      30.529  61.543   7.955  1.00  0.00    -0.350 OA
HETATM   16  C23 UNL     1      31.082  61.783   6.619  1.00  0.00     0.210 C 
ENDBRANCH  10  15
ENDBRANCH   4   6
ENDBRANCH   2   4
ENDBRANCH   1   2
BRANCH   1  17
HETATM   17  O2  UNL     1      25.068  60.186   4.863  1.00  0.00    -0.349 OA
ATOM     18  H2  UNL     1      24.924  60.731   5.628  1.00  0.00     0.219 HD
ENDBRANCH   1  17
BRANCH   1  19
HETATM   19  C9  UNL     1      27.163  60.199   3.731  1.00  0.00     0.062 C 
HETATM   20  C10 UNL     1      26.602  61.527   3.278  1.00  0.00     0.013 C 
HETATM   21  C11 UNL     1      26.286  61.673   1.840  1.00  0.00     0.001 C 
HETATM   22  C12 UNL     1      25.449  60.686   1.146  1.00  0.00     0.000 C 
HETATM   23  C13 UNL     1      26.102  59.694   0.249  1.00  0.00     0.000 C 
HETATM   24  C14 UNL     1      27.033  60.261  -0.773  1.00  0.00     0.000 C 
HETATM   25  C15 UNL     1      28.196  59.409  -1.135  1.00  0.00     0.000 C 
HETATM   26  C16 UNL     1      28.796  58.585  -0.041  1.00  0.00     0.000 C 
HETATM   27  C17 UNL     1      29.442  59.358   1.073  1.00  0.00     0.001 C 
HETATM   28  C18 UNL     1      29.272  58.600   2.368  1.00  0.00     0.020 C 
HETATM   29  C19 UNL     1      29.575  59.388   3.568  1.00  0.00     0.083 C 
HETATM   30 CL1  UNL     1      31.092  60.362   3.303  1.00  0.00    -0.125 Cl
HETATM   31  C20 UNL     1      28.587  60.303   4.151  1.00  0.00     0.033 C 
ENDBRANCH   1  19
TORSDOF 7
ENDMDL
