MODEL 1
REMARK VINA RESULT: -9.272860135      0.000      0.000
REMARK  7 active torsions:
REMARK  status: ('A' for Active; 'I' for Inactive)
REMARK    1  A    between atoms: C7_8  and  O2_9 
REMARK    2  A    between atoms: C14_16  and  C16_18 
REMARK    3  A    between atoms: C16_18  and  C17_20 
REMARK    4  A    between atoms: C17_20  and  C18_21 
REMARK    5  A    between atoms: C18_21  and  C19_22 
REMARK    6  A    between atoms: C19_22  and  N1_24 
REMARK    7  A    between atoms: N1_24  and  C20_26 
ROOT
HETATM    1  C1  UNL     1      -0.497  -0.628  28.370  1.00  0.00     0.210 C 
HETATM    2  O1  UNL     1       0.131  -0.295  27.292  1.00  0.00    -0.353 OA
HETATM    3  C2  UNL     1       0.703  -0.075  26.149  1.00  0.00     0.102 A 
HETATM    4  C3  UNL     1       0.468  -0.945  25.087  1.00  0.00     0.047 A 
HETATM    5  C4  UNL     1       1.040  -0.770  23.850  1.00  0.00    -0.048 A 
HETATM    6  C5  UNL     1       1.870   0.308  23.678  1.00  0.00    -0.040 A 
HETATM    7  C6  UNL     1       2.124   1.200  24.729  1.00  0.00     0.048 A 
HETATM    8  C7  UNL     1       1.557   1.025  25.956  1.00  0.00     0.102 A 
HETATM    9  C9  UNL     1       2.602   0.759  22.437  1.00  0.00    -0.011 C 
HETATM   10  C10 UNL     1       3.934   1.320  22.782  1.00  0.00     0.021 C 
HETATM   11  C11 UNL     1       1.740   1.926  21.913  1.00  0.00     0.014 C 
HETATM   12  C12 UNL     1       1.498   1.882  20.452  1.00  0.00     0.002 C 
HETATM   13  C13 UNL     1       2.725   1.379  19.747  1.00  0.00     0.017 C 
HETATM   14  C14 UNL     1       2.991  -0.082  20.063  1.00  0.00     0.021 C 
HETATM   15  C15 UNL     1       2.030  -0.847  19.138  1.00  0.00     0.024 C 
HETATM   16  C21 UNL     1       2.557  -0.346  21.445  1.00  0.00     0.014 C 
HETATM   17  C22 UNL     1       2.970  -1.710  21.972  1.00  0.00     0.007 C 
HETATM   18  C23 UNL     1       1.806  -2.590  22.367  1.00  0.00     0.005 C 
HETATM   19  C24 UNL     1       0.629  -1.846  22.880  1.00  0.00     0.039 C 
ENDROOT
BRANCH   8  20
HETATM   20  O2  UNL     1       1.784   1.886  27.026  1.00  0.00    -0.353 OA
HETATM   21  C8  UNL     1       3.062   2.252  27.495  1.00  0.00     0.210 C 
ENDBRANCH   8  20
BRANCH  14  22
HETATM   22  C16 UNL     1       4.354  -0.481  19.631  1.00  0.00     0.135 C 
HETATM   23  O3  UNL     1       5.405  -0.055  20.069  1.00  0.00    -0.297 OA
BRANCH  22  24
HETATM   24  C17 UNL     1       4.496  -1.496  18.558  1.00  0.00     0.082 C 
BRANCH  24  25
HETATM   25  C18 UNL     1       5.091  -1.136  17.276  1.00  0.00     0.049 C 
BRANCH  25  26
HETATM   26  C19 UNL     1       4.238  -0.748  16.120  1.00  0.00     0.197 C 
HETATM   27 CL1  UNL     1       5.031   0.013  14.761  1.00  0.00    -0.102 Cl
BRANCH  26  28
HETATM   28  N1  UNL     1       3.681  -2.021  15.608  1.00  0.00    -0.206 N 
ATOM     29  H1  UNL     1       4.312  -2.805  15.446  1.00  0.00     0.179 HD
BRANCH  28  30
HETATM   30  C20 UNL     1       2.427  -2.169  15.360  1.00  0.00     0.708 A 
HETATM   31  N2  UNL     1       1.945  -3.060  14.476  1.00  0.00    -0.118 N 
HETATM   32  N3  UNL     1       0.633  -2.919  14.493  1.00  0.00    -0.212 N 
ATOM     33  H2  UNL     1       2.484  -3.713  13.907  1.00  0.00     0.207 HD
HETATM   34  N4  UNL     1       0.271  -1.977  15.349  1.00  0.00     0.009 NA
ATOM     35  H3  UNL     1      -0.015  -3.462  13.922  1.00  0.00     0.206 HD
HETATM   36  N5  UNL     1       1.389  -1.510  15.891  1.00  0.00    -0.114 N 
ATOM     37  H5  UNL     1       1.448  -0.773  16.594  1.00  0.00     0.203 HD
ENDBRANCH  28  30
ENDBRANCH  26  28
ENDBRANCH  25  26
ENDBRANCH  24  25
ENDBRANCH  22  24
ENDBRANCH  14  22
TORSDOF 7
ENDMDL
MODEL 2
REMARK VINA RESULT: -9.211938191      1.863      3.332
REMARK  7 active torsions:
REMARK  status: ('A' for Active; 'I' for Inactive)
REMARK    1  A    between atoms: C7_8  and  O2_9 
REMARK    2  A    between atoms: C14_16  and  C16_18 
REMARK    3  A    between atoms: C16_18  and  C17_20 
REMARK    4  A    between atoms: C17_20  and  C18_21 
REMARK    5  A    between atoms: C18_21  and  C19_22 
REMARK    6  A    between atoms: C19_22  and  N1_24 
REMARK    7  A    between atoms: N1_24  and  C20_26 
ROOT
HETATM    1  C1  UNL     1      -1.034  -1.580  29.461  1.00  0.00     0.210 C 
HETATM    2  O1  UNL     1      -0.485  -1.473  28.297  1.00  0.00    -0.353 OA
HETATM    3  C2  UNL     1       0.057  -1.226  27.145  1.00  0.00     0.102 A 
HETATM    4  C3  UNL     1       0.248   0.096  26.749  1.00  0.00     0.047 A 
HETATM    5  C4  UNL     1       0.818   0.429  25.544  1.00  0.00    -0.048 A 
HETATM    6  C5  UNL     1       1.205  -0.595  24.717  1.00  0.00    -0.040 A 
HETATM    7  C6  UNL     1       1.026  -1.933  25.091  1.00  0.00     0.048 A 
HETATM    8  C7  UNL     1       0.460  -2.263  26.286  1.00  0.00     0.102 A 
HETATM    9  C9  UNL     1       1.876  -0.527  23.366  1.00  0.00    -0.011 C 
HETATM   10  C10 UNL     1       1.380  -1.607  22.473  1.00  0.00     0.021 C 
HETATM   11  C11 UNL     1       3.354  -0.839  23.680  1.00  0.00     0.014 C 
HETATM   12  C12 UNL     1       4.313   0.066  23.005  1.00  0.00     0.002 C 
HETATM   13  C13 UNL     1       3.815   0.404  21.630  1.00  0.00     0.017 C 
HETATM   14  C14 UNL     1       2.562   1.262  21.685  1.00  0.00     0.021 C 
HETATM   15  C15 UNL     1       3.092   2.682  21.946  1.00  0.00     0.024 C 
HETATM   16  C21 UNL     1       1.782   0.871  22.871  1.00  0.00     0.014 C 
HETATM   17  C22 UNL     1       0.395   1.489  22.929  1.00  0.00     0.007 C 
HETATM   18  C23 UNL     1       0.165   2.357  24.146  1.00  0.00     0.005 C 
HETATM   19  C24 UNL     1       0.907   1.920  25.353  1.00  0.00     0.039 C 
ENDROOT
BRANCH   8  20
HETATM   20  O2  UNL     1       0.263  -3.579  26.695  1.00  0.00    -0.353 OA
HETATM   21  C8  UNL     1      -0.813  -4.388  26.277  1.00  0.00     0.210 C 
ENDBRANCH   8  20
BRANCH  14  22
HETATM   22  C16 UNL     1       1.901   1.326  20.358  1.00  0.00     0.135 C 
HETATM   23  O3  UNL     1       1.236   2.247  19.924  1.00  0.00    -0.297 OA
BRANCH  22  24
HETATM   24  C17 UNL     1       2.034   0.171  19.436  1.00  0.00     0.082 C 
BRANCH  24  25
HETATM   25  C18 UNL     1       2.486   0.370  18.064  1.00  0.00     0.049 C 
BRANCH  25  26
HETATM   26  C19 UNL     1       3.565  -0.476  17.485  1.00  0.00     0.197 C 
HETATM   27 CL1  UNL     1       5.061  -0.585  18.380  1.00  0.00    -0.102 Cl
BRANCH  26  28
HETATM   28  N1  UNL     1       3.006  -1.847  17.455  1.00  0.00    -0.206 N 
ATOM     29  H1  UNL     1       3.196  -2.474  18.237  1.00  0.00     0.179 HD
BRANCH  28  30
HETATM   30  C20 UNL     1       2.288  -2.272  16.476  1.00  0.00     0.708 A 
HETATM   31  N2  UNL     1       2.791  -2.599  15.273  1.00  0.00    -0.118 N 
HETATM   32  N3  UNL     1       1.764  -2.984  14.539  1.00  0.00    -0.212 N 
ATOM     33  H2  UNL     1       3.769  -2.558  14.985  1.00  0.00     0.207 HD
HETATM   34  N4  UNL     1       0.638  -2.911  15.230  1.00  0.00     0.009 NA
ATOM     35  H3  UNL     1       1.829  -3.294  13.570  1.00  0.00     0.206 HD
HETATM   36  N5  UNL     1       0.963  -2.469  16.438  1.00  0.00    -0.114 N 
ATOM     37  H5  UNL     1       0.315  -2.306  17.208  1.00  0.00     0.203 HD
ENDBRANCH  28  30
ENDBRANCH  26  28
ENDBRANCH  25  26
ENDBRANCH  24  25
ENDBRANCH  22  24
ENDBRANCH  14  22
TORSDOF 7
ENDMDL
MODEL 3
REMARK VINA RESULT: -9.002214139      2.272      3.992
REMARK  7 active torsions:
REMARK  status: ('A' for Active; 'I' for Inactive)
REMARK    1  A    between atoms: C7_8  and  O2_9 
REMARK    2  A    between atoms: C14_16  and  C16_18 
REMARK    3  A    between atoms: C16_18  and  C17_20 
REMARK    4  A    between atoms: C17_20  and  C18_21 
REMARK    5  A    between atoms: C18_21  and  C19_22 
REMARK    6  A    between atoms: C19_22  and  N1_24 
REMARK    7  A    between atoms: N1_24  and  C20_26 
ROOT
HETATM    1  C1  UNL     1      -0.999  -1.280  29.474  1.00  0.00     0.210 C 
HETATM    2  O1  UNL     1      -0.445  -1.225  28.309  1.00  0.00    -0.353 OA
HETATM    3  C2  UNL     1       0.099  -1.029  27.148  1.00  0.00     0.102 A 
HETATM    4  C3  UNL     1       0.264   0.273  26.681  1.00  0.00     0.047 A 
HETATM    5  C4  UNL     1       0.834   0.552  25.463  1.00  0.00    -0.048 A 
HETATM    6  C5  UNL     1       1.248  -0.507  24.695  1.00  0.00    -0.040 A 
HETATM    7  C6  UNL     1       1.095  -1.826  25.141  1.00  0.00     0.048 A 
HETATM    8  C7  UNL     1       0.529  -2.102  26.349  1.00  0.00     0.102 A 
HETATM    9  C9  UNL     1       1.925  -0.498  23.345  1.00  0.00    -0.011 C 
HETATM   10  C10 UNL     1       1.458  -1.635  22.511  1.00  0.00     0.021 C 
HETATM   11  C11 UNL     1       3.407  -0.761  23.683  1.00  0.00     0.014 C 
HETATM   12  C12 UNL     1       4.352   0.127  22.965  1.00  0.00     0.002 C 
HETATM   13  C13 UNL     1       3.854   0.379  21.571  1.00  0.00     0.017 C 
HETATM   14  C14 UNL     1       2.584   1.212  21.573  1.00  0.00     0.021 C 
HETATM   15  C15 UNL     1       3.081   2.654  21.759  1.00  0.00     0.024 C 
HETATM   16  C21 UNL     1       1.805   0.869  22.775  1.00  0.00     0.014 C 
HETATM   17  C22 UNL     1       0.405   1.459  22.792  1.00  0.00     0.007 C 
HETATM   18  C23 UNL     1       0.149   2.387  23.959  1.00  0.00     0.005 C 
HETATM   19  C24 UNL     1       0.893   2.032  25.192  1.00  0.00     0.039 C 
ENDROOT
BRANCH   8  20
HETATM   20  O2  UNL     1       0.357  -3.398  26.828  1.00  0.00    -0.353 OA
HETATM   21  C8  UNL     1      -0.625  -4.294  26.360  1.00  0.00     0.210 C 
ENDBRANCH   8  20
BRANCH  14  22
HETATM   22  C16 UNL     1       1.930   1.189  20.241  1.00  0.00     0.135 C 
HETATM   23  O3  UNL     1       1.364   2.118  19.697  1.00  0.00    -0.297 OA
BRANCH  22  24
HETATM   24  C17 UNL     1       1.938  -0.073  19.461  1.00  0.00     0.082 C 
BRANCH  24  25
HETATM   25  C18 UNL     1       2.222  -0.056  18.031  1.00  0.00     0.049 C 
BRANCH  25  26
HETATM   26  C19 UNL     1       2.692  -1.282  17.331  1.00  0.00     0.197 C 
HETATM   27 CL1  UNL     1       1.609  -2.000  16.162  1.00  0.00    -0.102 Cl
BRANCH  26  28
HETATM   28  N1  UNL     1       3.889  -0.856  16.570  1.00  0.00    -0.206 N 
ATOM     29  H1  UNL     1       3.822  -0.763  15.557  1.00  0.00     0.179 HD
BRANCH  28  30
HETATM   30  C20 UNL     1       5.010  -0.598  17.147  1.00  0.00     0.708 A 
HETATM   31  N2  UNL     1       6.086  -0.119  16.498  1.00  0.00    -0.118 N 
HETATM   32  N3  UNL     1       7.033   0.014  17.407  1.00  0.00    -0.212 N 
ATOM     33  H2  UNL     1       6.156   0.099  15.503  1.00  0.00     0.207 HD
HETATM   34  N4  UNL     1       6.598  -0.363  18.599  1.00  0.00     0.009 NA
ATOM     35  H3  UNL     1       7.974   0.359  17.217  1.00  0.00     0.206 HD
HETATM   36  N5  UNL     1       5.337  -0.744  18.438  1.00  0.00    -0.114 N 
ATOM     37  H5  UNL     1       4.720  -1.089  19.173  1.00  0.00     0.203 HD
ENDBRANCH  28  30
ENDBRANCH  26  28
ENDBRANCH  25  26
ENDBRANCH  24  25
ENDBRANCH  22  24
ENDBRANCH  14  22
TORSDOF 7
ENDMDL
MODEL 4
REMARK VINA RESULT: -8.908749945      2.506      4.033
REMARK  7 active torsions:
REMARK  status: ('A' for Active; 'I' for Inactive)
REMARK    1  A    between atoms: C7_8  and  O2_9 
REMARK    2  A    between atoms: C14_16  and  C16_18 
REMARK    3  A    between atoms: C16_18  and  C17_20 
REMARK    4  A    between atoms: C17_20  and  C18_21 
REMARK    5  A    between atoms: C18_21  and  C19_22 
REMARK    6  A    between atoms: C19_22  and  N1_24 
REMARK    7  A    between atoms: N1_24  and  C20_26 
ROOT
HETATM    1  C1  UNL     1      -1.910  -5.198  27.110  1.00  0.00     0.210 C 
HETATM    2  O1  UNL     1      -1.195  -4.543  26.257  1.00  0.00    -0.353 OA
HETATM    3  C2  UNL     1      -0.526  -3.767  25.462  1.00  0.00     0.102 A 
HETATM    4  C3  UNL     1      -0.625  -2.385  25.610  1.00  0.00     0.047 A 
HETATM    5  C4  UNL     1       0.056  -1.506  24.804  1.00  0.00    -0.048 A 
HETATM    6  C5  UNL     1       0.858  -2.031  23.823  1.00  0.00    -0.040 A 
HETATM    7  C6  UNL     1       0.977  -3.417  23.651  1.00  0.00     0.048 A 
HETATM    8  C7  UNL     1       0.300  -4.288  24.451  1.00  0.00     0.102 A 
HETATM    9  C9  UNL     1       1.734  -1.315  22.823  1.00  0.00    -0.011 C 
HETATM   10  C10 UNL     1       1.731  -2.020  21.515  1.00  0.00     0.021 C 
HETATM   11  C11 UNL     1       3.152  -1.462  23.415  1.00  0.00     0.014 C 
HETATM   12  C12 UNL     1       3.944  -0.210  23.390  1.00  0.00     0.002 C 
HETATM   13  C13 UNL     1       3.649   0.554  22.131  1.00  0.00     0.017 C 
HETATM   14  C14 UNL     1       2.226   1.085  22.120  1.00  0.00     0.021 C 
HETATM   15  C15 UNL     1       2.292   2.353  22.987  1.00  0.00     0.024 C 
HETATM   16  C21 UNL     1       1.366   0.124  22.830  1.00  0.00     0.014 C 
HETATM   17  C22 UNL     1      -0.121   0.414  22.702  1.00  0.00     0.007 C 
HETATM   18  C23 UNL     1      -0.808   0.672  24.024  1.00  0.00     0.005 C 
HETATM   19  C24 UNL     1      -0.225  -0.072  25.167  1.00  0.00     0.039 C 
ENDROOT
BRANCH   8  20
HETATM   20  O2  UNL     1       0.389  -5.670  24.314  1.00  0.00    -0.353 OA
HETATM   21  C8  UNL     1       1.014  -6.323  23.231  1.00  0.00     0.210 C 
ENDBRANCH   8  20
BRANCH  14  22
HETATM   22  C16 UNL     1       1.843   1.554  20.765  1.00  0.00     0.135 C 
HETATM   23  O3  UNL     1       0.910   2.284  20.489  1.00  0.00    -0.297 OA
BRANCH  22  24
HETATM   24  C17 UNL     1       2.648   1.110  19.600  1.00  0.00     0.082 C 
BRANCH  24  25
HETATM   25  C18 UNL     1       2.067   0.227  18.595  1.00  0.00     0.049 C 
BRANCH  25  26
HETATM   26  C19 UNL     1       2.876  -0.854  17.969  1.00  0.00     0.197 C 
HETATM   27 CL1  UNL     1       4.229  -1.473  18.886  1.00  0.00    -0.102 Cl
BRANCH  26  28
HETATM   28  N1  UNL     1       1.940  -1.989  17.805  1.00  0.00    -0.206 N 
ATOM     29  H1  UNL     1       1.679  -2.536  18.626  1.00  0.00     0.179 HD
BRANCH  28  30
HETATM   30  C20 UNL     1       1.445  -2.309  16.661  1.00  0.00     0.708 A 
HETATM   31  N2  UNL     1       1.704  -3.472  16.038  1.00  0.00    -0.118 N 
HETATM   32  N3  UNL     1       1.030  -3.438  14.904  1.00  0.00    -0.212 N 
ATOM     33  H2  UNL     1       2.301  -4.228  16.374  1.00  0.00     0.207 HD
HETATM   34  N4  UNL     1       0.360  -2.302  14.789  1.00  0.00     0.009 NA
ATOM     35  H3  UNL     1       1.026  -4.185  14.210  1.00  0.00     0.206 HD
HETATM   36  N5  UNL     1       0.617  -1.599  15.884  1.00  0.00    -0.114 N 
ATOM     37  H5  UNL     1       0.246  -0.673  16.098  1.00  0.00     0.203 HD
ENDBRANCH  28  30
ENDBRANCH  26  28
ENDBRANCH  25  26
ENDBRANCH  24  25
ENDBRANCH  22  24
ENDBRANCH  14  22
TORSDOF 7
ENDMDL
MODEL 5
REMARK VINA RESULT: -8.812640672      2.657      4.325
REMARK  7 active torsions:
REMARK  status: ('A' for Active; 'I' for Inactive)
REMARK    1  A    between atoms: C7_8  and  O2_9 
REMARK    2  A    between atoms: C14_16  and  C16_18 
REMARK    3  A    between atoms: C16_18  and  C17_20 
REMARK    4  A    between atoms: C17_20  and  C18_21 
REMARK    5  A    between atoms: C18_21  and  C19_22 
REMARK    6  A    between atoms: C19_22  and  N1_24 
REMARK    7  A    between atoms: N1_24  and  C20_26 
ROOT
HETATM    1  C1  UNL     1      -1.776  -4.853  27.383  1.00  0.00     0.210 C 
HETATM    2  O1  UNL     1      -1.062  -4.241  26.499  1.00  0.00    -0.353 OA
HETATM    3  C2  UNL     1      -0.397  -3.507  25.662  1.00  0.00     0.102 A 
HETATM    4  C3  UNL     1      -0.528  -2.120  25.715  1.00  0.00     0.047 A 
HETATM    5  C4  UNL     1       0.148  -1.283  24.861  1.00  0.00    -0.048 A 
HETATM    6  C5  UNL     1       0.975  -1.856  23.928  1.00  0.00    -0.040 A 
HETATM    7  C6  UNL     1       1.126  -3.247  23.853  1.00  0.00     0.048 A 
HETATM    8  C7  UNL     1       0.455  -4.077  24.700  1.00  0.00     0.102 A 
HETATM    9  C9  UNL     1       1.852  -1.190  22.895  1.00  0.00    -0.011 C 
HETATM   10  C10 UNL     1       1.884  -1.981  21.638  1.00  0.00     0.021 C 
HETATM   11  C11 UNL     1       3.263  -1.265  23.515  1.00  0.00     0.014 C 
HETATM   12  C12 UNL     1       4.029  -0.001  23.416  1.00  0.00     0.002 C 
HETATM   13  C13 UNL     1       3.738   0.670  22.104  1.00  0.00     0.017 C 
HETATM   14  C14 UNL     1       2.304   1.168  22.037  1.00  0.00     0.021 C 
HETATM   15  C15 UNL     1       2.330   2.492  22.818  1.00  0.00     0.024 C 
HETATM   16  C21 UNL     1       1.453   0.238  22.799  1.00  0.00     0.014 C 
HETATM   17  C22 UNL     1      -0.037   0.487  22.631  1.00  0.00     0.007 C 
HETATM   18  C23 UNL     1      -0.750   0.818  23.922  1.00  0.00     0.005 C 
HETATM   19  C24 UNL     1      -0.168   0.166  25.121  1.00  0.00     0.039 C 
ENDROOT
BRANCH   8  20
HETATM   20  O2  UNL     1       0.575  -5.463  24.658  1.00  0.00    -0.353 OA
HETATM   21  C8  UNL     1       1.722  -6.174  25.064  1.00  0.00     0.210 C 
ENDBRANCH   8  20
BRANCH  14  22
HETATM   22  C16 UNL     1       1.932   1.536  20.649  1.00  0.00     0.135 C 
HETATM   23  O3  UNL     1       1.023   2.271  20.313  1.00  0.00    -0.297 OA
BRANCH  22  24
HETATM   24  C17 UNL     1       2.718   0.971  19.524  1.00  0.00     0.082 C 
BRANCH  24  25
HETATM   25  C18 UNL     1       2.069   0.147  18.511  1.00  0.00     0.049 C 
BRANCH  25  26
HETATM   26  C19 UNL     1       2.659  -1.155  18.093  1.00  0.00     0.197 C 
HETATM   27 CL1  UNL     1       1.593  -2.539  18.055  1.00  0.00    -0.102 Cl
BRANCH  26  28
HETATM   28  N1  UNL     1       3.105  -0.944  16.697  1.00  0.00    -0.206 N 
ATOM     29  H1  UNL     1       2.429  -1.055  15.941  1.00  0.00     0.179 HD
BRANCH  28  30
HETATM   30  C20 UNL     1       4.318  -0.626  16.406  1.00  0.00     0.708 A 
HETATM   31  N2  UNL     1       5.350  -0.781  17.255  1.00  0.00    -0.118 N 
HETATM   32  N3  UNL     1       6.419  -0.347  16.613  1.00  0.00    -0.212 N 
ATOM     33  H2  UNL     1       5.314  -1.157  18.203  1.00  0.00     0.207 HD
HETATM   34  N4  UNL     1       6.101   0.073  15.399  1.00  0.00     0.009 NA
ATOM     35  H3  UNL     1       7.362  -0.337  17.001  1.00  0.00     0.206 HD
HETATM   36  N5  UNL     1       4.792  -0.102  15.269  1.00  0.00    -0.114 N 
ATOM     37  H5  UNL     1       4.240   0.125  14.442  1.00  0.00     0.203 HD
ENDBRANCH  28  30
ENDBRANCH  26  28
ENDBRANCH  25  26
ENDBRANCH  24  25
ENDBRANCH  22  24
ENDBRANCH  14  22
TORSDOF 7
ENDMDL
