MODEL 1
REMARK VINA RESULT: -8.057508645      0.000      0.000
REMARK  9 active torsions:
REMARK  status: ('A' for Active; 'I' for Inactive)
REMARK    1  A    between atoms: C3_3  and  C4_4 
REMARK    2  A    between atoms: C5_5  and  C6_6 
REMARK    3  A    between atoms: C6_6  and  O1_7 
REMARK    4  A    between atoms: O1_7  and  C7_8 
REMARK    5  A    between atoms: C7_8  and  C8_10 
REMARK    6  A    between atoms: C8_10  and  C9_11 
REMARK    7  A    between atoms: C15_18  and  O3_19 
REMARK    8  A    between atoms: C16_21  and  O4_22 
REMARK    9  A    between atoms: C21_28  and  O5_29 
ROOT
HETATM    1  C4  UNL     1       2.070  -1.713  19.785  1.00  0.00    -0.016 A 
HETATM    2  C5  UNL     1       2.107  -1.042  18.594  1.00  0.00    -0.022 A 
HETATM    3  C11 UNL     1       2.157   0.358  18.592  1.00  0.00     0.032 A 
HETATM    4  C12 UNL     1       2.171   1.113  19.728  1.00  0.00     0.045 A 
HETATM    5 BR1  UNL     1       2.241   3.014  19.715  1.00  0.00    -0.048 Br
HETATM    6  C13 UNL     1       2.135   0.440  20.926  1.00  0.00     0.100 A 
HETATM    7  C14 UNL     1       2.084  -0.944  20.942  1.00  0.00     0.026 A 
HETATM    8  C15 UNL     1       2.042  -1.509  22.319  1.00  0.00     0.136 A 
HETATM    9  C16 UNL     1       1.115  -2.145  23.090  1.00  0.00     0.111 A 
HETATM   10  C17 UNL     1       1.371  -2.284  24.601  1.00  0.00     0.043 C 
HETATM   11  C18 UNL     1       0.357  -1.285  25.143  1.00  0.00     0.009 C 
HETATM   12  C19 UNL     1       0.073  -0.441  23.921  1.00  0.00     0.011 C 
HETATM   13  C20 UNL     1       0.566   1.008  24.041  1.00  0.00     0.075 C 
HETATM   14  C21 UNL     1       1.806   0.464  23.368  1.00  0.00     0.184 C 
HETATM   15  O6  UNL     1       2.148   1.149  22.147  1.00  0.00    -0.311 OA
HETATM   16  C23 UNL     1       1.028  -0.703  22.935  1.00  0.00     0.093 A 
ENDROOT
BRANCH   2  17
HETATM   17  C6  UNL     1       2.100  -1.726  17.276  1.00  0.00     0.218 C 
BRANCH  17  18
HETATM   18  O1  UNL     1       3.425  -2.166  16.959  1.00  0.00    -0.317 OA
BRANCH  18  19
HETATM   19  C7  UNL     1       4.307  -1.261  16.378  1.00  0.00     0.259 C 
HETATM   20  O2  UNL     1       3.936  -0.515  15.445  1.00  0.00    -0.265 OA
BRANCH  19  21
HETATM   21  C8  UNL     1       5.678  -1.214  16.897  1.00  0.00     0.111 C 
BRANCH  21  22
HETATM   22  C9  UNL     1       5.864  -0.124  17.935  1.00  0.00     0.005 C 
HETATM   23  C10 UNL     1       5.654  -0.721  19.288  1.00  0.00     0.005 C 
ENDBRANCH  21  22
ENDBRANCH  19  21
ENDBRANCH  18  19
ENDBRANCH  17  18
ENDBRANCH   2  17
BRANCH   1  24
HETATM   24  C3  UNL     1       2.021  -3.137  19.925  1.00  0.00     0.008 C 
HETATM   25  C2  UNL     1       2.872  -4.075  20.110  1.00  0.00    -0.030 C 
HETATM   26  C1  UNL     1       2.327  -5.502  20.200  1.00  0.00     0.036 C 
ENDBRANCH   1  24
BRANCH   8  27
HETATM   27  O3  UNL     1       3.384  -1.568  22.808  1.00  0.00    -0.381 OA
ATOM     28  H3  UNL     1       3.677  -2.470  22.747  1.00  0.00     0.211 HD
ENDBRANCH   8  27
BRANCH   9  29
HETATM   29  O4  UNL     1      -0.071  -2.819  22.754  1.00  0.00    -0.385 OA
ATOM     30  H4  UNL     1      -0.236  -3.553  22.174  1.00  0.00     0.210 HD
ENDBRANCH   9  29
BRANCH  14  31
HETATM   31  O5  UNL     1       2.823   0.319  24.267  1.00  0.00    -0.358 OA
HETATM   32  C22 UNL     1       3.680   1.387  24.189  1.00  0.00     0.205 C 
ENDBRANCH  14  31
TORSDOF 9
ENDMDL
MODEL 2
REMARK VINA RESULT: -7.974759289      1.654      2.630
REMARK  9 active torsions:
REMARK  status: ('A' for Active; 'I' for Inactive)
REMARK    1  A    between atoms: C3_3  and  C4_4 
REMARK    2  A    between atoms: C5_5  and  C6_6 
REMARK    3  A    between atoms: C6_6  and  O1_7 
REMARK    4  A    between atoms: O1_7  and  C7_8 
REMARK    5  A    between atoms: C7_8  and  C8_10 
REMARK    6  A    between atoms: C8_10  and  C9_11 
REMARK    7  A    between atoms: C15_18  and  O3_19 
REMARK    8  A    between atoms: C16_21  and  O4_22 
REMARK    9  A    between atoms: C21_28  and  O5_29 
ROOT
HETATM    1  C4  UNL     1       1.872  -1.959  20.790  1.00  0.00    -0.016 A 
HETATM    2  C5  UNL     1       2.106  -1.573  19.500  1.00  0.00    -0.022 A 
HETATM    3  C11 UNL     1       2.279  -0.215  19.205  1.00  0.00     0.032 A 
HETATM    4  C12 UNL     1       2.226   0.773  20.145  1.00  0.00     0.045 A 
HETATM    5 BR1  UNL     1       2.463   2.615  19.736  1.00  0.00    -0.048 Br
HETATM    6  C13 UNL     1       1.991   0.387  21.443  1.00  0.00     0.100 A 
HETATM    7  C14 UNL     1       1.818  -0.953  21.747  1.00  0.00     0.026 A 
HETATM    8  C15 UNL     1       1.566  -1.193  23.195  1.00  0.00     0.136 A 
HETATM    9  C16 UNL     1       0.502  -1.584  23.953  1.00  0.00     0.111 A 
HETATM   10  C17 UNL     1       0.567  -1.398  25.480  1.00  0.00     0.043 C 
HETATM   11  C18 UNL     1      -0.413  -0.245  25.656  1.00  0.00     0.009 C 
HETATM   12  C19 UNL     1      -0.477   0.321  24.255  1.00  0.00     0.011 C 
HETATM   13  C20 UNL     1       0.124   1.728  24.127  1.00  0.00     0.075 C 
HETATM   14  C21 UNL     1       1.381   0.974  23.758  1.00  0.00     0.184 C 
HETATM   15  O6  UNL     1       1.923   1.349  22.475  1.00  0.00    -0.311 OA
HETATM   16  C23 UNL     1       0.561  -0.211  23.484  1.00  0.00     0.093 A 
ENDROOT
BRANCH   2  17
HETATM   17  C6  UNL     1       2.193  -2.532  18.368  1.00  0.00     0.218 C 
BRANCH  17  18
HETATM   18  O1  UNL     1       1.343  -2.092  17.303  1.00  0.00    -0.317 OA
BRANCH  18  19
HETATM   19  C7  UNL     1       1.770  -2.276  15.992  1.00  0.00     0.259 C 
HETATM   20  O2  UNL     1       2.980  -2.450  15.731  1.00  0.00    -0.265 OA
BRANCH  19  21
HETATM   21  C8  UNL     1       0.753  -2.258  14.934  1.00  0.00     0.111 C 
BRANCH  21  22
HETATM   22  C9  UNL     1       0.797  -3.505  14.072  1.00  0.00     0.005 C 
HETATM   23  C10 UNL     1      -0.189  -3.344  12.962  1.00  0.00     0.005 C 
ENDBRANCH  21  22
ENDBRANCH  19  21
ENDBRANCH  18  19
ENDBRANCH  17  18
ENDBRANCH   2  17
BRANCH   1  24
HETATM   24  C3  UNL     1       1.682  -3.309  21.224  1.00  0.00     0.008 C 
HETATM   25  C2  UNL     1       2.439  -4.280  21.575  1.00  0.00    -0.030 C 
HETATM   26  C1  UNL     1       1.753  -5.589  21.974  1.00  0.00     0.036 C 
ENDBRANCH   1  24
BRANCH   8  27
HETATM   27  O3  UNL     1       2.831  -1.222  23.860  1.00  0.00    -0.381 OA
ATOM     28  H3  UNL     1       2.716  -0.833  24.720  1.00  0.00     0.211 HD
ENDBRANCH   8  27
BRANCH   9  29
HETATM   29  O4  UNL     1      -0.691  -2.244  23.615  1.00  0.00    -0.385 OA
ATOM     30  H4  UNL     1      -1.258  -2.818  24.116  1.00  0.00     0.210 HD
ENDBRANCH   9  29
BRANCH  14  31
HETATM   31  O5  UNL     1       2.270   0.973  24.795  1.00  0.00    -0.358 OA
HETATM   32  C22 UNL     1       3.275   1.877  24.558  1.00  0.00     0.205 C 
ENDBRANCH  14  31
TORSDOF 9
ENDMDL
MODEL 3
REMARK VINA RESULT: -7.427722521      1.732      2.320
REMARK  9 active torsions:
REMARK  status: ('A' for Active; 'I' for Inactive)
REMARK    1  A    between atoms: C3_3  and  C4_4 
REMARK    2  A    between atoms: C5_5  and  C6_6 
REMARK    3  A    between atoms: C6_6  and  O1_7 
REMARK    4  A    between atoms: O1_7  and  C7_8 
REMARK    5  A    between atoms: C7_8  and  C8_10 
REMARK    6  A    between atoms: C8_10  and  C9_11 
REMARK    7  A    between atoms: C15_18  and  O3_19 
REMARK    8  A    between atoms: C16_21  and  O4_22 
REMARK    9  A    between atoms: C21_28  and  O5_29 
ROOT
HETATM    1  C4  UNL     1       2.887  -2.271  21.128  1.00  0.00    -0.016 A 
HETATM    2  C5  UNL     1       3.581  -1.333  20.415  1.00  0.00    -0.022 A 
HETATM    3  C11 UNL     1       3.667  -0.021  20.900  1.00  0.00     0.032 A 
HETATM    4  C12 UNL     1       3.089   0.391  22.065  1.00  0.00     0.045 A 
HETATM    5 BR1  UNL     1       3.212   2.174  22.716  1.00  0.00    -0.048 Br
HETATM    6  C13 UNL     1       2.391  -0.551  22.783  1.00  0.00     0.100 A 
HETATM    7  C14 UNL     1       2.298  -1.851  22.314  1.00  0.00     0.026 A 
HETATM    8  C15 UNL     1       1.503  -2.736  23.208  1.00  0.00     0.136 A 
HETATM    9  C16 UNL     1       0.287  -3.351  23.151  1.00  0.00     0.111 A 
HETATM   10  C17 UNL     1      -0.317  -3.930  24.443  1.00  0.00     0.043 C 
HETATM   11  C18 UNL     1      -1.433  -2.925  24.697  1.00  0.00     0.009 C 
HETATM   12  C19 UNL     1      -0.987  -1.751  23.856  1.00  0.00     0.011 C 
HETATM   13  C20 UNL     1      -0.593  -0.514  24.676  1.00  0.00     0.075 C 
HETATM   14  C21 UNL     1       0.797  -1.102  24.580  1.00  0.00     0.184 C 
HETATM   15  O6  UNL     1       1.765  -0.205  24.000  1.00  0.00    -0.311 OA
HETATM   16  C23 UNL     1       0.341  -1.932  23.459  1.00  0.00     0.093 A 
ENDROOT
BRANCH   2  17
HETATM   17  C6  UNL     1       4.266  -1.630  19.131  1.00  0.00     0.218 C 
BRANCH  17  18
HETATM   18  O1  UNL     1       3.642  -0.892  18.075  1.00  0.00    -0.317 OA
BRANCH  18  19
HETATM   19  C7  UNL     1       3.327  -1.556  16.894  1.00  0.00     0.259 C 
HETATM   20  O2  UNL     1       2.573  -2.554  16.903  1.00  0.00    -0.265 OA
BRANCH  19  21
HETATM   21  C8  UNL     1       3.908  -1.046  15.647  1.00  0.00     0.111 C 
BRANCH  21  22
HETATM   22  C9  UNL     1       5.424  -1.031  15.683  1.00  0.00     0.005 C 
HETATM   23  C10 UNL     1       5.902   0.133  14.878  1.00  0.00     0.005 C 
ENDBRANCH  21  22
ENDBRANCH  19  21
ENDBRANCH  18  19
ENDBRANCH  17  18
ENDBRANCH   2  17
BRANCH   1  24
HETATM   24  C3  UNL     1       2.727  -3.641  20.747  1.00  0.00     0.008 C 
HETATM   25  C2  UNL     1       2.008  -4.287  19.907  1.00  0.00    -0.030 C 
HETATM   26  C1  UNL     1       2.192  -5.804  19.855  1.00  0.00     0.036 C 
ENDBRANCH   1  24
BRANCH   8  27
HETATM   27  O3  UNL     1       2.366  -3.192  24.253  1.00  0.00    -0.381 OA
ATOM     28  H3  UNL     1       2.663  -2.431  24.738  1.00  0.00     0.211 HD
ENDBRANCH   8  27
BRANCH   9  29
HETATM   29  O4  UNL     1      -0.551  -3.659  22.066  1.00  0.00    -0.385 OA
ATOM     30  H4  UNL     1      -0.356  -3.940  21.179  1.00  0.00     0.210 HD
ENDBRANCH   9  29
BRANCH  14  31
HETATM   31  O5  UNL     1       1.163  -1.681  25.761  1.00  0.00    -0.358 OA
HETATM   32  C22 UNL     1       1.666  -0.733  26.616  1.00  0.00     0.205 C 
ENDBRANCH  14  31
TORSDOF 9
ENDMDL
MODEL 4
REMARK VINA RESULT: -7.415939677      2.465      4.184
REMARK  9 active torsions:
REMARK  status: ('A' for Active; 'I' for Inactive)
REMARK    1  A    between atoms: C3_3  and  C4_4 
REMARK    2  A    between atoms: C5_5  and  C6_6 
REMARK    3  A    between atoms: C6_6  and  O1_7 
REMARK    4  A    between atoms: O1_7  and  C7_8 
REMARK    5  A    between atoms: C7_8  and  C8_10 
REMARK    6  A    between atoms: C8_10  and  C9_11 
REMARK    7  A    between atoms: C15_18  and  O3_19 
REMARK    8  A    between atoms: C16_21  and  O4_22 
REMARK    9  A    between atoms: C21_28  and  O5_29 
ROOT
HETATM    1  C4  UNL     1       2.551  -2.962  22.071  1.00  0.00    -0.016 A 
HETATM    2  C5  UNL     1       2.632  -3.407  20.781  1.00  0.00    -0.022 A 
HETATM    3  C11 UNL     1       2.540  -2.490  19.726  1.00  0.00     0.032 A 
HETATM    4  C12 UNL     1       2.368  -1.148  19.907  1.00  0.00     0.045 A 
HETATM    5 BR1  UNL     1       2.244   0.090  18.469  1.00  0.00    -0.048 Br
HETATM    6  C13 UNL     1       2.286  -0.699  21.203  1.00  0.00     0.100 A 
HETATM    7  C14 UNL     1       2.376  -1.596  22.255  1.00  0.00     0.026 A 
HETATM    8  C15 UNL     1       2.261  -0.942  23.588  1.00  0.00     0.136 A 
HETATM    9  C16 UNL     1       1.334  -0.911  24.587  1.00  0.00     0.111 A 
HETATM   10  C17 UNL     1       1.458   0.162  25.685  1.00  0.00     0.043 C 
HETATM   11  C18 UNL     1       0.300   1.076  25.305  1.00  0.00     0.009 C 
HETATM   12  C19 UNL     1       0.049   0.675  23.869  1.00  0.00     0.011 C 
HETATM   13  C20 UNL     1       0.378   1.777  22.852  1.00  0.00     0.075 C 
HETATM   14  C21 UNL     1       1.725   1.092  22.800  1.00  0.00     0.184 C 
HETATM   15  O6  UNL     1       2.111   0.676  21.475  1.00  0.00    -0.311 OA
HETATM   16  C23 UNL     1       1.115  -0.099  23.402  1.00  0.00     0.093 A 
ENDROOT
BRANCH   2  17
HETATM   17  C6  UNL     1       2.821  -4.837  20.425  1.00  0.00     0.218 C 
BRANCH  17  18
HETATM   18  O1  UNL     1       1.600  -5.361  19.892  1.00  0.00    -0.317 OA
BRANCH  18  19
HETATM   19  C7  UNL     1       0.873  -6.267  20.658  1.00  0.00     0.259 C 
HETATM   20  O2  UNL     1       1.238  -7.459  20.757  1.00  0.00    -0.265 OA
BRANCH  19  21
HETATM   21  C8  UNL     1      -0.329  -5.774  21.339  1.00  0.00     0.111 C 
BRANCH  21  22
HETATM   22  C9  UNL     1      -0.805  -4.447  20.780  1.00  0.00     0.005 C 
HETATM   23  C10 UNL     1      -1.054  -3.518  21.923  1.00  0.00     0.005 C 
ENDBRANCH  21  22
ENDBRANCH  19  21
ENDBRANCH  18  19
ENDBRANCH  17  18
ENDBRANCH   2  17
BRANCH   1  24
HETATM   24  C3  UNL     1       2.635  -3.791  23.234  1.00  0.00     0.008 C 
HETATM   25  C2  UNL     1       1.846  -4.579  23.864  1.00  0.00    -0.030 C 
HETATM   26  C1  UNL     1       2.404  -5.275  25.107  1.00  0.00     0.036 C 
ENDBRANCH   1  24
BRANCH   8  27
HETATM   27  O3  UNL     1       3.549  -0.429  23.937  1.00  0.00    -0.381 OA
ATOM     28  H3  UNL     1       4.149  -1.164  23.996  1.00  0.00     0.211 HD
ENDBRANCH   8  27
BRANCH   9  29
HETATM   29  O4  UNL     1       0.260  -1.765  24.890  1.00  0.00    -0.385 OA
ATOM     30  H4  UNL     1       0.234  -2.683  25.131  1.00  0.00     0.210 HD
ENDBRANCH   9  29
BRANCH  14  31
HETATM   31  O5  UNL     1       2.662   1.810  23.488  1.00  0.00    -0.358 OA
HETATM   32  C22 UNL     1       3.431   2.540  22.618  1.00  0.00     0.205 C 
ENDBRANCH  14  31
TORSDOF 9
ENDMDL
MODEL 5
REMARK VINA RESULT: -7.404453362      2.779      4.776
REMARK  9 active torsions:
REMARK  status: ('A' for Active; 'I' for Inactive)
REMARK    1  A    between atoms: C3_3  and  C4_4 
REMARK    2  A    between atoms: C5_5  and  C6_6 
REMARK    3  A    between atoms: C6_6  and  O1_7 
REMARK    4  A    between atoms: O1_7  and  C7_8 
REMARK    5  A    between atoms: C7_8  and  C8_10 
REMARK    6  A    between atoms: C8_10  and  C9_11 
REMARK    7  A    between atoms: C15_18  and  O3_19 
REMARK    8  A    between atoms: C16_21  and  O4_22 
REMARK    9  A    between atoms: C21_28  and  O5_29 
ROOT
HETATM    1  C4  UNL     1       1.973  -1.674  19.885  1.00  0.00    -0.016 A 
HETATM    2  C5  UNL     1       2.104  -2.402  18.736  1.00  0.00    -0.022 A 
HETATM    3  C11 UNL     1       2.022  -3.799  18.790  1.00  0.00     0.032 A 
HETATM    4  C12 UNL     1       1.816  -4.498  19.944  1.00  0.00     0.045 A 
HETATM    5 BR1  UNL     1       1.705  -6.395  20.009  1.00  0.00    -0.048 Br
HETATM    6  C13 UNL     1       1.684  -3.767  21.101  1.00  0.00     0.100 A 
HETATM    7  C14 UNL     1       1.763  -2.385  21.060  1.00  0.00     0.026 A 
HETATM    8  C15 UNL     1       1.606  -1.754  22.400  1.00  0.00     0.136 A 
HETATM    9  C16 UNL     1       2.419  -1.095  23.275  1.00  0.00     0.111 A 
HETATM   10  C17 UNL     1       1.936  -0.878  24.720  1.00  0.00     0.043 C 
HETATM   11  C18 UNL     1       2.832  -1.865  25.458  1.00  0.00     0.009 C 
HETATM   12  C19 UNL     1       3.280  -2.772  24.335  1.00  0.00     0.011 C 
HETATM   13  C20 UNL     1       2.742  -4.206  24.444  1.00  0.00     0.075 C 
HETATM   14  C21 UNL     1       1.633  -3.676  23.563  1.00  0.00     0.184 C 
HETATM   15  O6  UNL     1       1.467  -4.415  22.337  1.00  0.00    -0.311 OA
HETATM   16  C23 UNL     1       2.495  -2.545  23.202  1.00  0.00     0.093 A 
ENDROOT
BRANCH   2  17
HETATM   17  C6  UNL     1       2.330  -1.784  17.404  1.00  0.00     0.218 C 
BRANCH  17  18
HETATM   18  O1  UNL     1       2.134  -2.768  16.382  1.00  0.00    -0.317 OA
BRANCH  18  19
HETATM   19  C7  UNL     1       1.113  -2.573  15.457  1.00  0.00     0.259 C 
HETATM   20  O2  UNL     1       0.246  -1.690  15.637  1.00  0.00    -0.265 OA
BRANCH  19  21
HETATM   21  C8  UNL     1       1.091  -3.438  14.272  1.00  0.00     0.111 C 
BRANCH  21  22
HETATM   22  C9  UNL     1      -0.031  -3.077  13.318  1.00  0.00     0.005 C 
HETATM   23  C10 UNL     1       0.107  -3.917  12.090  1.00  0.00     0.005 C 
ENDBRANCH  21  22
ENDBRANCH  19  21
ENDBRANCH  18  19
ENDBRANCH  17  18
ENDBRANCH   2  17
BRANCH   1  24
HETATM   24  C3  UNL     1       2.033  -0.246  19.966  1.00  0.00     0.008 C 
HETATM   25  C2  UNL     1       2.955   0.641  19.948  1.00  0.00    -0.030 C 
HETATM   26  C1  UNL     1       2.519   2.102  20.068  1.00  0.00     0.036 C 
ENDBRANCH   1  24
BRANCH   8  27
HETATM   27  O3  UNL     1       0.207  -1.649  22.673  1.00  0.00    -0.381 OA
ATOM     28  H3  UNL     1       0.051  -0.802  23.075  1.00  0.00     0.211 HD
ENDBRANCH   8  27
BRANCH   9  29
HETATM   29  O4  UNL     1       3.657  -0.457  23.096  1.00  0.00    -0.385 OA
ATOM     30  H4  UNL     1       4.058  -0.061  22.331  1.00  0.00     0.210 HD
ENDBRANCH   9  29
BRANCH  14  31
HETATM   31  O5  UNL     1       0.493  -3.471  24.287  1.00  0.00    -0.358 OA
HETATM   32  C22 UNL     1      -0.363  -4.532  24.132  1.00  0.00     0.205 C 
ENDBRANCH  14  31
TORSDOF 9
ENDMDL
