MODEL 1
REMARK VINA RESULT: -8.266126471      0.000      0.000
REMARK  8 active torsions:
REMARK  status: ('A' for Active; 'I' for Inactive)
REMARK    1  A    between atoms: C2_2  and  O1_3 
REMARK    2  A    between atoms: O1_3  and  C3_4 
REMARK       I    between atoms: C3_4  and  N1_6 
REMARK    3  A    between atoms: C6_9  and  S1_10 
REMARK    4  A    between atoms: S1_10  and  C7_11 
REMARK    5  A    between atoms: C7_11  and  C8_12 
REMARK       I    between atoms: C8_12  and  N2_14 
REMARK    6  A    between atoms: N2_14  and  C9_16 
REMARK    7  A    between atoms: C12_19  and  N3_20 
REMARK    8  A    between atoms: N3_20  and  C13_22 
ROOT
HETATM    1  C9  UNL     1       1.947  -4.237  21.766  1.00  0.00     0.084 C 
HETATM    2  C10 UNL     1       2.001  -4.929  20.452  1.00  0.00     0.027 C 
HETATM    3  C11 UNL     1       2.159  -3.934  19.328  1.00  0.00     0.027 C 
HETATM    4  C12 UNL     1       3.279  -2.957  19.686  1.00  0.00     0.083 C 
HETATM    5  C18 UNL     1       2.751  -2.092  20.834  1.00  0.00     0.027 C 
HETATM    6  C19 UNL     1       1.625  -2.754  21.546  1.00  0.00     0.027 C 
ENDROOT
BRANCH   1   7
HETATM    7  N2  UNL     1       0.930  -4.732  22.682  1.00  0.00    -0.356 N 
HETATM    8  C8  UNL     1       1.283  -4.985  24.020  1.00  0.00     0.227 C 
HETATM    9  O3  UNL     1       2.461  -4.787  24.400  1.00  0.00    -0.273 OA
ATOM     10  H2  UNL     1      -0.023  -4.893  22.358  1.00  0.00     0.162 HD
BRANCH   8  11
HETATM   11  C7  UNL     1       0.326  -5.477  25.017  1.00  0.00     0.177 C 
BRANCH  11  12
HETATM   12  S1  UNL     1      -0.755  -4.118  25.534  1.00  0.00    -0.155 SA
BRANCH  12  13
HETATM   13  C6  UNL     1       0.089  -2.562  25.279  1.00  0.00     0.050 C 
HETATM   14  C5  UNL     1       0.072  -1.684  26.518  1.00  0.00     0.035 C 
HETATM   15  C4  UNL     1       1.006  -0.511  26.275  1.00  0.00     0.129 C 
HETATM   16  N1  UNL     1       0.815   0.071  24.960  1.00  0.00    -0.328 N 
HETATM   17  C3  UNL     1       0.927   1.481  24.851  1.00  0.00     0.362 C 
HETATM   18  C21 UNL     1       0.525  -0.704  23.788  1.00  0.00     0.129 C 
HETATM   19  O2  UNL     1       1.176   2.226  25.839  1.00  0.00    -0.238 OA
HETATM   20  C20 UNL     1      -0.539  -1.741  24.179  1.00  0.00     0.035 C 
BRANCH  17  21
HETATM   21  O1  UNL     1       0.762   2.092  23.623  1.00  0.00    -0.304 OA
BRANCH  21  22
HETATM   22  C2  UNL     1       1.821   2.303  22.709  1.00  0.00     0.176 C 
HETATM   23  C1  UNL     1       1.290   1.969  21.333  1.00  0.00     0.034 C 
ENDBRANCH  21  22
ENDBRANCH  17  21
ENDBRANCH  12  13
ENDBRANCH  11  12
ENDBRANCH   8  11
ENDBRANCH   1   7
BRANCH   4  24
HETATM   24  N3  UNL     1       3.642  -2.123  18.641  1.00  0.00    -0.370 N 
ATOM     25  H3  UNL     1       2.830  -2.033  18.031  1.00  0.00     0.161 HD
BRANCH  24  26
HETATM   26  C13 UNL     1       4.530  -1.456  18.158  1.00  0.00     0.126 A 
HETATM   27  N4  UNL     1       5.500  -0.954  18.990  1.00  0.00    -0.337 N 
HETATM   28  C14 UNL     1       6.514  -0.215  18.572  1.00  0.00     0.182 A 
ATOM     29  H4  UNL     1       5.434  -1.162  19.987  1.00  0.00     0.168 HD
HETATM   30  N5  UNL     1       6.652   0.092  17.273  1.00  0.00    -0.354 N 
HETATM   31  C15 UNL     1       5.753  -0.354  16.385  1.00  0.00     0.031 A 
ATOM     32  H5  UNL     1       7.438   0.663  16.963  1.00  0.00     0.166 HD
HETATM   33  C16 UNL     1       5.894  -0.012  14.946  1.00  0.00     0.070 C 
HETATM   34  C17 UNL     1       4.682  -1.136  16.839  1.00  0.00     0.100 A 
HETATM   35 CL1  UNL     1       3.561  -1.678  15.616  1.00  0.00    -0.078 Cl
ENDBRANCH  24  26
ENDBRANCH   4  24
TORSDOF 8
ENDMDL
MODEL 2
REMARK VINA RESULT: -8.152291028      3.377      6.978
REMARK  8 active torsions:
REMARK  status: ('A' for Active; 'I' for Inactive)
REMARK    1  A    between atoms: C2_2  and  O1_3 
REMARK    2  A    between atoms: O1_3  and  C3_4 
REMARK       I    between atoms: C3_4  and  N1_6 
REMARK    3  A    between atoms: C6_9  and  S1_10 
REMARK    4  A    between atoms: S1_10  and  C7_11 
REMARK    5  A    between atoms: C7_11  and  C8_12 
REMARK       I    between atoms: C8_12  and  N2_14 
REMARK    6  A    between atoms: N2_14  and  C9_16 
REMARK    7  A    between atoms: C12_19  and  N3_20 
REMARK    8  A    between atoms: N3_20  and  C13_22 
ROOT
HETATM    1  C9  UNL     1       0.813  -1.975  23.501  1.00  0.00     0.084 C 
HETATM    2  C10 UNL     1      -0.422  -2.687  23.081  1.00  0.00     0.027 C 
HETATM    3  C11 UNL     1      -0.084  -3.994  22.406  1.00  0.00     0.027 C 
HETATM    4  C12 UNL     1       0.935  -4.744  23.263  1.00  0.00     0.083 C 
HETATM    5  C18 UNL     1       2.248  -3.961  23.163  1.00  0.00     0.027 C 
HETATM    6  C19 UNL     1       2.015  -2.552  22.744  1.00  0.00     0.027 C 
ENDROOT
BRANCH   1   7
HETATM    7  N2  UNL     1       0.823  -0.546  23.230  1.00  0.00    -0.356 N 
HETATM    8  C8  UNL     1       1.535   0.308  24.093  1.00  0.00     0.227 C 
HETATM    9  O3  UNL     1       2.141  -0.173  25.079  1.00  0.00    -0.273 OA
ATOM     10  H2  UNL     1       0.322  -0.168  22.426  1.00  0.00     0.162 HD
BRANCH   8  11
HETATM   11  C7  UNL     1       1.609   1.760  23.896  1.00  0.00     0.177 C 
BRANCH  11  12
HETATM   12  S1  UNL     1       3.186   2.179  23.111  1.00  0.00    -0.155 SA
BRANCH  12  13
HETATM   13  C6  UNL     1       3.146   1.673  21.396  1.00  0.00     0.050 C 
HETATM   14  C5  UNL     1       1.730   1.573  20.855  1.00  0.00     0.035 C 
HETATM   15  C4  UNL     1       1.816   1.374  19.351  1.00  0.00     0.129 C 
HETATM   16  N1  UNL     1       2.812   0.383  18.991  1.00  0.00    -0.328 N 
HETATM   17  C3  UNL     1       2.512  -0.472  17.899  1.00  0.00     0.362 C 
HETATM   18  C21 UNL     1       4.063   0.235  19.676  1.00  0.00     0.129 C 
HETATM   19  O2  UNL     1       1.430  -0.403  17.252  1.00  0.00    -0.238 OA
HETATM   20  C20 UNL     1       3.770   0.315  21.182  1.00  0.00     0.035 C 
BRANCH  17  21
HETATM   21  O1  UNL     1       3.424  -1.431  17.505  1.00  0.00    -0.304 OA
BRANCH  21  22
HETATM   22  C2  UNL     1       3.953  -1.512  16.195  1.00  0.00     0.176 C 
HETATM   23  C1  UNL     1       5.419  -1.152  16.287  1.00  0.00     0.034 C 
ENDBRANCH  21  22
ENDBRANCH  17  21
ENDBRANCH  12  13
ENDBRANCH  11  12
ENDBRANCH   8  11
ENDBRANCH   1   7
BRANCH   4  24
HETATM   24  N3  UNL     1       1.168  -6.042  22.839  1.00  0.00    -0.370 N 
ATOM     25  H3  UNL     1       1.710  -6.505  23.568  1.00  0.00     0.161 HD
BRANCH  24  26
HETATM   26  C13 UNL     1       0.990  -6.852  21.956  1.00  0.00     0.126 A 
HETATM   27  N4  UNL     1       0.180  -7.931  22.209  1.00  0.00    -0.337 N 
HETATM   28  C14 UNL     1      -0.084  -8.874  21.319  1.00  0.00     0.182 A 
ATOM     29  H4  UNL     1      -0.242  -8.010  23.134  1.00  0.00     0.168 HD
HETATM   30  N5  UNL     1       0.442  -8.824  20.087  1.00  0.00    -0.354 N 
HETATM   31  C15 UNL     1       1.246  -7.806  19.748  1.00  0.00     0.031 A 
ATOM     32  H5  UNL     1       0.232  -9.557  19.410  1.00  0.00     0.166 HD
HETATM   33  C16 UNL     1       1.840  -7.747  18.387  1.00  0.00     0.070 C 
HETATM   34  C17 UNL     1       1.520  -6.813  20.697  1.00  0.00     0.100 A 
HETATM   35 CL1  UNL     1       2.571  -5.522  20.171  1.00  0.00    -0.078 Cl
ENDBRANCH  24  26
ENDBRANCH   4  24
TORSDOF 8
ENDMDL
MODEL 3
REMARK VINA RESULT: -8.097415255      3.648      7.973
REMARK  8 active torsions:
REMARK  status: ('A' for Active; 'I' for Inactive)
REMARK    1  A    between atoms: C2_2  and  O1_3 
REMARK    2  A    between atoms: O1_3  and  C3_4 
REMARK       I    between atoms: C3_4  and  N1_6 
REMARK    3  A    between atoms: C6_9  and  S1_10 
REMARK    4  A    between atoms: S1_10  and  C7_11 
REMARK    5  A    between atoms: C7_11  and  C8_12 
REMARK       I    between atoms: C8_12  and  N2_14 
REMARK    6  A    between atoms: N2_14  and  C9_16 
REMARK    7  A    between atoms: C12_19  and  N3_20 
REMARK    8  A    between atoms: N3_20  and  C13_22 
ROOT
HETATM    1  C9  UNL     1       2.743   0.959  20.380  1.00  0.00     0.084 C 
HETATM    2  C10 UNL     1       1.631   1.945  20.400  1.00  0.00     0.027 C 
HETATM    3  C11 UNL     1       1.016   2.031  21.777  1.00  0.00     0.027 C 
HETATM    4  C12 UNL     1       2.134   2.171  22.810  1.00  0.00     0.083 C 
HETATM    5  C18 UNL     1       2.862   0.824  22.847  1.00  0.00     0.027 C 
HETATM    6  C19 UNL     1       2.631   0.041  21.603  1.00  0.00     0.027 C 
ENDROOT
BRANCH   1   7
HETATM    7  N2  UNL     1       2.765   0.078  19.223  1.00  0.00    -0.356 N 
HETATM    8  C8  UNL     1       3.980  -0.526  18.848  1.00  0.00     0.227 C 
HETATM    9  O3  UNL     1       5.018  -0.293  19.510  1.00  0.00    -0.273 OA
ATOM     10  H2  UNL     1       1.913  -0.099  18.691  1.00  0.00     0.162 HD
BRANCH   8  11
HETATM   11  C7  UNL     1       4.098  -1.434  17.702  1.00  0.00     0.177 C 
BRANCH  11  12
HETATM   12  S1  UNL     1       2.489  -2.200  17.375  1.00  0.00    -0.155 SA
BRANCH  12  13
HETATM   13  C6  UNL     1       2.076  -3.305  18.719  1.00  0.00     0.050 C 
HETATM   14  C5  UNL     1       0.695  -3.032  19.290  1.00  0.00     0.035 C 
HETATM   15  C4  UNL     1       0.352  -4.160  20.248  1.00  0.00     0.129 C 
HETATM   16  N1  UNL     1       1.460  -4.481  21.127  1.00  0.00    -0.328 N 
HETATM   17  C3  UNL     1       1.146  -4.832  22.466  1.00  0.00     0.362 C 
HETATM   18  C21 UNL     1       2.832  -4.459  20.710  1.00  0.00     0.129 C 
HETATM   19  O2  UNL     1      -0.037  -4.867  22.905  1.00  0.00    -0.238 OA
HETATM   20  C20 UNL     1       3.036  -3.184  19.878  1.00  0.00     0.035 C 
BRANCH  17  21
HETATM   21  O1  UNL     1       2.158  -5.154  23.349  1.00  0.00    -0.304 OA
BRANCH  21  22
HETATM   22  C2  UNL     1       2.354  -4.493  24.584  1.00  0.00     0.176 C 
HETATM   23  C1  UNL     1       3.209  -3.277  24.304  1.00  0.00     0.034 C 
ENDBRANCH  21  22
ENDBRANCH  17  21
ENDBRANCH  12  13
ENDBRANCH  11  12
ENDBRANCH   8  11
ENDBRANCH   1   7
BRANCH   4  24
HETATM   24  N3  UNL     1       1.677   2.455  24.086  1.00  0.00    -0.370 N 
ATOM     25  H3  UNL     1       1.250   3.381  24.054  1.00  0.00     0.161 HD
BRANCH  24  26
HETATM   26  C13 UNL     1       1.578   2.053  25.224  1.00  0.00     0.126 A 
HETATM   27  N4  UNL     1       2.504   2.470  26.149  1.00  0.00    -0.337 N 
HETATM   28  C14 UNL     1       2.492   2.094  27.418  1.00  0.00     0.182 A 
ATOM     29  H4  UNL     1       3.241   3.104  25.841  1.00  0.00     0.168 HD
HETATM   30  N5  UNL     1       1.548   1.262  27.880  1.00  0.00    -0.354 N 
HETATM   31  C15 UNL     1       0.601   0.802  27.050  1.00  0.00     0.031 A 
ATOM     32  H5  UNL     1       1.550   0.979  28.860  1.00  0.00     0.166 HD
HETATM   33  C16 UNL     1      -0.444  -0.127  27.552  1.00  0.00     0.070 C 
HETATM   34  C17 UNL     1       0.623   1.205  25.708  1.00  0.00     0.100 A 
HETATM   35 CL1  UNL     1      -0.648   0.564  24.698  1.00  0.00    -0.078 Cl
ENDBRANCH  24  26
ENDBRANCH   4  24
TORSDOF 8
ENDMDL
MODEL 4
REMARK VINA RESULT: -8.045888216      4.387      7.144
REMARK  8 active torsions:
REMARK  status: ('A' for Active; 'I' for Inactive)
REMARK    1  A    between atoms: C2_2  and  O1_3 
REMARK    2  A    between atoms: O1_3  and  C3_4 
REMARK       I    between atoms: C3_4  and  N1_6 
REMARK    3  A    between atoms: C6_9  and  S1_10 
REMARK    4  A    between atoms: S1_10  and  C7_11 
REMARK    5  A    between atoms: C7_11  and  C8_12 
REMARK       I    between atoms: C8_12  and  N2_14 
REMARK    6  A    between atoms: N2_14  and  C9_16 
REMARK    7  A    between atoms: C12_19  and  N3_20 
REMARK    8  A    between atoms: N3_20  and  C13_22 
ROOT
HETATM    1  C9  UNL     1       1.042  -4.198  21.333  1.00  0.00     0.084 C 
HETATM    2  C10 UNL     1       2.510  -4.425  21.395  1.00  0.00     0.027 C 
HETATM    3  C11 UNL     1       3.167  -4.036  20.093  1.00  0.00     0.027 C 
HETATM    4  C12 UNL     1       2.658  -2.658  19.673  1.00  0.00     0.083 C 
HETATM    5  C18 UNL     1       1.191  -2.839  19.272  1.00  0.00     0.027 C 
HETATM    6  C19 UNL     1       0.608  -4.072  19.869  1.00  0.00     0.027 C 
ENDROOT
BRANCH   1   7
HETATM    7  N2  UNL     1       0.230  -5.265  21.897  1.00  0.00    -0.356 N 
HETATM    8  C8  UNL     1      -0.916  -4.929  22.643  1.00  0.00     0.227 C 
HETATM    9  O3  UNL     1      -1.214  -3.724  22.813  1.00  0.00    -0.273 OA
ATOM     10  H2  UNL     1       0.487  -6.242  21.755  1.00  0.00     0.162 HD
BRANCH   8  11
HETATM   11  C7  UNL     1      -1.799  -5.935  23.243  1.00  0.00     0.177 C 
BRANCH  11  12
HETATM   12  S1  UNL     1      -0.848  -7.435  23.598  1.00  0.00    -0.155 SA
BRANCH  12  13
HETATM   13  C6  UNL     1      -1.101  -8.621  22.283  1.00  0.00     0.050 C 
HETATM   14  C5  UNL     1       0.135  -8.799  21.419  1.00  0.00     0.035 C 
HETATM   15  C4  UNL     1      -0.105  -9.983  20.497  1.00  0.00     0.129 C 
HETATM   16  N1  UNL     1      -1.423  -9.944  19.895  1.00  0.00    -0.328 N 
HETATM   17  C3  UNL     1      -1.536 -10.382  18.550  1.00  0.00     0.362 C 
HETATM   18  C21 UNL     1      -2.595  -9.489  20.586  1.00  0.00     0.129 C 
HETATM   19  O2  UNL     1      -0.549 -10.791  17.878  1.00  0.00    -0.238 OA
HETATM   20  C20 UNL     1      -2.210  -8.210  21.344  1.00  0.00     0.035 C 
BRANCH  17  21
HETATM   21  O1  UNL     1      -2.767 -10.374  17.924  1.00  0.00    -0.304 OA
BRANCH  21  22
HETATM   22  C2  UNL     1      -3.052  -9.599  16.775  1.00  0.00     0.176 C 
HETATM   23  C1  UNL     1      -4.308  -8.812  17.074  1.00  0.00     0.034 C 
ENDBRANCH  21  22
ENDBRANCH  17  21
ENDBRANCH  12  13
ENDBRANCH  11  12
ENDBRANCH   8  11
ENDBRANCH   1   7
BRANCH   4  24
HETATM   24  N3  UNL     1       3.341  -2.119  18.595  1.00  0.00    -0.370 N 
ATOM     25  H3  UNL     1       2.805  -2.340  17.757  1.00  0.00     0.161 HD
BRANCH  24  26
HETATM   26  C13 UNL     1       4.316  -1.492  18.243  1.00  0.00     0.126 A 
HETATM   27  N4  UNL     1       5.221  -1.098  19.197  1.00  0.00    -0.337 N 
HETATM   28  C14 UNL     1       6.319  -0.411  18.926  1.00  0.00     0.182 A 
ATOM     29  H4  UNL     1       5.038  -1.349  20.168  1.00  0.00     0.168 HD
HETATM   30  N5  UNL     1       6.613  -0.052  17.667  1.00  0.00    -0.354 N 
HETATM   31  C15 UNL     1       5.787  -0.393  16.668  1.00  0.00     0.031 A 
ATOM     32  H5  UNL     1       7.462   0.478  17.471  1.00  0.00     0.166 HD
HETATM   33  C16 UNL     1       6.101   0.007  15.272  1.00  0.00     0.070 C 
HETATM   34  C17 UNL     1       4.627  -1.120  16.966  1.00  0.00     0.100 A 
HETATM   35 CL1  UNL     1       3.610  -1.526  15.606  1.00  0.00    -0.078 Cl
ENDBRANCH  24  26
ENDBRANCH   4  24
TORSDOF 8
ENDMDL
MODEL 5
REMARK VINA RESULT: -8.041290415      3.488      6.991
REMARK  8 active torsions:
REMARK  status: ('A' for Active; 'I' for Inactive)
REMARK    1  A    between atoms: C2_2  and  O1_3 
REMARK    2  A    between atoms: O1_3  and  C3_4 
REMARK       I    between atoms: C3_4  and  N1_6 
REMARK    3  A    between atoms: C6_9  and  S1_10 
REMARK    4  A    between atoms: S1_10  and  C7_11 
REMARK    5  A    between atoms: C7_11  and  C8_12 
REMARK       I    between atoms: C8_12  and  N2_14 
REMARK    6  A    between atoms: N2_14  and  C9_16 
REMARK    7  A    between atoms: C12_19  and  N3_20 
REMARK    8  A    between atoms: N3_20  and  C13_22 
ROOT
HETATM    1  C9  UNL     1       0.441  -1.992  23.520  1.00  0.00     0.084 C 
HETATM    2  C10 UNL     1      -0.740  -2.841  23.211  1.00  0.00     0.027 C 
HETATM    3  C11 UNL     1      -0.321  -4.099  22.490  1.00  0.00     0.027 C 
HETATM    4  C12 UNL     1       0.855  -4.729  23.234  1.00  0.00     0.083 C 
HETATM    5  C18 UNL     1       2.054  -3.800  23.019  1.00  0.00     0.027 C 
HETATM    6  C19 UNL     1       1.622  -2.426  22.643  1.00  0.00     0.027 C 
ENDROOT
BRANCH   1   7
HETATM    7  N2  UNL     1       0.261  -0.571  23.268  1.00  0.00    -0.356 N 
HETATM    8  C8  UNL     1       1.117   0.348  23.903  1.00  0.00     0.227 C 
HETATM    9  O3  UNL     1       2.012  -0.069  24.675  1.00  0.00    -0.273 OA
ATOM     10  H2  UNL     1      -0.474  -0.246  22.641  1.00  0.00     0.162 HD
BRANCH   8  11
HETATM   11  C7  UNL     1       1.018   1.798  23.705  1.00  0.00     0.177 C 
BRANCH  11  12
HETATM   12  S1  UNL     1       2.305   2.336  22.549  1.00  0.00    -0.155 SA
BRANCH  12  13
HETATM   13  C6  UNL     1       2.514   1.094  21.279  1.00  0.00     0.050 C 
HETATM   14  C5  UNL     1       3.909   0.492  21.283  1.00  0.00     0.035 C 
HETATM   15  C4  UNL     1       3.907  -0.700  20.340  1.00  0.00     0.129 C 
HETATM   16  N1  UNL     1       3.240  -0.401  19.088  1.00  0.00    -0.328 N 
HETATM   17  C3  UNL     1       3.788  -0.967  17.908  1.00  0.00     0.362 C 
HETATM   18  C21 UNL     1       2.072   0.427  18.993  1.00  0.00     0.129 C 
HETATM   19  O2  UNL     1       4.815  -1.700  17.914  1.00  0.00    -0.238 OA
HETATM   20  C20 UNL     1       2.306   1.651  19.891  1.00  0.00     0.035 C 
BRANCH  17  21
HETATM   21  O1  UNL     1       3.193  -0.723  16.685  1.00  0.00    -0.304 OA
BRANCH  21  22
HETATM   22  C2  UNL     1       2.867  -1.741  15.760  1.00  0.00     0.176 C 
HETATM   23  C1  UNL     1       1.446  -2.168  16.055  1.00  0.00     0.034 C 
ENDBRANCH  21  22
ENDBRANCH  17  21
ENDBRANCH  12  13
ENDBRANCH  11  12
ENDBRANCH   8  11
ENDBRANCH   1   7
BRANCH   4  24
HETATM   24  N3  UNL     1       1.193  -5.991  22.773  1.00  0.00    -0.370 N 
ATOM     25  H3  UNL     1       1.860  -6.386  23.435  1.00  0.00     0.161 HD
BRANCH  24  26
HETATM   26  C13 UNL     1       1.018  -6.815  21.903  1.00  0.00     0.126 A 
HETATM   27  N4  UNL     1       0.226  -7.902  22.180  1.00  0.00    -0.337 N 
HETATM   28  C14 UNL     1      -0.033  -8.862  21.307  1.00  0.00     0.182 A 
ATOM     29  H4  UNL     1      -0.186  -7.973  23.110  1.00  0.00     0.168 HD
HETATM   30  N5  UNL     1       0.482  -8.823  20.069  1.00  0.00    -0.354 N 
HETATM   31  C15 UNL     1       1.269  -7.800  19.707  1.00  0.00     0.031 A 
ATOM     32  H5  UNL     1       0.276  -9.570  19.405  1.00  0.00     0.166 HD
HETATM   33  C16 UNL     1       1.849  -7.752  18.340  1.00  0.00     0.070 C 
HETATM   34  C17 UNL     1       1.537  -6.788  20.639  1.00  0.00     0.100 A 
HETATM   35 CL1  UNL     1       2.565  -5.491  20.085  1.00  0.00    -0.078 Cl
ENDBRANCH  24  26
ENDBRANCH   4  24
TORSDOF 8
ENDMDL
