MODEL 1
REMARK VINA RESULT: -7.719172536      0.000      0.000
REMARK  8 active torsions:
REMARK  status: ('A' for Active; 'I' for Inactive)
REMARK    1  A    between atoms: C2_2  and  O1_3 
REMARK    2  A    between atoms: O1_3  and  C3_4 
REMARK    3  A    between atoms: C7_10  and  C8_11 
REMARK       I    between atoms: C8_11  and  N1_13 
REMARK    4  A    between atoms: N1_13  and  C9_15 
REMARK    5  A    between atoms: C9_15  and  C10_16 
REMARK    6  A    between atoms: C10_16  and  N2_17 
REMARK       I    between atoms: N2_17  and  C11_19 
REMARK    7  A    between atoms: C11_19  and  O6_21 
REMARK    8  A    between atoms: O6_21  and  C12_22 
ROOT
HETATM    1  C3  UNL     1       1.819   1.546  23.040  1.00  0.00     0.132 C 
HETATM    2  C4  UNL     1       3.272   1.728  23.270  1.00  0.00     0.059 C 
HETATM    3  C5  UNL     1       4.187   0.818  22.534  1.00  0.00     0.174 C 
HETATM    4  O2  UNL     1       3.771   0.292  21.377  1.00  0.00    -0.350 OA
HETATM    5  C6  UNL     1       2.427   0.164  21.154  1.00  0.00     0.200 C 
HETATM    6  O3  UNL     1       1.989  -0.876  22.007  1.00  0.00    -0.331 OA
HETATM    7  C7  UNL     1       2.379  -2.050  21.365  1.00  0.00     0.251 C 
HETATM    8  C16 UNL     1       2.156  -1.752  19.920  1.00  0.00    -0.007 A 
HETATM    9  C17 UNL     1       1.952  -2.557  18.823  1.00  0.00     0.034 A 
HETATM   10  C18 UNL     1       1.776  -1.955  17.583  1.00  0.00     0.034 A 
HETATM   11 CL1  UNL     1       1.511  -2.936  16.148  1.00  0.00    -0.084 Cl
HETATM   12  C19 UNL     1       1.812  -0.568  17.490  1.00  0.00     0.024 A 
HETATM   13  C20 UNL     1       2.017   0.220  18.598  1.00  0.00     0.015 A 
HETATM   14  C21 UNL     1       2.192  -0.373  19.827  1.00  0.00     0.013 A 
HETATM   15  C22 UNL     1       1.618   1.366  21.541  1.00  0.00     0.078 C 
HETATM   16  C23 UNL     1       2.032   2.634  20.841  1.00  0.00     0.019 C 
ENDROOT
BRANCH   7  17
HETATM   17  C8  UNL     1       1.351  -3.080  21.758  1.00  0.00     0.251 C 
HETATM   18  O4  UNL     1       0.268  -2.697  22.317  1.00  0.00    -0.270 OA
HETATM   19  N1  UNL     1       1.597  -4.441  21.510  1.00  0.00    -0.357 N 
ATOM     20  H1  UNL     1       2.473  -4.716  21.065  1.00  0.00     0.162 HD
BRANCH  19  21
HETATM   21  C9  UNL     1       0.650  -5.452  21.866  1.00  0.00     0.142 C 
BRANCH  21  22
HETATM   22  C10 UNL     1       1.034  -6.141  23.125  1.00  0.00     0.144 C 
BRANCH  22  23
HETATM   23  N2  UNL     1       0.803  -5.296  24.257  1.00  0.00    -0.335 N 
HETATM   24  C11 UNL     1       1.749  -5.224  25.310  1.00  0.00     0.361 C 
HETATM   25  O5  UNL     1       2.827  -5.856  25.357  1.00  0.00    -0.238 OA
ATOM     26  H2  UNL     1      -0.050  -4.740  24.305  1.00  0.00     0.164 HD
BRANCH  24  27
HETATM   27  O6  UNL     1       1.520  -4.392  26.429  1.00  0.00    -0.294 OA
BRANCH  27  28
HETATM   28  C12 UNL     1       1.449  -2.977  26.306  1.00  0.00     0.061 C 
HETATM   29  C13 UNL     1       2.419  -2.421  25.322  1.00  0.00     0.046 C 
HETATM   30  C14 UNL     1       0.063  -2.511  25.980  1.00  0.00     0.046 C 
HETATM   31  C15 UNL     1       1.802  -2.428  27.686  1.00  0.00     0.046 C 
ENDBRANCH  27  28
ENDBRANCH  24  27
ENDBRANCH  22  23
ENDBRANCH  21  22
ENDBRANCH  19  21
ENDBRANCH   7  17
BRANCH   1  32
HETATM   32  O1  UNL     1       1.199   0.558  23.717  1.00  0.00    -0.386 OA
BRANCH  32  33
HETATM   33  C2  UNL     1       0.149   0.881  24.514  1.00  0.00     0.163 C 
HETATM   34  C1  UNL     1      -1.200   0.411  23.959  1.00  0.00     0.033 C 
ENDBRANCH  32  33
ENDBRANCH   1  32
TORSDOF 8
ENDMDL
MODEL 2
REMARK VINA RESULT: -7.545240347      2.593      6.132
REMARK  8 active torsions:
REMARK  status: ('A' for Active; 'I' for Inactive)
REMARK    1  A    between atoms: C2_2  and  O1_3 
REMARK    2  A    between atoms: O1_3  and  C3_4 
REMARK    3  A    between atoms: C7_10  and  C8_11 
REMARK       I    between atoms: C8_11  and  N1_13 
REMARK    4  A    between atoms: N1_13  and  C9_15 
REMARK    5  A    between atoms: C9_15  and  C10_16 
REMARK    6  A    between atoms: C10_16  and  N2_17 
REMARK       I    between atoms: N2_17  and  C11_19 
REMARK    7  A    between atoms: C11_19  and  O6_21 
REMARK    8  A    between atoms: O6_21  and  C12_22 
ROOT
HETATM    1  C3  UNL     1      -0.279  -2.679  25.960  1.00  0.00     0.132 C 
HETATM    2  C4  UNL     1       0.815  -2.597  26.956  1.00  0.00     0.059 C 
HETATM    3  C5  UNL     1       2.117  -2.062  26.482  1.00  0.00     0.174 C 
HETATM    4  O2  UNL     1       2.121  -1.224  25.439  1.00  0.00    -0.350 OA
HETATM    5  C6  UNL     1       1.087  -1.275  24.545  1.00  0.00     0.200 C 
HETATM    6  O3  UNL     1       1.258  -2.481  23.823  1.00  0.00    -0.331 OA
HETATM    7  C7  UNL     1       2.265  -2.204  22.901  1.00  0.00     0.251 C 
HETATM    8  C16 UNL     1       1.987  -0.797  22.488  1.00  0.00    -0.007 A 
HETATM    9  C17 UNL     1       2.318  -0.072  21.366  1.00  0.00     0.034 A 
HETATM   10  C18 UNL     1       1.901   1.251  21.285  1.00  0.00     0.034 A 
HETATM   11 CL1  UNL     1       2.296   2.223  19.875  1.00  0.00    -0.084 Cl
HETATM   12  C19 UNL     1       1.165   1.796  22.332  1.00  0.00     0.024 A 
HETATM   13  C20 UNL     1       0.843   1.055  23.445  1.00  0.00     0.015 A 
HETATM   14  C21 UNL     1       1.256  -0.254  23.529  1.00  0.00     0.013 A 
HETATM   15  C22 UNL     1      -0.270  -1.374  25.173  1.00  0.00     0.078 C 
HETATM   16  C23 UNL     1      -0.595  -0.241  26.110  1.00  0.00     0.019 C 
ENDROOT
BRANCH   7  17
HETATM   17  C8  UNL     1       1.962  -3.073  21.708  1.00  0.00     0.251 C 
HETATM   18  O4  UNL     1       2.928  -3.509  20.994  1.00  0.00    -0.270 OA
HETATM   19  N1  UNL     1       0.629  -3.389  21.395  1.00  0.00    -0.357 N 
ATOM     20  H1  UNL     1      -0.120  -3.024  21.983  1.00  0.00     0.162 HD
BRANCH  19  21
HETATM   21  C9  UNL     1       0.296  -4.211  20.273  1.00  0.00     0.142 C 
BRANCH  21  22
HETATM   22  C10 UNL     1       0.144  -3.407  19.033  1.00  0.00     0.144 C 
BRANCH  22  23
HETATM   23  N2  UNL     1       1.421  -3.115  18.458  1.00  0.00    -0.335 N 
HETATM   24  C11 UNL     1       1.521  -2.582  17.149  1.00  0.00     0.361 C 
HETATM   25  O5  UNL     1       0.553  -2.323  16.400  1.00  0.00    -0.238 OA
ATOM     26  H2  UNL     1       2.269  -3.292  18.996  1.00  0.00     0.164 HD
BRANCH  24  27
HETATM   27  O6  UNL     1       2.782  -2.297  16.580  1.00  0.00    -0.294 OA
BRANCH  27  28
HETATM   28  C12 UNL     1       3.549  -1.171  16.989  1.00  0.00     0.061 C 
HETATM   29  C13 UNL     1       2.718  -0.047  17.503  1.00  0.00     0.046 C 
HETATM   30  C14 UNL     1       4.593  -1.541  17.997  1.00  0.00     0.046 C 
HETATM   31  C15 UNL     1       4.276  -0.694  15.734  1.00  0.00     0.046 C 
ENDBRANCH  27  28
ENDBRANCH  24  27
ENDBRANCH  22  23
ENDBRANCH  21  22
ENDBRANCH  19  21
ENDBRANCH   7  17
BRANCH   1  32
HETATM   32  O1  UNL     1      -0.279  -3.732  25.118  1.00  0.00    -0.386 OA
BRANCH  32  33
HETATM   33  C2  UNL     1      -1.408  -4.480  25.020  1.00  0.00     0.163 C 
HETATM   34  C1  UNL     1      -1.583  -5.135  23.646  1.00  0.00     0.033 C 
ENDBRANCH  32  33
ENDBRANCH   1  32
TORSDOF 8
ENDMDL
MODEL 3
REMARK VINA RESULT: -7.532105325      2.269      5.152
REMARK  8 active torsions:
REMARK  status: ('A' for Active; 'I' for Inactive)
REMARK    1  A    between atoms: C2_2  and  O1_3 
REMARK    2  A    between atoms: O1_3  and  C3_4 
REMARK    3  A    between atoms: C7_10  and  C8_11 
REMARK       I    between atoms: C8_11  and  N1_13 
REMARK    4  A    between atoms: N1_13  and  C9_15 
REMARK    5  A    between atoms: C9_15  and  C10_16 
REMARK    6  A    between atoms: C10_16  and  N2_17 
REMARK       I    between atoms: N2_17  and  C11_19 
REMARK    7  A    between atoms: C11_19  and  O6_21 
REMARK    8  A    between atoms: O6_21  and  C12_22 
ROOT
HETATM    1  C3  UNL     1      -0.263   0.271  25.053  1.00  0.00     0.132 C 
HETATM    2  C4  UNL     1       0.539   0.953  26.094  1.00  0.00     0.059 C 
HETATM    3  C5  UNL     1       2.012   0.974  25.901  1.00  0.00     0.174 C 
HETATM    4  O2  UNL     1       2.494   0.893  24.656  1.00  0.00    -0.350 OA
HETATM    5  C6  UNL     1       1.731   0.298  23.689  1.00  0.00     0.200 C 
HETATM    6  O3  UNL     1       1.735  -1.085  23.988  1.00  0.00    -0.331 OA
HETATM    7  C7  UNL     1       2.970  -1.544  23.534  1.00  0.00     0.251 C 
HETATM    8  C16 UNL     1       3.193  -0.770  22.278  1.00  0.00    -0.007 A 
HETATM    9  C17 UNL     1       3.969  -1.002  21.165  1.00  0.00     0.034 A 
HETATM   10  C18 UNL     1       3.960  -0.060  20.143  1.00  0.00     0.034 A 
HETATM   11 CL1  UNL     1       4.931  -0.307  18.699  1.00  0.00    -0.084 Cl
HETATM   12  C19 UNL     1       3.172   1.078  20.275  1.00  0.00     0.024 A 
HETATM   13  C20 UNL     1       2.403   1.292  21.395  1.00  0.00     0.015 A 
HETATM   14  C21 UNL     1       2.411   0.363  22.409  1.00  0.00     0.013 A 
HETATM   15  C22 UNL     1       0.289   0.706  23.701  1.00  0.00     0.078 C 
HETATM   16  C23 UNL     1       0.070   2.187  23.542  1.00  0.00     0.019 C 
ENDROOT
BRANCH   7  17
HETATM   17  C8  UNL     1       2.738  -2.976  23.125  1.00  0.00     0.251 C 
HETATM   18  O4  UNL     1       3.461  -3.895  23.637  1.00  0.00    -0.270 OA
HETATM   19  N1  UNL     1       1.735  -3.279  22.187  1.00  0.00    -0.357 N 
ATOM     20  H1  UNL     1       1.176  -2.522  21.793  1.00  0.00     0.162 HD
BRANCH  19  21
HETATM   21  C9  UNL     1       1.480  -4.623  21.770  1.00  0.00     0.142 C 
BRANCH  21  22
HETATM   22  C10 UNL     1       0.714  -4.665  20.498  1.00  0.00     0.144 C 
BRANCH  22  23
HETATM   23  N2  UNL     1       1.571  -4.402  19.382  1.00  0.00    -0.335 N 
HETATM   24  C11 UNL     1       1.753  -3.080  18.906  1.00  0.00     0.361 C 
HETATM   25  O5  UNL     1       1.216  -2.059  19.388  1.00  0.00    -0.238 OA
ATOM     26  H2  UNL     1       2.054  -5.174  18.924  1.00  0.00     0.164 HD
BRANCH  24  27
HETATM   27  O6  UNL     1       2.596  -2.821  17.801  1.00  0.00    -0.294 OA
BRANCH  27  28
HETATM   28  C12 UNL     1       2.169  -2.018  16.708  1.00  0.00     0.061 C 
HETATM   29  C13 UNL     1       1.130  -2.672  15.866  1.00  0.00     0.046 C 
HETATM   30  C14 UNL     1       1.693  -0.670  17.155  1.00  0.00     0.046 C 
HETATM   31  C15 UNL     1       3.413  -1.801  15.849  1.00  0.00     0.046 C 
ENDBRANCH  27  28
ENDBRANCH  24  27
ENDBRANCH  22  23
ENDBRANCH  21  22
ENDBRANCH  19  21
ENDBRANCH   7  17
BRANCH   1  32
HETATM   32  O1  UNL     1      -0.349  -1.074  25.111  1.00  0.00    -0.386 OA
BRANCH  32  33
HETATM   33  C2  UNL     1      -1.228  -1.702  24.290  1.00  0.00     0.163 C 
HETATM   34  C1  UNL     1      -1.100  -3.229  24.319  1.00  0.00     0.033 C 
ENDBRANCH  32  33
ENDBRANCH   1  32
TORSDOF 8
ENDMDL
MODEL 4
REMARK VINA RESULT: -7.528524571      1.032      1.280
REMARK  8 active torsions:
REMARK  status: ('A' for Active; 'I' for Inactive)
REMARK    1  A    between atoms: C2_2  and  O1_3 
REMARK    2  A    between atoms: O1_3  and  C3_4 
REMARK    3  A    between atoms: C7_10  and  C8_11 
REMARK       I    between atoms: C8_11  and  N1_13 
REMARK    4  A    between atoms: N1_13  and  C9_15 
REMARK    5  A    between atoms: C9_15  and  C10_16 
REMARK    6  A    between atoms: C10_16  and  N2_17 
REMARK       I    between atoms: N2_17  and  C11_19 
REMARK    7  A    between atoms: C11_19  and  O6_21 
REMARK    8  A    between atoms: O6_21  and  C12_22 
ROOT
HETATM    1  C3  UNL     1       1.278   0.760  23.239  1.00  0.00     0.132 C 
HETATM    2  C4  UNL     1       2.613   1.048  23.811  1.00  0.00     0.059 C 
HETATM    3  C5  UNL     1       3.782   0.431  23.134  1.00  0.00     0.174 C 
HETATM    4  O2  UNL     1       3.681   0.129  21.835  1.00  0.00    -0.350 OA
HETATM    5  C6  UNL     1       2.442  -0.096  21.302  1.00  0.00     0.200 C 
HETATM    6  O3  UNL     1       2.016  -1.341  21.823  1.00  0.00    -0.331 OA
HETATM    7  C7  UNL     1       2.699  -2.294  21.069  1.00  0.00     0.251 C 
HETATM    8  C16 UNL     1       2.713  -1.713  19.696  1.00  0.00    -0.007 A 
HETATM    9  C17 UNL     1       2.849  -2.275  18.447  1.00  0.00     0.034 A 
HETATM   10  C18 UNL     1       2.822  -1.438  17.337  1.00  0.00     0.034 A 
HETATM   11 CL1  UNL     1       2.991  -2.103  15.718  1.00  0.00    -0.084 Cl
HETATM   12  C19 UNL     1       2.658  -0.069  17.522  1.00  0.00     0.024 A 
HETATM   13  C20 UNL     1       2.523   0.473  18.778  1.00  0.00     0.015 A 
HETATM   14  C21 UNL     1       2.550  -0.352  19.879  1.00  0.00     0.013 A 
HETATM   15  C22 UNL     1       1.397   0.892  21.726  1.00  0.00     0.078 C 
HETATM   16  C23 UNL     1       1.735   2.321  21.390  1.00  0.00     0.019 C 
ENDROOT
BRANCH   7  17
HETATM   17  C8  UNL     1       1.787  -3.494  21.023  1.00  0.00     0.251 C 
HETATM   18  O4  UNL     1       0.541  -3.320  20.804  1.00  0.00    -0.270 OA
HETATM   19  N1  UNL     1       2.317  -4.780  21.225  1.00  0.00    -0.357 N 
ATOM     20  H1  UNL     1       3.316  -4.885  21.401  1.00  0.00     0.162 HD
BRANCH  19  21
HETATM   21  C9  UNL     1       1.489  -5.946  21.189  1.00  0.00     0.142 C 
BRANCH  21  22
HETATM   22  C10 UNL     1       1.108  -6.387  22.556  1.00  0.00     0.144 C 
BRANCH  22  23
HETATM   23  N2  UNL     1       1.754  -5.583  23.547  1.00  0.00    -0.335 N 
HETATM   24  C11 UNL     1       1.599  -5.871  24.926  1.00  0.00     0.361 C 
HETATM   25  O5  UNL     1       0.920  -6.811  25.395  1.00  0.00    -0.238 OA
ATOM     26  H2  UNL     1       2.331  -4.793  23.258  1.00  0.00     0.164 HD
BRANCH  24  27
HETATM   27  O6  UNL     1       2.234  -5.074  25.905  1.00  0.00    -0.294 OA
BRANCH  27  28
HETATM   28  C12 UNL     1       1.703  -3.816  26.304  1.00  0.00     0.061 C 
HETATM   29  C13 UNL     1       0.280  -3.625  25.910  1.00  0.00     0.046 C 
HETATM   30  C14 UNL     1       1.865  -3.581  27.774  1.00  0.00     0.046 C 
HETATM   31  C15 UNL     1       2.544  -2.769  25.579  1.00  0.00     0.046 C 
ENDBRANCH  27  28
ENDBRANCH  24  27
ENDBRANCH  22  23
ENDBRANCH  21  22
ENDBRANCH  19  21
ENDBRANCH   7  17
BRANCH   1  32
HETATM   32  O1  UNL     1       0.701  -0.416  23.561  1.00  0.00    -0.386 OA
BRANCH  32  33
HETATM   33  C2  UNL     1      -0.529  -0.397  24.133  1.00  0.00     0.163 C 
HETATM   34  C1  UNL     1      -0.507   0.031  25.605  1.00  0.00     0.033 C 
ENDBRANCH  32  33
ENDBRANCH   1  32
TORSDOF 8
ENDMDL
MODEL 5
REMARK VINA RESULT: -7.527379309      1.468      1.694
REMARK  8 active torsions:
REMARK  status: ('A' for Active; 'I' for Inactive)
REMARK    1  A    between atoms: C2_2  and  O1_3 
REMARK    2  A    between atoms: O1_3  and  C3_4 
REMARK    3  A    between atoms: C7_10  and  C8_11 
REMARK       I    between atoms: C8_11  and  N1_13 
REMARK    4  A    between atoms: N1_13  and  C9_15 
REMARK    5  A    between atoms: C9_15  and  C10_16 
REMARK    6  A    between atoms: C10_16  and  N2_17 
REMARK       I    between atoms: N2_17  and  C11_19 
REMARK    7  A    between atoms: C11_19  and  O6_21 
REMARK    8  A    between atoms: O6_21  and  C12_22 
ROOT
HETATM    1  C3  UNL     1       1.341   0.692  23.280  1.00  0.00     0.132 C 
HETATM    2  C4  UNL     1       2.668   1.067  23.821  1.00  0.00     0.059 C 
HETATM    3  C5  UNL     1       3.858   0.529  23.113  1.00  0.00     0.174 C 
HETATM    4  O2  UNL     1       3.746   0.224  21.816  1.00  0.00    -0.350 OA
HETATM    5  C6  UNL     1       2.511  -0.081  21.312  1.00  0.00     0.200 C 
HETATM    6  O3  UNL     1       2.181  -1.353  21.838  1.00  0.00    -0.331 OA
HETATM    7  C7  UNL     1       2.906  -2.257  21.065  1.00  0.00     0.251 C 
HETATM    8  C16 UNL     1       2.848  -1.673  19.693  1.00  0.00    -0.007 A 
HETATM    9  C17 UNL     1       2.990  -2.222  18.440  1.00  0.00     0.034 A 
HETATM   10  C18 UNL     1       2.881  -1.386  17.334  1.00  0.00     0.034 A 
HETATM   11 CL1  UNL     1       3.054  -2.035  15.709  1.00  0.00    -0.084 Cl
HETATM   12  C19 UNL     1       2.632  -0.032  17.529  1.00  0.00     0.024 A 
HETATM   13  C20 UNL     1       2.493   0.498  18.790  1.00  0.00     0.015 A 
HETATM   14  C21 UNL     1       2.601  -0.326  19.886  1.00  0.00     0.013 A 
HETATM   15  C22 UNL     1       1.414   0.835  21.765  1.00  0.00     0.078 C 
HETATM   16  C23 UNL     1       1.649   2.284  21.427  1.00  0.00     0.019 C 
ENDROOT
BRANCH   7  17
HETATM   17  C8  UNL     1       2.075  -3.514  21.036  1.00  0.00     0.251 C 
HETATM   18  O4  UNL     1       2.659  -4.648  21.091  1.00  0.00    -0.270 OA
HETATM   19  N1  UNL     1       0.675  -3.421  20.947  1.00  0.00    -0.357 N 
ATOM     20  H1  UNL     1       0.238  -2.501  20.902  1.00  0.00     0.162 HD
BRANCH  19  21
HETATM   21  C9  UNL     1      -0.153  -4.587  20.917  1.00  0.00     0.142 C 
BRANCH  21  22
HETATM   22  C10 UNL     1      -1.187  -4.551  21.984  1.00  0.00     0.144 C 
BRANCH  22  23
HETATM   23  N2  UNL     1      -0.702  -3.853  23.135  1.00  0.00    -0.335 N 
HETATM   24  C11 UNL     1      -0.333  -4.560  24.307  1.00  0.00     0.361 C 
HETATM   25  O5  UNL     1      -0.386  -5.802  24.448  1.00  0.00    -0.238 OA
ATOM     26  H2  UNL     1      -0.622  -2.837  23.113  1.00  0.00     0.164 HD
BRANCH  24  27
HETATM   27  O6  UNL     1       0.142  -3.871  25.446  1.00  0.00    -0.294 OA
BRANCH  27  28
HETATM   28  C12 UNL     1       1.511  -3.916  25.830  1.00  0.00     0.061 C 
HETATM   29  C13 UNL     1       1.846  -5.090  26.682  1.00  0.00     0.046 C 
HETATM   30  C14 UNL     1       2.427  -3.863  24.646  1.00  0.00     0.046 C 
HETATM   31  C15 UNL     1       1.748  -2.649  26.647  1.00  0.00     0.046 C 
ENDBRANCH  27  28
ENDBRANCH  24  27
ENDBRANCH  22  23
ENDBRANCH  21  22
ENDBRANCH  19  21
ENDBRANCH   7  17
BRANCH   1  32
HETATM   32  O1  UNL     1       0.851  -0.520  23.612  1.00  0.00    -0.386 OA
BRANCH  32  33
HETATM   33  C2  UNL     1      -0.405  -0.592  24.120  1.00  0.00     0.163 C 
HETATM   34  C1  UNL     1      -0.535   0.046  25.507  1.00  0.00     0.033 C 
ENDBRANCH  32  33
ENDBRANCH   1  32
TORSDOF 8
ENDMDL
