MODEL 1
REMARK VINA RESULT: -7.990459692      0.000      0.000
REMARK  7 active torsions:
REMARK  status: ('A' for Active; 'I' for Inactive)
REMARK    1  A    between atoms: O1_2  and  C2_3 
REMARK    2  A    between atoms: C4_5  and  N1_6 
REMARK    3  A    between atoms: N1_6  and  C5_8 
REMARK    4  A    between atoms: C13_19  and  N4_20 
REMARK    5  A    between atoms: N4_20  and  S1_22 
REMARK    6  A    between atoms: S1_22  and  N5_25 
REMARK    7  A    between atoms: C18_30  and  O4_31 
ROOT
HETATM    1  C5  UNL     1       1.495  -1.366  23.509  1.00  0.00     0.067 A 
HETATM    2  C6  UNL     1       1.554  -0.603  24.646  1.00  0.00     0.087 A 
HETATM    3  C7  UNL     1       0.723  -0.901  25.795  1.00  0.00     0.103 C 
HETATM    4  N2  UNL     1       0.076  -1.111  26.723  1.00  0.00    -0.191 NA
HETATM    5  C8  UNL     1       2.426   0.468  24.685  1.00  0.00     0.113 A 
HETATM    6  N3  UNL     1       3.210   0.776  23.647  1.00  0.00    -0.364 N 
ATOM      7  H3  UNL     1       3.844   1.574  23.706  1.00  0.00     0.165 HD
HETATM    8  C9  UNL     1       3.165   0.036  22.522  1.00  0.00     0.045 A 
HETATM    9  C10 UNL     1       3.987   0.360  21.434  1.00  0.00     0.039 A 
HETATM   10  C11 UNL     1       3.947  -0.385  20.288  1.00  0.00    -0.032 A 
HETATM   11  C12 UNL     1       4.808  -0.046  19.137  1.00  0.00     0.050 C 
HETATM   12  C13 UNL     1       3.084  -1.483  20.185  1.00  0.00     0.050 A 
HETATM   13  C16 UNL     1       2.268  -1.813  21.248  1.00  0.00     0.046 A 
HETATM   14  C17 UNL     1       2.329  -1.035  22.411  1.00  0.00     0.021 A 
ENDROOT
BRANCH   1  15
HETATM   15  N1  UNL     1       0.772  -2.360  23.323  1.00  0.00    -0.352 N 
ATOM     16  H1  UNL     1      -0.107  -2.067  22.897  1.00  0.00     0.166 HD
BRANCH  15  17
HETATM   17  C4  UNL     1       0.767  -3.719  23.502  1.00  0.00     0.069 A 
HETATM   18  C3  UNL     1       1.608  -4.406  24.379  1.00  0.00     0.071 A 
HETATM   19  C2  UNL     1       1.568  -5.765  24.552  1.00  0.00     0.092 A 
HETATM   20  C21 UNL     1       0.661  -6.529  23.841  1.00  0.00     0.070 A 
HETATM   21  C20 UNL     1      -0.170  -5.887  22.980  1.00  0.00     0.065 A 
HETATM   22 CL1  UNL     1       0.545  -8.264  24.003  1.00  0.00    -0.081 Cl
HETATM   23  C18 UNL     1      -0.140  -4.530  22.797  1.00  0.00     0.096 A 
BRANCH  19  24
HETATM   24  O1  UNL     1       2.419  -6.392  25.428  1.00  0.00    -0.354 OA
HETATM   25  C1  UNL     1       2.100  -6.410  26.803  1.00  0.00     0.210 C 
ENDBRANCH  19  24
BRANCH  23  26
HETATM   26  O4  UNL     1      -0.994  -3.880  21.914  1.00  0.00    -0.354 OA
HETATM   27  C19 UNL     1      -0.790  -4.126  20.520  1.00  0.00     0.210 C 
ENDBRANCH  23  26
ENDBRANCH  15  17
ENDBRANCH   1  15
BRANCH  12  28
HETATM   28  N4  UNL     1       3.099  -2.198  18.984  1.00  0.00    -0.271 N 
ATOM     29  H4  UNL     1       3.785  -2.947  18.887  1.00  0.00     0.180 HD
BRANCH  28  30
HETATM   30  S1  UNL     1       2.046  -1.906  17.664  1.00  0.00     0.302 S 
HETATM   31  O2  UNL     1       1.545  -0.509  17.569  1.00  0.00    -0.188 OA
HETATM   32  O3  UNL     1       0.791  -2.775  17.800  1.00  0.00    -0.188 OA
BRANCH  30  33
HETATM   33  N5  UNL     1       2.751  -2.420  16.162  1.00  0.00    -0.202 NA
HETATM   34  C14 UNL     1       1.730  -2.615  15.148  1.00  0.00     0.130 C 
HETATM   35  C15 UNL     1       3.756  -1.482  15.701  1.00  0.00     0.130 C 
ENDBRANCH  30  33
ENDBRANCH  28  30
ENDBRANCH  12  28
TORSDOF 7
ENDMDL
MODEL 2
REMARK VINA RESULT: -7.907157384      1.635      1.871
REMARK  7 active torsions:
REMARK  status: ('A' for Active; 'I' for Inactive)
REMARK    1  A    between atoms: O1_2  and  C2_3 
REMARK    2  A    between atoms: C4_5  and  N1_6 
REMARK    3  A    between atoms: N1_6  and  C5_8 
REMARK    4  A    between atoms: C13_19  and  N4_20 
REMARK    5  A    between atoms: N4_20  and  S1_22 
REMARK    6  A    between atoms: S1_22  and  N5_25 
REMARK    7  A    between atoms: C18_30  and  O4_31 
ROOT
HETATM    1  C5  UNL     1       1.276  -1.117  23.853  1.00  0.00     0.067 A 
HETATM    2  C6  UNL     1       0.482  -0.731  24.901  1.00  0.00     0.087 A 
HETATM    3  C7  UNL     1       0.226  -1.618  26.018  1.00  0.00     0.103 C 
HETATM    4  N2  UNL     1       0.004  -2.300  26.919  1.00  0.00    -0.191 NA
HETATM    5  C8  UNL     1      -0.082   0.530  24.880  1.00  0.00     0.113 A 
HETATM    6  N3  UNL     1       0.128   1.379  23.869  1.00  0.00    -0.364 N 
ATOM      7  H3  UNL     1      -0.302   2.304  23.882  1.00  0.00     0.165 HD
HETATM    8  C9  UNL     1       0.907   1.015  22.832  1.00  0.00     0.045 A 
HETATM    9  C10 UNL     1       1.127   1.905  21.771  1.00  0.00     0.039 A 
HETATM   10  C11 UNL     1       1.917   1.544  20.715  1.00  0.00    -0.032 A 
HETATM   11  C12 UNL     1       2.149   2.476  19.593  1.00  0.00     0.050 C 
HETATM   12  C13 UNL     1       2.516   0.279  20.676  1.00  0.00     0.050 A 
HETATM   13  C16 UNL     1       2.307  -0.608  21.713  1.00  0.00     0.046 A 
HETATM   14  C17 UNL     1       1.496  -0.214  22.784  1.00  0.00     0.021 A 
ENDROOT
BRANCH   1  15
HETATM   15  N1  UNL     1       1.857  -2.210  23.731  1.00  0.00    -0.352 N 
ATOM     16  H1  UNL     1       2.827  -2.052  23.459  1.00  0.00     0.166 HD
BRANCH  15  17
HETATM   17  C4  UNL     1       1.624  -3.556  23.842  1.00  0.00     0.069 A 
HETATM   18  C3  UNL     1       2.223  -4.388  24.789  1.00  0.00     0.071 A 
HETATM   19  C2  UNL     1       1.957  -5.729  24.891  1.00  0.00     0.092 A 
HETATM   20  C21 UNL     1       1.055  -6.325  24.029  1.00  0.00     0.070 A 
HETATM   21  C20 UNL     1       0.456  -5.539  23.096  1.00  0.00     0.065 A 
HETATM   22 CL1  UNL     1       0.660  -8.025  24.091  1.00  0.00    -0.081 Cl
HETATM   23  C18 UNL     1       0.713  -4.198  22.984  1.00  0.00     0.096 A 
BRANCH  19  24
HETATM   24  O1  UNL     1       2.576  -6.503  25.841  1.00  0.00    -0.354 OA
HETATM   25  C1  UNL     1       2.148  -6.416  27.184  1.00  0.00     0.210 C 
ENDBRANCH  19  24
BRANCH  23  26
HETATM   26  O4  UNL     1       0.097  -3.401  22.028  1.00  0.00    -0.354 OA
HETATM   27  C19 UNL     1       0.375  -3.705  20.658  1.00  0.00     0.210 C 
ENDBRANCH  23  26
ENDBRANCH  15  17
ENDBRANCH   1  15
BRANCH  12  28
HETATM   28  N4  UNL     1       3.310  -0.019  19.565  1.00  0.00    -0.271 N 
ATOM     29  H4  UNL     1       4.185   0.495  19.455  1.00  0.00     0.180 HD
BRANCH  28  30
HETATM   30  S1  UNL     1       2.917  -1.187  18.373  1.00  0.00     0.302 S 
HETATM   31  O2  UNL     1       1.460  -1.376  18.149  1.00  0.00    -0.188 OA
HETATM   32  O3  UNL     1       3.440  -2.562  18.804  1.00  0.00    -0.188 OA
BRANCH  30  33
HETATM   33  N5  UNL     1       3.745  -0.873  16.879  1.00  0.00    -0.202 NA
HETATM   34  C14 UNL     1       5.185  -0.942  17.058  1.00  0.00     0.130 C 
HETATM   35  C15 UNL     1       3.317  -1.784  15.835  1.00  0.00     0.130 C 
ENDBRANCH  30  33
ENDBRANCH  28  30
ENDBRANCH  12  28
TORSDOF 7
ENDMDL
MODEL 3
REMARK VINA RESULT: -7.880787035      2.842      6.009
REMARK  7 active torsions:
REMARK  status: ('A' for Active; 'I' for Inactive)
REMARK    1  A    between atoms: O1_2  and  C2_3 
REMARK    2  A    between atoms: C4_5  and  N1_6 
REMARK    3  A    between atoms: N1_6  and  C5_8 
REMARK    4  A    between atoms: C13_19  and  N4_20 
REMARK    5  A    between atoms: N4_20  and  S1_22 
REMARK    6  A    between atoms: S1_22  and  N5_25 
REMARK    7  A    between atoms: C18_30  and  O4_31 
ROOT
HETATM    1  C5  UNL     1       2.062  -1.818  19.564  1.00  0.00     0.067 A 
HETATM    2  C6  UNL     1       2.536  -1.563  18.304  1.00  0.00     0.087 A 
HETATM    3  C7  UNL     1       2.079  -2.325  17.159  1.00  0.00     0.103 C 
HETATM    4  N2  UNL     1       1.737  -2.913  16.231  1.00  0.00    -0.191 NA
HETATM    5  C8  UNL     1       3.468  -0.557  18.135  1.00  0.00     0.113 A 
HETATM    6  N3  UNL     1       3.916   0.169  19.164  1.00  0.00    -0.364 N 
ATOM      7  H3  UNL     1       4.605   0.905  19.007  1.00  0.00     0.165 HD
HETATM    8  C9  UNL     1       3.459  -0.069  20.409  1.00  0.00     0.045 A 
HETATM    9  C10 UNL     1       3.928   0.693  21.488  1.00  0.00     0.039 A 
HETATM   10  C11 UNL     1       3.470   0.458  22.754  1.00  0.00    -0.032 A 
HETATM   11  C12 UNL     1       3.964   1.255  23.896  1.00  0.00     0.050 C 
HETATM   12  C13 UNL     1       2.525  -0.548  22.993  1.00  0.00     0.050 A 
HETATM   13  C16 UNL     1       2.055  -1.307  21.940  1.00  0.00     0.046 A 
HETATM   14  C17 UNL     1       2.539  -1.045  20.652  1.00  0.00     0.021 A 
ENDROOT
BRANCH   1  15
HETATM   15  N1  UNL     1       1.221  -2.679  19.875  1.00  0.00    -0.352 N 
ATOM     16  H1  UNL     1       0.311  -2.236  20.005  1.00  0.00     0.166 HD
BRANCH  15  17
HETATM   17  C4  UNL     1       1.112  -4.027  20.101  1.00  0.00     0.069 A 
HETATM   18  C3  UNL     1       1.838  -5.005  19.419  1.00  0.00     0.071 A 
HETATM   19  C2  UNL     1       1.724  -6.347  19.678  1.00  0.00     0.092 A 
HETATM   20  C21 UNL     1       0.857  -6.792  20.659  1.00  0.00     0.070 A 
HETATM   21  C20 UNL     1       0.138  -5.863  21.340  1.00  0.00     0.065 A 
HETATM   22 CL1  UNL     1       0.653  -8.482  21.052  1.00  0.00    -0.081 Cl
HETATM   23  C18 UNL     1       0.242  -4.519  21.090  1.00  0.00     0.096 A 
BRANCH  19  24
HETATM   24  O1  UNL     1       2.461  -7.269  18.977  1.00  0.00    -0.354 OA
HETATM   25  C1  UNL     1       1.844  -7.992  17.933  1.00  0.00     0.210 C 
ENDBRANCH  19  24
BRANCH  23  26
HETATM   26  O4  UNL     1      -0.497  -3.574  21.790  1.00  0.00    -0.354 OA
HETATM   27  C19 UNL     1      -0.621  -3.768  23.201  1.00  0.00     0.210 C 
ENDBRANCH  23  26
ENDBRANCH  15  17
ENDBRANCH   1  15
BRANCH  12  28
HETATM   28  N4  UNL     1       2.103  -0.730  24.313  1.00  0.00    -0.271 N 
ATOM     29  H4  UNL     1       2.773  -1.118  24.976  1.00  0.00     0.180 HD
BRANCH  28  30
HETATM   30  S1  UNL     1       0.536  -0.347  24.894  1.00  0.00     0.302 S 
HETATM   31  O2  UNL     1      -0.029  -1.337  25.849  1.00  0.00    -0.188 OA
HETATM   32  O3  UNL     1      -0.454  -0.305  23.725  1.00  0.00    -0.188 OA
BRANCH  30  33
HETATM   33  N5  UNL     1       0.478   1.260  25.551  1.00  0.00    -0.202 NA
HETATM   34  C14 UNL     1       1.547   1.467  26.511  1.00  0.00     0.130 C 
HETATM   35  C15 UNL     1       0.530   2.262  24.504  1.00  0.00     0.130 C 
ENDBRANCH  30  33
ENDBRANCH  28  30
ENDBRANCH  12  28
TORSDOF 7
ENDMDL
MODEL 4
REMARK VINA RESULT: -7.823464775      3.088      5.570
REMARK  7 active torsions:
REMARK  status: ('A' for Active; 'I' for Inactive)
REMARK    1  A    between atoms: O1_2  and  C2_3 
REMARK    2  A    between atoms: C4_5  and  N1_6 
REMARK    3  A    between atoms: N1_6  and  C5_8 
REMARK    4  A    between atoms: C13_19  and  N4_20 
REMARK    5  A    between atoms: N4_20  and  S1_22 
REMARK    6  A    between atoms: S1_22  and  N5_25 
REMARK    7  A    between atoms: C18_30  and  O4_31 
ROOT
HETATM    1  C5  UNL     1       1.763  -3.839  21.910  1.00  0.00     0.067 A 
HETATM    2  C6  UNL     1       1.217  -5.019  21.476  1.00  0.00     0.087 A 
HETATM    3  C7  UNL     1       1.004  -6.128  22.383  1.00  0.00     0.103 C 
HETATM    4  N2  UNL     1       0.823  -7.027  23.078  1.00  0.00    -0.191 NA
HETATM    5  C8  UNL     1       0.867  -5.140  20.144  1.00  0.00     0.113 A 
HETATM    6  N3  UNL     1       1.047  -4.141  19.275  1.00  0.00    -0.364 N 
ATOM      7  H3  UNL     1       0.779  -4.261  18.298  1.00  0.00     0.165 HD
HETATM    8  C9  UNL     1       1.583  -2.975  19.686  1.00  0.00     0.045 A 
HETATM    9  C10 UNL     1       1.771  -1.928  18.773  1.00  0.00     0.039 A 
HETATM   10  C11 UNL     1       2.314  -0.741  19.182  1.00  0.00    -0.032 A 
HETATM   11  C12 UNL     1       2.518   0.364  18.225  1.00  0.00     0.050 C 
HETATM   12  C13 UNL     1       2.690  -0.555  20.518  1.00  0.00     0.050 A 
HETATM   13  C16 UNL     1       2.511  -1.578  21.427  1.00  0.00     0.046 A 
HETATM   14  C17 UNL     1       1.952  -2.783  20.984  1.00  0.00     0.021 A 
ENDROOT
BRANCH   1  15
HETATM   15  N1  UNL     1       2.120  -3.575  23.071  1.00  0.00    -0.352 N 
ATOM     16  H1  UNL     1       3.131  -3.686  23.151  1.00  0.00     0.166 HD
BRANCH  15  17
HETATM   17  C4  UNL     1       1.604  -3.182  24.278  1.00  0.00     0.069 A 
HETATM   18  C3  UNL     1       0.809  -2.051  24.470  1.00  0.00     0.071 A 
HETATM   19  C2  UNL     1       0.289  -1.692  25.686  1.00  0.00     0.092 A 
HETATM   20  C21 UNL     1       0.542  -2.465  26.805  1.00  0.00     0.070 A 
HETATM   21  C20 UNL     1       1.313  -3.572  26.648  1.00  0.00     0.065 A 
HETATM   22 CL1  UNL     1      -0.082  -2.078  28.389  1.00  0.00    -0.081 Cl
HETATM   23  C18 UNL     1       1.839  -3.942  25.438  1.00  0.00     0.096 A 
BRANCH  19  24
HETATM   24  O1  UNL     1      -0.488  -0.567  25.820  1.00  0.00    -0.354 OA
HETATM   25  C1  UNL     1      -0.883   0.137  24.663  1.00  0.00     0.210 C 
ENDBRANCH  19  24
BRANCH  23  26
HETATM   26  O4  UNL     1       2.627  -5.075  25.286  1.00  0.00    -0.354 OA
HETATM   27  C19 UNL     1       2.293  -6.206  26.095  1.00  0.00     0.210 C 
ENDBRANCH  23  26
ENDBRANCH  15  17
ENDBRANCH   1  15
BRANCH  12  28
HETATM   28  N4  UNL     1       3.237   0.685  20.862  1.00  0.00    -0.271 N 
ATOM     29  H4  UNL     1       4.040   1.014  20.326  1.00  0.00     0.180 HD
BRANCH  28  30
HETATM   30  S1  UNL     1       2.654   1.689  22.123  1.00  0.00     0.302 S 
HETATM   31  O2  UNL     1       1.179   1.875  22.134  1.00  0.00    -0.188 OA
HETATM   32  O3  UNL     1       3.236   3.098  21.973  1.00  0.00    -0.188 OA
BRANCH  30  33
HETATM   33  N5  UNL     1       3.230   1.160  23.674  1.00  0.00    -0.202 NA
HETATM   34  C14 UNL     1       4.608   1.568  23.883  1.00  0.00     0.130 C 
HETATM   35  C15 UNL     1       2.385   1.648  24.747  1.00  0.00     0.130 C 
ENDBRANCH  30  33
ENDBRANCH  28  30
ENDBRANCH  12  28
TORSDOF 7
ENDMDL
MODEL 5
REMARK VINA RESULT: -7.811476891      3.512      7.376
REMARK  7 active torsions:
REMARK  status: ('A' for Active; 'I' for Inactive)
REMARK    1  A    between atoms: O1_2  and  C2_3 
REMARK    2  A    between atoms: C4_5  and  N1_6 
REMARK    3  A    between atoms: N1_6  and  C5_8 
REMARK    4  A    between atoms: C13_19  and  N4_20 
REMARK    5  A    between atoms: N4_20  and  S1_22 
REMARK    6  A    between atoms: S1_22  and  N5_25 
REMARK    7  A    between atoms: C18_30  and  O4_31 
ROOT
HETATM    1  C5  UNL     1       1.190  -3.671  21.608  1.00  0.00     0.067 A 
HETATM    2  C6  UNL     1       1.558  -4.991  21.600  1.00  0.00     0.087 A 
HETATM    3  C7  UNL     1       1.899  -5.670  20.366  1.00  0.00     0.103 C 
HETATM    4  N2  UNL     1       2.175  -6.237  19.403  1.00  0.00    -0.191 NA
HETATM    5  C8  UNL     1       1.600  -5.677  22.798  1.00  0.00     0.113 A 
HETATM    6  N3  UNL     1       1.293  -5.088  23.959  1.00  0.00    -0.364 N 
ATOM      7  H3  UNL     1       1.333  -5.623  24.827  1.00  0.00     0.165 HD
HETATM    8  C9  UNL     1       0.930  -3.792  23.983  1.00  0.00     0.045 A 
HETATM    9  C10 UNL     1       0.608  -3.175  25.200  1.00  0.00     0.039 A 
HETATM   10  C11 UNL     1       0.238  -1.859  25.235  1.00  0.00    -0.032 A 
HETATM   11  C12 UNL     1      -0.105  -1.205  26.513  1.00  0.00     0.050 C 
HETATM   12  C13 UNL     1       0.175  -1.108  24.054  1.00  0.00     0.050 A 
HETATM   13  C16 UNL     1       0.489  -1.703  22.848  1.00  0.00     0.046 A 
HETATM   14  C17 UNL     1       0.866  -3.051  22.840  1.00  0.00     0.021 A 
ENDROOT
BRANCH   1  15
HETATM   15  N1  UNL     1       1.112  -2.921  20.619  1.00  0.00    -0.352 N 
ATOM     16  H1  UNL     1       0.225  -2.418  20.642  1.00  0.00     0.166 HD
BRANCH  15  17
HETATM   17  C4  UNL     1       1.825  -2.546  19.510  1.00  0.00     0.069 A 
HETATM   18  C3  UNL     1       1.507  -2.917  18.202  1.00  0.00     0.071 A 
HETATM   19  C2  UNL     1       2.227  -2.512  17.108  1.00  0.00     0.092 A 
HETATM   20  C21 UNL     1       3.329  -1.693  17.267  1.00  0.00     0.070 A 
HETATM   21  C20 UNL     1       3.662  -1.316  18.529  1.00  0.00     0.065 A 
HETATM   22 CL1  UNL     1       4.299  -1.132  15.927  1.00  0.00    -0.081 Cl
HETATM   23  C18 UNL     1       2.952  -1.714  19.631  1.00  0.00     0.096 A 
BRANCH  19  24
HETATM   24  O1  UNL     1       1.872  -2.907  15.841  1.00  0.00    -0.354 OA
HETATM   25  C1  UNL     1       0.867  -2.191  15.155  1.00  0.00     0.210 C 
ENDBRANCH  19  24
BRANCH  23  26
HETATM   26  O4  UNL     1       3.298  -1.325  20.918  1.00  0.00    -0.354 OA
HETATM   27  C19 UNL     1       3.924  -0.046  21.059  1.00  0.00     0.210 C 
ENDBRANCH  23  26
ENDBRANCH  15  17
ENDBRANCH   1  15
BRANCH  12  28
HETATM   28  N4  UNL     1      -0.209   0.231  24.167  1.00  0.00    -0.271 N 
ATOM     29  H4  UNL     1      -1.199   0.430  24.317  1.00  0.00     0.180 HD
BRANCH  28  30
HETATM   30  S1  UNL     1       0.865   1.564  24.070  1.00  0.00     0.302 S 
HETATM   31  O2  UNL     1       0.263   2.873  24.438  1.00  0.00    -0.188 OA
HETATM   32  O3  UNL     1       1.348   1.734  22.626  1.00  0.00    -0.188 OA
BRANCH  30  33
HETATM   33  N5  UNL     1       2.323   1.271  24.968  1.00  0.00    -0.202 NA
HETATM   34  C14 UNL     1       3.479   1.801  24.268  1.00  0.00     0.130 C 
HETATM   35  C15 UNL     1       2.239   1.821  26.306  1.00  0.00     0.130 C 
ENDBRANCH  30  33
ENDBRANCH  28  30
ENDBRANCH  12  28
TORSDOF 7
ENDMDL
