MODEL 1
REMARK VINA RESULT: -7.962174348      0.000      0.000
REMARK  13 active torsions:
REMARK  status: ('A' for Active; 'I' for Inactive)
REMARK    1  A    between atoms: C4_4  and  C5_5 
REMARK    2  A    between atoms: C5_5  and  O1_6 
REMARK    3  A    between atoms: C5_5  and  N1_8 
REMARK    4  A    between atoms: N1_8  and  C6_9 
REMARK    5  A    between atoms: N1_8  and  C16_27 
REMARK    6  A    between atoms: C6_9  and  O2_10 
REMARK    7  A    between atoms: C7_12  and  O3_13 
REMARK    8  A    between atoms: O3_13  and  C8_14 
REMARK    9  A    between atoms: C8_14  and  C9_16 
REMARK   10  A    between atoms: C11_18  and  C12_19 
REMARK   11  A    between atoms: C22_34  and  C23_35 
REMARK   12  A    between atoms: C23_35  and  C24_36 
REMARK   13  A    between atoms: C24_36  and  O5_37 
ROOT
HETATM    1  N1  UNL     1       0.316  -4.272  21.630  1.00  0.00    -0.297 N 
ENDROOT
BRANCH   1   2
HETATM    2  C5  UNL     1       0.313  -3.842  20.315  1.00  0.00     0.155 C 
BRANCH   2   3
HETATM    3  C4  UNL     1       1.221  -3.206  19.405  1.00  0.00     0.017 A 
HETATM    4  C3  UNL     1       0.709  -2.781  18.162  1.00  0.00     0.023 A 
HETATM    5  C2  UNL     1       1.443  -2.044  17.251  1.00  0.00    -0.053 A 
HETATM    6  C1  UNL     1       0.784  -1.729  15.944  1.00  0.00     0.049 C 
HETATM    7  C22 UNL     1       2.728  -1.665  17.487  1.00  0.00    -0.028 A 
HETATM    8  C21 UNL     1       3.255  -2.079  18.716  1.00  0.00     0.041 A 
HETATM    9  C20 UNL     1       2.506  -2.821  19.624  1.00  0.00     0.040 A 
HETATM   10 CL1  UNL     1       4.900  -1.681  19.081  1.00  0.00    -0.084 Cl
BRANCH   7  11
HETATM   11  C23 UNL     1       3.577  -0.818  16.634  1.00  0.00     0.067 C 
BRANCH  11  12
HETATM   12  C24 UNL     1       4.431  -1.488  15.638  1.00  0.00     0.168 C 
BRANCH  12  13
HETATM   13  O5  UNL     1       5.783  -1.469  15.795  1.00  0.00    -0.401 OA
ATOM     14  H5  UNL     1       6.332  -1.918  15.163  1.00  0.00     0.209 HD
ENDBRANCH  12  13
ENDBRANCH  11  12
ENDBRANCH   7  11
ENDBRANCH   2   3
BRANCH   2  15
HETATM   15  O1  UNL     1      -0.902  -4.095  19.749  1.00  0.00    -0.345 OA
ATOM     16  H1  UNL     1      -1.617  -4.009  20.369  1.00  0.00     0.219 HD
ENDBRANCH   2  15
ENDBRANCH   1   2
BRANCH   1  17
HETATM   17  C6  UNL     1       0.481  -3.513  22.773  1.00  0.00     0.168 C 
HETATM   18  C7  UNL     1      -0.449  -2.929  23.712  1.00  0.00     0.202 C 
BRANCH  17  19
HETATM   19  O2  UNL     1       1.740  -3.283  23.076  1.00  0.00    -0.344 OA
ATOM     20  H2  UNL     1       2.155  -2.639  22.514  1.00  0.00     0.219 HD
ENDBRANCH  17  19
BRANCH  18  21
HETATM   21  O3  UNL     1      -0.087  -1.988  24.648  1.00  0.00    -0.282 OA
BRANCH  21  22
HETATM   22  C8  UNL     1      -0.217  -0.683  24.762  1.00  0.00     0.316 C 
HETATM   23  O4  UNL     1      -0.931  -0.148  25.646  1.00  0.00    -0.257 OA
BRANCH  22  24
HETATM   24  C9  UNL     1       0.459   0.280  23.857  1.00  0.00     0.125 A 
HETATM   25  C10 UNL     1       1.472   0.087  22.946  1.00  0.00     0.064 A 
HETATM   26  C11 UNL     1       1.624   1.186  22.128  1.00  0.00     0.035 A 
HETATM   27  N2  UNL     1       0.665   2.067  22.571  1.00  0.00    -0.303 N 
HETATM   28  N3  UNL     1      -0.002   1.539  23.565  1.00  0.00    -0.295 N 
ATOM     29  H2  UNL     1       0.499   2.996  22.183  1.00  0.00     0.186 HD
ATOM     30  H3  UNL     1      -0.764   2.003  24.058  1.00  0.00     0.187 HD
BRANCH  26  31
HETATM   31  C12 UNL     1       2.487   1.404  20.943  1.00  0.00    -0.007 C 
HETATM   32  C13 UNL     1       1.822   1.132  19.653  1.00  0.00     0.021 C 
HETATM   33  C14 UNL     1       3.760   0.594  21.119  1.00  0.00     0.021 C 
HETATM   34  C15 UNL     1       2.973   2.871  20.934  1.00  0.00     0.021 C 
ENDBRANCH  26  31
ENDBRANCH  22  24
ENDBRANCH  21  22
ENDBRANCH  18  21
ENDBRANCH   1  17
BRANCH   1  35
HETATM   35  C16 UNL     1       0.523  -5.754  21.762  1.00  0.00     0.030 C 
HETATM   36  C17 UNL     1      -0.895  -6.350  21.806  1.00  0.00     0.038 C 
HETATM   37  C18 UNL     1       1.412  -6.320  20.745  1.00  0.00     0.038 C 
HETATM   38  C19 UNL     1       1.051  -6.131  23.155  1.00  0.00     0.038 C 
ENDBRANCH   1  35
TORSDOF 13
ENDMDL
MODEL 2
REMARK VINA RESULT: -7.956279956      1.913      5.039
REMARK  13 active torsions:
REMARK  status: ('A' for Active; 'I' for Inactive)
REMARK    1  A    between atoms: C4_4  and  C5_5 
REMARK    2  A    between atoms: C5_5  and  O1_6 
REMARK    3  A    between atoms: C5_5  and  N1_8 
REMARK    4  A    between atoms: N1_8  and  C6_9 
REMARK    5  A    between atoms: N1_8  and  C16_27 
REMARK    6  A    between atoms: C6_9  and  O2_10 
REMARK    7  A    between atoms: C7_12  and  O3_13 
REMARK    8  A    between atoms: O3_13  and  C8_14 
REMARK    9  A    between atoms: C8_14  and  C9_16 
REMARK   10  A    between atoms: C11_18  and  C12_19 
REMARK   11  A    between atoms: C22_34  and  C23_35 
REMARK   12  A    between atoms: C23_35  and  C24_36 
REMARK   13  A    between atoms: C24_36  and  O5_37 
ROOT
HETATM    1  N1  UNL     1       2.325   0.517  22.825  1.00  0.00    -0.297 N 
ENDROOT
BRANCH   1   2
HETATM    2  C5  UNL     1       2.224   0.599  21.448  1.00  0.00     0.155 C 
BRANCH   2   3
HETATM    3  C4  UNL     1       2.883   0.045  20.301  1.00  0.00     0.017 A 
HETATM    4  C3  UNL     1       2.074  -0.415  19.242  1.00  0.00     0.023 A 
HETATM    5  C2  UNL     1       2.583  -0.851  18.032  1.00  0.00    -0.053 A 
HETATM    6  C1  UNL     1       1.600  -1.376  17.032  1.00  0.00     0.049 C 
HETATM    7  C22 UNL     1       3.917  -0.865  17.766  1.00  0.00    -0.028 A 
HETATM    8  C21 UNL     1       4.737  -0.412  18.807  1.00  0.00     0.041 A 
HETATM    9  C20 UNL     1       4.213   0.022  20.019  1.00  0.00     0.040 A 
HETATM   10 CL1  UNL     1       6.452  -0.440  18.572  1.00  0.00    -0.084 Cl
BRANCH   7  11
HETATM   11  C23 UNL     1       4.567  -1.228  16.497  1.00  0.00     0.067 C 
BRANCH  11  12
HETATM   12  C24 UNL     1       4.732  -0.171  15.485  1.00  0.00     0.168 C 
BRANCH  12  13
HETATM   13  O5  UNL     1       5.984   0.205  15.108  1.00  0.00    -0.401 OA
ATOM     14  H5  UNL     1       6.217   0.198  14.187  1.00  0.00     0.209 HD
ENDBRANCH  12  13
ENDBRANCH  11  12
ENDBRANCH   7  11
ENDBRANCH   2   3
BRANCH   2  15
HETATM   15  O1  UNL     1       1.217   1.454  21.109  1.00  0.00    -0.345 OA
ATOM     16  H1  UNL     1       1.534   2.326  20.903  1.00  0.00     0.219 HD
ENDBRANCH   2  15
ENDBRANCH   1   2
BRANCH   1  17
HETATM   17  C6  UNL     1       1.516  -0.186  23.698  1.00  0.00     0.168 C 
HETATM   18  C7  UNL     1       1.789  -0.980  24.874  1.00  0.00     0.202 C 
BRANCH  17  19
HETATM   19  O2  UNL     1       0.236  -0.113  23.406  1.00  0.00    -0.344 OA
ATOM     20  H2  UNL     1      -0.079   0.778  23.299  1.00  0.00     0.219 HD
ENDBRANCH  17  19
BRANCH  18  21
HETATM   21  O3  UNL     1       0.862  -1.812  25.457  1.00  0.00    -0.282 OA
BRANCH  21  22
HETATM   22  C8  UNL     1       0.389  -3.014  25.197  1.00  0.00     0.316 C 
HETATM   23  O4  UNL     1      -0.466  -3.576  25.925  1.00  0.00    -0.257 OA
BRANCH  22  24
HETATM   24  C9  UNL     1       0.823  -3.821  24.029  1.00  0.00     0.125 A 
HETATM   25  C10 UNL     1       0.606  -3.629  22.684  1.00  0.00     0.064 A 
HETATM   26  C11 UNL     1       1.403  -4.462  21.927  1.00  0.00     0.035 A 
HETATM   27  N2  UNL     1       2.118  -5.177  22.859  1.00  0.00    -0.303 N 
HETATM   28  N3  UNL     1       1.781  -4.802  24.065  1.00  0.00    -0.295 N 
ATOM     29  H2  UNL     1       2.810  -5.894  22.641  1.00  0.00     0.186 HD
ATOM     30  H3  UNL     1       2.178  -5.189  24.921  1.00  0.00     0.187 HD
BRANCH  26  31
HETATM   31  C12 UNL     1       1.608  -4.541  20.461  1.00  0.00    -0.007 C 
HETATM   32  C13 UNL     1       0.594  -3.817  19.669  1.00  0.00     0.021 C 
HETATM   33  C14 UNL     1       1.712  -6.004  20.067  1.00  0.00     0.021 C 
HETATM   34  C15 UNL     1       2.997  -3.958  20.113  1.00  0.00     0.021 C 
ENDBRANCH  26  31
ENDBRANCH  22  24
ENDBRANCH  21  22
ENDBRANCH  18  21
ENDBRANCH   1  17
BRANCH   1  35
HETATM   35  C16 UNL     1       3.183   1.599  23.416  1.00  0.00     0.030 C 
HETATM   36  C17 UNL     1       2.331   2.209  24.544  1.00  0.00     0.038 C 
HETATM   37  C18 UNL     1       4.519   1.146  23.810  1.00  0.00     0.038 C 
HETATM   38  C19 UNL     1       3.321   2.796  22.463  1.00  0.00     0.038 C 
ENDBRANCH   1  35
TORSDOF 13
ENDMDL
MODEL 3
REMARK VINA RESULT: -7.912978040      1.587      2.027
REMARK  13 active torsions:
REMARK  status: ('A' for Active; 'I' for Inactive)
REMARK    1  A    between atoms: C4_4  and  C5_5 
REMARK    2  A    between atoms: C5_5  and  O1_6 
REMARK    3  A    between atoms: C5_5  and  N1_8 
REMARK    4  A    between atoms: N1_8  and  C6_9 
REMARK    5  A    between atoms: N1_8  and  C16_27 
REMARK    6  A    between atoms: C6_9  and  O2_10 
REMARK    7  A    between atoms: C7_12  and  O3_13 
REMARK    8  A    between atoms: O3_13  and  C8_14 
REMARK    9  A    between atoms: C8_14  and  C9_16 
REMARK   10  A    between atoms: C11_18  and  C12_19 
REMARK   11  A    between atoms: C22_34  and  C23_35 
REMARK   12  A    between atoms: C23_35  and  C24_36 
REMARK   13  A    between atoms: C24_36  and  O5_37 
ROOT
HETATM    1  N1  UNL     1       0.791  -3.682  22.267  1.00  0.00    -0.297 N 
ENDROOT
BRANCH   1   2
HETATM    2  C5  UNL     1       1.897  -3.392  21.488  1.00  0.00     0.155 C 
BRANCH   2   3
HETATM    3  C4  UNL     1       2.198  -2.617  20.320  1.00  0.00     0.017 A 
HETATM    4  C3  UNL     1       3.511  -2.122  20.185  1.00  0.00     0.023 A 
HETATM    5  C2  UNL     1       3.965  -1.473  19.052  1.00  0.00    -0.053 A 
HETATM    6  C1  UNL     1       5.364  -0.941  19.088  1.00  0.00     0.049 C 
HETATM    7  C22 UNL     1       3.173  -1.264  17.966  1.00  0.00    -0.028 A 
HETATM    8  C21 UNL     1       1.864  -1.748  18.081  1.00  0.00     0.041 A 
HETATM    9  C20 UNL     1       1.420  -2.398  19.227  1.00  0.00     0.040 A 
HETATM   10 CL1  UNL     1       0.772  -1.484  16.764  1.00  0.00    -0.084 Cl
BRANCH   7  11
HETATM   11  C23 UNL     1       3.564  -0.661  16.682  1.00  0.00     0.067 C 
BRANCH  11  12
HETATM   12  C24 UNL     1       4.171  -1.541  15.669  1.00  0.00     0.168 C 
BRANCH  12  13
HETATM   13  O5  UNL     1       3.506  -2.659  15.269  1.00  0.00    -0.401 OA
ATOM     14  H5  UNL     1       3.727  -3.498  15.656  1.00  0.00     0.209 HD
ENDBRANCH  12  13
ENDBRANCH  11  12
ENDBRANCH   7  11
ENDBRANCH   2   3
BRANCH   2  15
HETATM   15  O1  UNL     1       2.991  -4.040  21.982  1.00  0.00    -0.345 OA
ATOM     16  H1  UNL     1       3.347  -3.616  22.754  1.00  0.00     0.219 HD
ENDBRANCH   2  15
ENDBRANCH   1   2
BRANCH   1  17
HETATM   17  C6  UNL     1       0.422  -3.106  23.468  1.00  0.00     0.168 C 
HETATM   18  C7  UNL     1      -0.743  -2.360  23.889  1.00  0.00     0.202 C 
BRANCH  17  19
HETATM   19  O2  UNL     1       1.303  -3.277  24.429  1.00  0.00    -0.344 OA
ATOM     20  H2  UNL     1       0.956  -3.116  25.298  1.00  0.00     0.219 HD
ENDBRANCH  17  19
BRANCH  18  21
HETATM   21  O3  UNL     1      -0.802  -1.650  25.065  1.00  0.00    -0.282 OA
BRANCH  21  22
HETATM   22  C8  UNL     1      -0.495  -0.424  25.435  1.00  0.00     0.316 C 
HETATM   23  O4  UNL     1      -0.839   0.055  26.543  1.00  0.00    -0.257 OA
BRANCH  22  24
HETATM   24  C9  UNL     1       0.279   0.510  24.579  1.00  0.00     0.125 A 
HETATM   25  C10 UNL     1       1.389   0.289  23.795  1.00  0.00     0.064 A 
HETATM   26  C11 UNL     1       1.632   1.361  22.962  1.00  0.00     0.035 A 
HETATM   27  N2  UNL     1       0.629   2.253  23.264  1.00  0.00    -0.303 N 
HETATM   28  N3  UNL     1      -0.145   1.756  24.194  1.00  0.00    -0.295 N 
ATOM     29  H2  UNL     1       0.508   3.167  22.827  1.00  0.00     0.186 HD
ATOM     30  H3  UNL     1      -0.958   2.234  24.582  1.00  0.00     0.187 HD
BRANCH  26  31
HETATM   31  C12 UNL     1       2.624   1.540  21.875  1.00  0.00    -0.007 C 
HETATM   32  C13 UNL     1       2.072   1.359  20.518  1.00  0.00     0.021 C 
HETATM   33  C14 UNL     1       3.806   0.627  22.145  1.00  0.00     0.021 C 
HETATM   34  C15 UNL     1       3.220   2.964  21.966  1.00  0.00     0.021 C 
ENDBRANCH  26  31
ENDBRANCH  22  24
ENDBRANCH  21  22
ENDBRANCH  18  21
ENDBRANCH   1  17
BRANCH   1  35
HETATM   35  C16 UNL     1       0.159  -5.000  21.923  1.00  0.00     0.030 C 
HETATM   36  C17 UNL     1      -0.988  -4.651  20.959  1.00  0.00     0.038 C 
HETATM   37  C18 UNL     1       1.110  -6.002  21.436  1.00  0.00     0.038 C 
HETATM   38  C19 UNL     1      -0.617  -5.584  23.114  1.00  0.00     0.038 C 
ENDBRANCH   1  35
TORSDOF 13
ENDMDL
MODEL 4
REMARK VINA RESULT: -7.874002285      2.051      5.265
REMARK  13 active torsions:
REMARK  status: ('A' for Active; 'I' for Inactive)
REMARK    1  A    between atoms: C4_4  and  C5_5 
REMARK    2  A    between atoms: C5_5  and  O1_6 
REMARK    3  A    between atoms: C5_5  and  N1_8 
REMARK    4  A    between atoms: N1_8  and  C6_9 
REMARK    5  A    between atoms: N1_8  and  C16_27 
REMARK    6  A    between atoms: C6_9  and  O2_10 
REMARK    7  A    between atoms: C7_12  and  O3_13 
REMARK    8  A    between atoms: O3_13  and  C8_14 
REMARK    9  A    between atoms: C8_14  and  C9_16 
REMARK   10  A    between atoms: C11_18  and  C12_19 
REMARK   11  A    between atoms: C22_34  and  C23_35 
REMARK   12  A    between atoms: C23_35  and  C24_36 
REMARK   13  A    between atoms: C24_36  and  O5_37 
ROOT
HETATM    1  N1  UNL     1       1.882   0.133  23.103  1.00  0.00    -0.297 N 
ENDROOT
BRANCH   1   2
HETATM    2  C5  UNL     1       2.869  -0.372  22.276  1.00  0.00     0.155 C 
BRANCH   2   3
HETATM    3  C4  UNL     1       3.085  -0.551  20.869  1.00  0.00     0.017 A 
HETATM    4  C3  UNL     1       4.393  -0.357  20.379  1.00  0.00     0.023 A 
HETATM    5  C2  UNL     1       4.761  -0.621  19.073  1.00  0.00    -0.053 A 
HETATM    6  C1  UNL     1       6.170  -0.297  18.685  1.00  0.00     0.049 C 
HETATM    7  C22 UNL     1       3.882  -1.099  18.151  1.00  0.00    -0.028 A 
HETATM    8  C21 UNL     1       2.577  -1.297  18.619  1.00  0.00     0.041 A 
HETATM    9  C20 UNL     1       2.219  -1.026  19.935  1.00  0.00     0.040 A 
HETATM   10 CL1  UNL     1       1.380  -1.859  17.501  1.00  0.00    -0.084 Cl
BRANCH   7  11
HETATM   11  C23 UNL     1       4.173  -1.491  16.763  1.00  0.00     0.067 C 
BRANCH  11  12
HETATM   12  C24 UNL     1       4.229  -0.425  15.748  1.00  0.00     0.168 C 
BRANCH  12  13
HETATM   13  O5  UNL     1       5.432  -0.061  15.226  1.00  0.00    -0.401 OA
ATOM     14  H5  UNL     1       5.813   0.775  15.470  1.00  0.00     0.209 HD
ENDBRANCH  12  13
ENDBRANCH  11  12
ENDBRANCH   7  11
ENDBRANCH   2   3
BRANCH   2  15
HETATM   15  O1  UNL     1       3.914  -0.825  23.026  1.00  0.00    -0.345 OA
ATOM     16  H1  UNL     1       3.629  -1.250  23.826  1.00  0.00     0.219 HD
ENDBRANCH   2  15
ENDBRANCH   1   2
BRANCH   1  17
HETATM   17  C6  UNL     1       0.920  -0.569  23.806  1.00  0.00     0.168 C 
HETATM   18  C7  UNL     1       0.880  -1.119  25.142  1.00  0.00     0.202 C 
BRANCH  17  19
HETATM   19  O2  UNL     1      -0.187  -0.771  23.127  1.00  0.00    -0.344 OA
ATOM     20  H2  UNL     1      -0.544  -1.645  23.231  1.00  0.00     0.219 HD
ENDBRANCH  17  19
BRANCH  18  21
HETATM   21  O3  UNL     1      -0.079  -2.009  25.564  1.00  0.00    -0.282 OA
BRANCH  21  22
HETATM   22  C8  UNL     1      -0.271  -3.306  25.441  1.00  0.00     0.316 C 
HETATM   23  O4  UNL     1      -1.060  -3.947  26.179  1.00  0.00    -0.257 OA
BRANCH  22  24
HETATM   24  C9  UNL     1       0.428  -4.136  24.428  1.00  0.00     0.125 A 
HETATM   25  C10 UNL     1       0.240  -4.227  23.067  1.00  0.00     0.064 A 
HETATM   26  C11 UNL     1       1.272  -4.917  22.467  1.00  0.00     0.035 A 
HETATM   27  N2  UNL     1       2.103  -5.250  23.511  1.00  0.00    -0.303 N 
HETATM   28  N3  UNL     1       1.611  -4.797  24.635  1.00  0.00    -0.295 N 
ATOM     29  H2  UNL     1       2.974  -5.774  23.421  1.00  0.00     0.186 HD
ATOM     30  H3  UNL     1       2.051  -4.919  25.547  1.00  0.00     0.187 HD
BRANCH  26  31
HETATM   31  C12 UNL     1       1.570  -5.167  21.036  1.00  0.00    -0.007 C 
HETATM   32  C13 UNL     1       1.520  -6.590  20.649  1.00  0.00     0.021 C 
HETATM   33  C14 UNL     1       2.904  -4.523  20.702  1.00  0.00     0.021 C 
HETATM   34  C15 UNL     1       0.551  -4.395  20.166  1.00  0.00     0.021 C 
ENDBRANCH  26  31
ENDBRANCH  22  24
ENDBRANCH  21  22
ENDBRANCH  18  21
ENDBRANCH   1  17
BRANCH   1  35
HETATM   35  C16 UNL     1       1.639   1.601  22.901  1.00  0.00     0.030 C 
HETATM   36  C17 UNL     1       2.995   2.270  23.188  1.00  0.00     0.038 C 
HETATM   37  C18 UNL     1       1.036   1.928  21.606  1.00  0.00     0.038 C 
HETATM   38  C19 UNL     1       0.769   2.191  24.021  1.00  0.00     0.038 C 
ENDBRANCH   1  35
TORSDOF 13
ENDMDL
MODEL 5
REMARK VINA RESULT: -7.811248559      1.179      1.293
REMARK  13 active torsions:
REMARK  status: ('A' for Active; 'I' for Inactive)
REMARK    1  A    between atoms: C4_4  and  C5_5 
REMARK    2  A    between atoms: C5_5  and  O1_6 
REMARK    3  A    between atoms: C5_5  and  N1_8 
REMARK    4  A    between atoms: N1_8  and  C6_9 
REMARK    5  A    between atoms: N1_8  and  C16_27 
REMARK    6  A    between atoms: C6_9  and  O2_10 
REMARK    7  A    between atoms: C7_12  and  O3_13 
REMARK    8  A    between atoms: O3_13  and  C8_14 
REMARK    9  A    between atoms: C8_14  and  C9_16 
REMARK   10  A    between atoms: C11_18  and  C12_19 
REMARK   11  A    between atoms: C22_34  and  C23_35 
REMARK   12  A    between atoms: C23_35  and  C24_36 
REMARK   13  A    between atoms: C24_36  and  O5_37 
ROOT
HETATM    1  N1  UNL     1       0.762  -3.788  22.125  1.00  0.00    -0.297 N 
ENDROOT
BRANCH   1   2
HETATM    2  C5  UNL     1       1.966  -3.682  21.451  1.00  0.00     0.155 C 
BRANCH   2   3
HETATM    3  C4  UNL     1       2.477  -3.008  20.293  1.00  0.00     0.017 A 
HETATM    4  C3  UNL     1       1.616  -2.871  19.184  1.00  0.00     0.023 A 
HETATM    5  C2  UNL     1       1.939  -2.134  18.059  1.00  0.00    -0.053 A 
HETATM    6  C1  UNL     1       0.950  -2.142  16.935  1.00  0.00     0.049 C 
HETATM    7  C22 UNL     1       3.123  -1.474  17.936  1.00  0.00    -0.028 A 
HETATM    8  C21 UNL     1       3.991  -1.600  19.027  1.00  0.00     0.041 A 
HETATM    9  C20 UNL     1       3.655  -2.345  20.151  1.00  0.00     0.040 A 
HETATM   10 CL1  UNL     1       5.540  -0.831  18.935  1.00  0.00    -0.084 Cl
BRANCH   7  11
HETATM   11  C23 UNL     1       3.542  -0.600  16.829  1.00  0.00     0.067 C 
BRANCH  11  12
HETATM   12  C24 UNL     1       4.316  -1.206  15.732  1.00  0.00     0.168 C 
BRANCH  12  13
HETATM   13  O5  UNL     1       5.557  -0.729  15.446  1.00  0.00    -0.401 OA
ATOM     14  H5  UNL     1       5.817  -0.617  14.538  1.00  0.00     0.209 HD
ENDBRANCH  12  13
ENDBRANCH  11  12
ENDBRANCH   7  11
ENDBRANCH   2   3
BRANCH   2  15
HETATM   15  O1  UNL     1       2.912  -4.442  22.073  1.00  0.00    -0.345 OA
ATOM     16  H1  UNL     1       2.548  -4.982  22.764  1.00  0.00     0.219 HD
ENDBRANCH   2  15
ENDBRANCH   1   2
BRANCH   1  17
HETATM   17  C6  UNL     1       0.399  -3.191  23.317  1.00  0.00     0.168 C 
HETATM   18  C7  UNL     1      -0.748  -2.407  23.719  1.00  0.00     0.202 C 
BRANCH  17  19
HETATM   19  O2  UNL     1       1.265  -3.379  24.287  1.00  0.00    -0.344 OA
ATOM     20  H2  UNL     1       1.083  -2.867  25.067  1.00  0.00     0.219 HD
ENDBRANCH  17  19
BRANCH  18  21
HETATM   21  O3  UNL     1      -0.797  -1.685  24.888  1.00  0.00    -0.282 OA
BRANCH  21  22
HETATM   22  C8  UNL     1      -0.492  -0.453  25.241  1.00  0.00     0.316 C 
HETATM   23  O4  UNL     1      -0.823   0.035  26.350  1.00  0.00    -0.257 OA
BRANCH  22  24
HETATM   24  C9  UNL     1       0.262   0.478  24.364  1.00  0.00     0.125 A 
HETATM   25  C10 UNL     1       1.369   0.259  23.576  1.00  0.00     0.064 A 
HETATM   26  C11 UNL     1       1.591   1.320  22.724  1.00  0.00     0.035 A 
HETATM   27  N2  UNL     1       0.579   2.204  23.019  1.00  0.00    -0.303 N 
HETATM   28  N3  UNL     1      -0.182   1.712  23.963  1.00  0.00    -0.295 N 
ATOM     29  H2  UNL     1       0.442   3.109  22.569  1.00  0.00     0.186 HD
ATOM     30  H3  UNL     1      -0.999   2.184  24.350  1.00  0.00     0.187 HD
BRANCH  26  31
HETATM   31  C12 UNL     1       2.572   1.496  21.626  1.00  0.00    -0.007 C 
HETATM   32  C13 UNL     1       2.031   1.216  20.282  1.00  0.00     0.021 C 
HETATM   33  C14 UNL     1       3.800   0.662  21.940  1.00  0.00     0.021 C 
HETATM   34  C15 UNL     1       3.091   2.952  21.642  1.00  0.00     0.021 C 
ENDBRANCH  26  31
ENDBRANCH  22  24
ENDBRANCH  21  22
ENDBRANCH  18  21
ENDBRANCH   1  17
BRANCH   1  35
HETATM   35  C16 UNL     1      -0.062  -4.960  21.673  1.00  0.00     0.030 C 
HETATM   36  C17 UNL     1      -1.145  -4.355  20.761  1.00  0.00     0.038 C 
HETATM   37  C18 UNL     1       0.725  -6.044  21.082  1.00  0.00     0.038 C 
HETATM   38  C19 UNL     1      -0.916  -5.527  22.817  1.00  0.00     0.038 C 
ENDBRANCH   1  35
TORSDOF 13
ENDMDL
