MODEL 1
REMARK VINA RESULT: -7.436467539      0.000      0.000
REMARK  0 active torsions:
REMARK  status: ('A' for Active; 'I' for Inactive)
ROOT
HETATM    1  N1  UNL     1      35.123  35.958  36.656  1.00  0.00    -0.082 NA
HETATM    2  C1  UNL     1      33.815  36.428  37.080  1.00  0.00     0.130 C 
HETATM    3  C2  UNL     1      33.575  36.334  38.366  1.00  0.00     0.052 C 
HETATM    4 CL1  UNL     1      34.817  35.667  39.466  1.00  0.00    -0.085 Cl
HETATM    5  C3  UNL     1      32.326  36.729  39.063  1.00  0.00     0.055 C 
HETATM    6  C4  UNL     1      31.388  35.545  39.231  1.00  0.00     0.016 C 
HETATM    7  C5  UNL     1      30.615  35.579  40.504  1.00  0.00     0.074 C 
HETATM    8  S1  UNL     1      28.821  35.730  40.214  1.00  0.00    -0.169 SA
HETATM    9  C6  UNL     1      28.564  36.606  38.678  1.00  0.00     0.074 C 
HETATM   10  C7  UNL     1      27.340  37.459  38.633  1.00  0.00     0.014 C 
HETATM   11  C8  UNL     1      27.613  38.534  37.567  1.00  0.00     0.027 C 
HETATM   12  C9  UNL     1      28.793  39.355  37.949  1.00  0.00    -0.031 C 
HETATM   13  C10 UNL     1      29.824  39.626  37.180  1.00  0.00    -0.031 C 
HETATM   14  C11 UNL     1      30.046  39.192  35.798  1.00  0.00     0.028 C 
HETATM   15  C12 UNL     1      30.886  37.972  35.643  1.00  0.00     0.023 C 
HETATM   16  C13 UNL     1      32.354  38.203  35.941  1.00  0.00     0.121 C 
HETATM   17  N2  UNL     1      32.993  36.907  36.044  1.00  0.00    -0.377 N 
ATOM     18  H2  UNL     1      32.826  36.263  35.270  1.00  0.00     0.160 HD
ENDROOT
TORSDOF 0
ENDMDL
MODEL 2
REMARK VINA RESULT: -7.081472323      3.602      6.173
REMARK  0 active torsions:
REMARK  status: ('A' for Active; 'I' for Inactive)
ROOT
HETATM    1  N1  UNL     1      26.421  36.027  39.640  1.00  0.00    -0.082 NA
HETATM    2  C1  UNL     1      27.819  36.219  39.294  1.00  0.00     0.130 C 
HETATM    3  C2  UNL     1      28.117  37.396  38.797  1.00  0.00     0.052 C 
HETATM    4 CL1  UNL     1      26.843  38.632  38.588  1.00  0.00    -0.085 Cl
HETATM    5  C3  UNL     1      29.457  37.854  38.354  1.00  0.00     0.055 C 
HETATM    6  C4  UNL     1      29.647  37.644  36.860  1.00  0.00     0.016 C 
HETATM    7  C5  UNL     1      30.461  38.710  36.212  1.00  0.00     0.074 C 
HETATM    8  S1  UNL     1      32.021  38.062  35.527  1.00  0.00    -0.169 SA
HETATM    9  C6  UNL     1      32.525  36.648  36.496  1.00  0.00     0.074 C 
HETATM   10  C7  UNL     1      34.000  36.460  36.623  1.00  0.00     0.014 C 
HETATM   11  C8  UNL     1      34.213  35.643  37.909  1.00  0.00     0.027 C 
HETATM   12  C9  UNL     1      33.690  36.385  39.087  1.00  0.00    -0.031 C 
HETATM   13  C10 UNL     1      32.876  35.905  40.000  1.00  0.00    -0.031 C 
HETATM   14  C11 UNL     1      32.305  34.557  40.068  1.00  0.00     0.028 C 
HETATM   15  C12 UNL     1      30.939  34.415  39.492  1.00  0.00     0.023 C 
HETATM   16  C13 UNL     1      29.855  35.055  40.336  1.00  0.00     0.121 C 
HETATM   17  N2  UNL     1      28.648  35.108  39.536  1.00  0.00    -0.377 N 
ATOM     18  H2  UNL     1      28.364  34.233  39.095  1.00  0.00     0.160 HD
ENDROOT
TORSDOF 0
ENDMDL
MODEL 3
REMARK VINA RESULT: -6.735603738      3.611      5.697
REMARK  0 active torsions:
REMARK  status: ('A' for Active; 'I' for Inactive)
ROOT
HETATM    1  N1  UNL     1      27.419  34.511  41.327  1.00  0.00    -0.082 NA
HETATM    2  C1  UNL     1      28.308  35.261  40.455  1.00  0.00     0.130 C 
HETATM    3  C2  UNL     1      27.903  36.471  40.150  1.00  0.00     0.052 C 
HETATM    4 CL1  UNL     1      26.356  37.092  40.797  1.00  0.00    -0.085 Cl
HETATM    5  C3  UNL     1      28.605  37.444  39.277  1.00  0.00     0.055 C 
HETATM    6  C4  UNL     1      28.099  37.369  37.845  1.00  0.00     0.016 C 
HETATM    7  C5  UNL     1      28.072  38.690  37.158  1.00  0.00     0.074 C 
HETATM    8  S1  UNL     1      29.211  38.747  35.736  1.00  0.00    -0.169 SA
HETATM    9  C6  UNL     1      30.571  37.632  36.050  1.00  0.00     0.074 C 
HETATM   10  C7  UNL     1      31.881  38.054  35.473  1.00  0.00     0.014 C 
HETATM   11  C8  UNL     1      32.960  37.359  36.322  1.00  0.00     0.027 C 
HETATM   12  C9  UNL     1      32.863  37.793  37.741  1.00  0.00    -0.031 C 
HETATM   13  C10 UNL     1      32.820  37.000  38.788  1.00  0.00    -0.031 C 
HETATM   14  C11 UNL     1      32.854  35.536  38.801  1.00  0.00     0.028 C 
HETATM   15  C12 UNL     1      31.524  34.869  38.866  1.00  0.00     0.023 C 
HETATM   16  C13 UNL     1      30.848  34.992  40.217  1.00  0.00     0.121 C 
HETATM   17  N2  UNL     1      29.470  34.574  40.060  1.00  0.00    -0.377 N 
ATOM     18  H2  UNL     1      29.325  33.672  39.607  1.00  0.00     0.160 HD
ENDROOT
TORSDOF 0
ENDMDL
MODEL 4
REMARK VINA RESULT: -6.238126925      3.769      5.409
REMARK  0 active torsions:
REMARK  status: ('A' for Active; 'I' for Inactive)
ROOT
HETATM    1  N1  UNL     1      25.574  36.775  41.449  1.00  0.00    -0.082 NA
HETATM    2  C1  UNL     1      26.703  36.795  40.533  1.00  0.00     0.130 C 
HETATM    3  C2  UNL     1      27.519  35.771  40.626  1.00  0.00     0.052 C 
HETATM    4 CL1  UNL     1      27.203  34.476  41.818  1.00  0.00    -0.085 Cl
HETATM    5  C3  UNL     1      28.746  35.544  39.825  1.00  0.00     0.055 C 
HETATM    6  C4  UNL     1      29.982  36.055  40.549  1.00  0.00     0.016 C 
HETATM    7  C5  UNL     1      31.193  35.220  40.313  1.00  0.00     0.074 C 
HETATM    8  S1  UNL     1      32.502  36.142  39.440  1.00  0.00    -0.169 SA
HETATM    9  C6  UNL     1      31.734  37.387  38.414  1.00  0.00     0.074 C 
HETATM   10  C7  UNL     1      32.456  37.694  37.144  1.00  0.00     0.014 C 
HETATM   11  C8  UNL     1      31.399  38.266  36.184  1.00  0.00     0.027 C 
HETATM   12  C9  UNL     1      30.330  37.263  35.933  1.00  0.00    -0.031 C 
HETATM   13  C10 UNL     1      29.037  37.475  36.032  1.00  0.00    -0.031 C 
HETATM   14  C11 UNL     1      28.362  38.720  36.407  1.00  0.00     0.028 C 
HETATM   15  C12 UNL     1      27.984  38.831  37.843  1.00  0.00     0.023 C 
HETATM   16  C13 UNL     1      26.827  37.936  38.239  1.00  0.00     0.121 C 
HETATM   17  N2  UNL     1      26.760  37.916  39.686  1.00  0.00    -0.377 N 
ATOM     18  H2  UNL     1      26.752  38.826  40.146  1.00  0.00     0.160 HD
ENDROOT
TORSDOF 0
ENDMDL
MODEL 5
REMARK VINA RESULT: -6.054095680      2.352      4.137
REMARK  0 active torsions:
REMARK  status: ('A' for Active; 'I' for Inactive)
ROOT
HETATM    1  N1  UNL     1      34.018  35.923  39.120  1.00  0.00    -0.082 NA
HETATM    2  C1  UNL     1      32.586  36.130  38.983  1.00  0.00     0.130 C 
HETATM    3  C2  UNL     1      32.153  36.249  37.750  1.00  0.00     0.052 C 
HETATM    4 CL1  UNL     1      33.300  36.153  36.381  1.00  0.00    -0.085 Cl
HETATM    5  C3  UNL     1      30.750  36.475  37.325  1.00  0.00     0.055 C 
HETATM    6  C4  UNL     1      30.464  37.954  37.121  1.00  0.00     0.016 C 
HETATM    7  C5  UNL     1      29.517  38.224  36.004  1.00  0.00     0.074 C 
HETATM    8  S1  UNL     1      27.968  38.990  36.588  1.00  0.00    -0.169 SA
HETATM    9  C6  UNL     1      27.661  38.448  38.262  1.00  0.00     0.074 C 
HETATM   10  C7  UNL     1      26.221  38.309  38.628  1.00  0.00     0.014 C 
HETATM   11  C8  UNL     1      26.176  37.306  39.794  1.00  0.00     0.027 C 
HETATM   12  C9  UNL     1      26.724  35.991  39.367  1.00  0.00    -0.031 C 
HETATM   13  C10 UNL     1      27.643  35.297  40.000  1.00  0.00    -0.031 C 
HETATM   14  C11 UNL     1      28.328  35.650  41.246  1.00  0.00     0.028 C 
HETATM   15  C12 UNL     1      29.653  36.309  41.078  1.00  0.00     0.023 C 
HETATM   16  C13 UNL     1      30.742  35.371  40.596  1.00  0.00     0.121 C 
HETATM   17  N2  UNL     1      31.875  36.179  40.195  1.00  0.00    -0.377 N 
ATOM     18  H2  UNL     1      32.196  36.868  40.875  1.00  0.00     0.160 HD
ENDROOT
TORSDOF 0
ENDMDL
