MODEL 1
REMARK VINA RESULT: -9.281957779      0.000      0.000
REMARK  11 active torsions:
REMARK  status: ('A' for Active; 'I' for Inactive)
REMARK    1  A    between atoms: C2_2  and  C3_3 
REMARK    2  A    between atoms: C3_3  and  N1_4 
REMARK       I    between atoms: N1_4  and  C4_6 
REMARK    3  A    between atoms: C4_6  and  C5_8 
REMARK       I    between atoms: N2_12  and  C9_13 
REMARK    4  A    between atoms: C9_13  and  C10_15 
REMARK    5  A    between atoms: C10_15  and  N3_16 
REMARK    6  A    between atoms: C12_18  and  C13_19 
REMARK       I    between atoms: C13_19  and  N4_21 
REMARK    7  A    between atoms: N4_21  and  C14_23 
REMARK    8  A    between atoms: C26_35  and  C27_36 
REMARK    9  A    between atoms: C28_37  and  C29_38 
REMARK   10  A    between atoms: C29_38  and  O5_40 
REMARK   11  A    between atoms: O5_40  and  C30_41 
ROOT
HETATM    1  N3  UNL     1       4.389  -0.604  12.278  1.00  0.00    -0.346 N 
HETATM    2  C11 UNL     1       4.555  -1.262  13.434  1.00  0.00     0.109 A 
HETATM    3  C12 UNL     1       5.894  -1.212  13.844  1.00  0.00     0.060 A 
HETATM    4  C23 UNL     1       6.496  -0.486  12.850  1.00  0.00     0.008 A 
HETATM    5  C24 UNL     1       7.811  -0.094  12.650  1.00  0.00     0.015 A 
HETATM    6  C25 UNL     1       8.164   0.643  11.533  1.00  0.00     0.012 A 
HETATM    7  C26 UNL     1       7.248   1.025  10.563  1.00  0.00    -0.034 A 
HETATM    8  C31 UNL     1       5.944   0.638  10.758  1.00  0.00     0.042 A 
HETATM    9  C32 UNL     1       5.578  -0.106  11.883  1.00  0.00     0.046 A 
ENDROOT
BRANCH   1  10
HETATM   10  C10 UNL     1       3.144  -0.441  11.534  1.00  0.00     0.231 C 
BRANCH  10  11
HETATM   11  C9  UNL     1       2.105   0.297  12.261  1.00  0.00     0.238 C 
HETATM   12  N2  UNL     1       1.543   1.478  11.731  1.00  0.00    -0.337 N 
HETATM   13  C5  UNL     1       1.853   2.126  10.491  1.00  0.00     0.179 C 
HETATM   14  C8  UNL     1       0.513   2.294  12.359  1.00  0.00     0.127 C 
HETATM   15  C6  UNL     1       0.482   2.536   9.957  1.00  0.00     0.037 C 
HETATM   16  C7  UNL     1      -0.248   2.864  11.217  1.00  0.00     0.022 C 
HETATM   17  O2  UNL     1       1.703  -0.119  13.375  1.00  0.00    -0.272 OA
BRANCH  13  18
HETATM   18  C4  UNL     1       2.700   3.350  10.651  1.00  0.00     0.240 C 
HETATM   19  N1  UNL     1       3.714   3.375  11.640  1.00  0.00    -0.356 N 
ATOM     20  H1  UNL     1       3.830   2.547  12.224  1.00  0.00     0.162 HD
HETATM   21  O1  UNL     1       2.470   4.319   9.889  1.00  0.00    -0.271 OA
BRANCH  19  22
HETATM   22  C3  UNL     1       4.583   4.483  11.873  1.00  0.00     0.149 C 
BRANCH  22  23
HETATM   23  C2  UNL     1       5.904   4.320  11.256  1.00  0.00    -0.018 C 
HETATM   24  C1  UNL     1       7.072   4.516  11.810  1.00  0.00     0.008 C 
ENDBRANCH  22  23
ENDBRANCH  19  22
ENDBRANCH  13  18
ENDBRANCH  10  11
ENDBRANCH   1  10
BRANCH   3  25
HETATM   25  C13 UNL     1       6.382  -1.777  15.060  1.00  0.00     0.254 C 
HETATM   26  O3  UNL     1       5.949  -1.234  16.151  1.00  0.00    -0.268 OA
HETATM   27  N4  UNL     1       7.281  -2.850  15.187  1.00  0.00    -0.352 N 
ATOM     28  H4  UNL     1       7.659  -3.311  14.358  1.00  0.00     0.163 HD
BRANCH  27  29
HETATM   29  C14 UNL     1       7.668  -3.302  16.544  1.00  0.00     0.085 C 
HETATM   30  C15 UNL     1       6.901  -4.540  16.852  1.00  0.00     0.025 C 
HETATM   31  C16 UNL     1       7.528  -5.320  17.954  1.00  0.00     0.007 C 
HETATM   32  C17 UNL     1       8.977  -5.638  17.777  1.00  0.00    -0.010 C 
HETATM   33  C18 UNL     1       9.083  -7.035  17.193  1.00  0.00     0.005 C 
HETATM   34  C21 UNL     1       9.692  -4.801  16.782  1.00  0.00    -0.009 C 
HETATM   35  C19 UNL     1       9.084  -6.866  15.689  1.00  0.00     0.001 C 
HETATM   36  C20 UNL     1       9.787  -5.556  15.489  1.00  0.00     0.005 C 
HETATM   37  C22 UNL     1       9.148  -3.412  16.614  1.00  0.00     0.030 C 
ENDBRANCH  27  29
ENDBRANCH   3  25
BRANCH   7  38
HETATM   38  C27 UNL     1       7.669   1.799   9.406  1.00  0.00     0.017 C 
HETATM   39  C28 UNL     1       6.933   1.990   8.337  1.00  0.00     0.083 C 
BRANCH  39  40
HETATM   40  C29 UNL     1       7.460   2.781   7.241  1.00  0.00     0.291 C 
HETATM   41  O4  UNL     1       6.902   2.741   6.125  1.00  0.00    -0.260 OA
BRANCH  40  42
HETATM   42  O5  UNL     1       8.574   3.569   7.448  1.00  0.00    -0.226 OA
BRANCH  42  43
HETATM   43  C30 UNL     1       8.453   4.826   8.064  1.00  0.00     0.380 C 
HETATM   44  N5  UNL     1       9.425   5.246   9.009  1.00  0.00    -0.032 NA
HETATM   45  O6  UNL     1       7.485   5.571   7.777  1.00  0.00    -0.242 OA
ENDBRANCH  42  43
ENDBRANCH  40  42
ENDBRANCH  39  40
ENDBRANCH   7  38
TORSDOF 11
ENDMDL
MODEL 2
REMARK VINA RESULT: -9.248243854      1.944      4.760
REMARK  11 active torsions:
REMARK  status: ('A' for Active; 'I' for Inactive)
REMARK    1  A    between atoms: C2_2  and  C3_3 
REMARK    2  A    between atoms: C3_3  and  N1_4 
REMARK       I    between atoms: N1_4  and  C4_6 
REMARK    3  A    between atoms: C4_6  and  C5_8 
REMARK       I    between atoms: N2_12  and  C9_13 
REMARK    4  A    between atoms: C9_13  and  C10_15 
REMARK    5  A    between atoms: C10_15  and  N3_16 
REMARK    6  A    between atoms: C12_18  and  C13_19 
REMARK       I    between atoms: C13_19  and  N4_21 
REMARK    7  A    between atoms: N4_21  and  C14_23 
REMARK    8  A    between atoms: C26_35  and  C27_36 
REMARK    9  A    between atoms: C28_37  and  C29_38 
REMARK   10  A    between atoms: C29_38  and  O5_40 
REMARK   11  A    between atoms: O5_40  and  C30_41 
ROOT
HETATM    1  N3  UNL     1       6.299  -0.648  12.827  1.00  0.00    -0.346 N 
HETATM    2  C11 UNL     1       6.706  -1.394  13.863  1.00  0.00     0.109 A 
HETATM    3  C12 UNL     1       5.606  -1.894  14.574  1.00  0.00     0.060 A 
HETATM    4  C23 UNL     1       4.535  -1.387  13.886  1.00  0.00     0.008 A 
HETATM    5  C24 UNL     1       3.167  -1.496  14.083  1.00  0.00     0.015 A 
HETATM    6  C25 UNL     1       2.280  -0.863  13.230  1.00  0.00     0.012 A 
HETATM    7  C26 UNL     1       2.693  -0.095  12.150  1.00  0.00    -0.034 A 
HETATM    8  C31 UNL     1       4.048   0.015  11.952  1.00  0.00     0.042 A 
HETATM    9  C32 UNL     1       4.951  -0.620  12.809  1.00  0.00     0.046 A 
ENDROOT
BRANCH   1  10
HETATM   10  C10 UNL     1       7.146   0.045  11.862  1.00  0.00     0.231 C 
BRANCH  10  11
HETATM   11  C9  UNL     1       7.412   1.448  12.198  1.00  0.00     0.238 C 
HETATM   12  N2  UNL     1       6.775   2.499  11.502  1.00  0.00    -0.337 N 
HETATM   13  C5  UNL     1       5.830   2.404  10.429  1.00  0.00     0.179 C 
HETATM   14  C8  UNL     1       6.960   3.923  11.743  1.00  0.00     0.127 C 
HETATM   15  C6  UNL     1       4.794   3.471  10.777  1.00  0.00     0.037 C 
HETATM   16  C7  UNL     1       5.644   4.525  11.404  1.00  0.00     0.022 C 
HETATM   17  O2  UNL     1       8.218   1.732  13.116  1.00  0.00    -0.272 OA
BRANCH  13  18
HETATM   18  C4  UNL     1       6.416   2.714   9.086  1.00  0.00     0.240 C 
HETATM   19  N1  UNL     1       5.592   3.263   8.074  1.00  0.00    -0.356 N 
ATOM     20  H1  UNL     1       4.609   3.425   8.294  1.00  0.00     0.162 HD
HETATM   21  O1  UNL     1       7.633   2.468   8.914  1.00  0.00    -0.271 OA
BRANCH  19  22
HETATM   22  C3  UNL     1       6.046   3.604   6.764  1.00  0.00     0.149 C 
BRANCH  22  23
HETATM   23  C2  UNL     1       5.833   2.534   5.783  1.00  0.00    -0.018 C 
HETATM   24  C1  UNL     1       6.631   1.536   5.506  1.00  0.00     0.008 C 
ENDBRANCH  22  23
ENDBRANCH  19  22
ENDBRANCH  13  18
ENDBRANCH  10  11
ENDBRANCH   1  10
BRANCH   3  25
HETATM   25  C13 UNL     1       5.708  -2.763  15.702  1.00  0.00     0.254 C 
HETATM   26  O3  UNL     1       5.153  -2.346  16.792  1.00  0.00    -0.268 OA
HETATM   27  N4  UNL     1       6.351  -4.013  15.743  1.00  0.00    -0.352 N 
ATOM     28  H4  UNL     1       6.812  -4.387  14.913  1.00  0.00     0.163 HD
BRANCH  27  29
HETATM   29  C14 UNL     1       6.347  -4.777  17.012  1.00  0.00     0.085 C 
HETATM   30  C15 UNL     1       5.995  -6.189  16.697  1.00  0.00     0.025 C 
HETATM   31  C16 UNL     1       6.403  -7.118  17.785  1.00  0.00     0.007 C 
HETATM   32  C17 UNL     1       7.832  -7.023  18.213  1.00  0.00    -0.010 C 
HETATM   33  C18 UNL     1       8.615  -8.094  17.476  1.00  0.00     0.005 C 
HETATM   34  C21 UNL     1       8.527  -5.770  17.826  1.00  0.00    -0.009 C 
HETATM   35  C19 UNL     1       9.105  -7.453  16.195  1.00  0.00     0.001 C 
HETATM   36  C20 UNL     1       9.339  -6.025  16.590  1.00  0.00     0.005 C 
HETATM   37  C22 UNL     1       7.641  -4.564  17.710  1.00  0.00     0.030 C 
ENDBRANCH  27  29
ENDBRANCH   3  25
BRANCH   7  38
HETATM   38  C27 UNL     1       1.721   0.551  11.282  1.00  0.00     0.017 C 
HETATM   39  C28 UNL     1       1.552   1.849  11.200  1.00  0.00     0.083 C 
BRANCH  39  40
HETATM   40  C29 UNL     1       0.548   2.381  10.297  1.00  0.00     0.291 C 
HETATM   41  O4  UNL     1      -0.592   2.650  10.730  1.00  0.00    -0.260 OA
BRANCH  40  42
HETATM   42  O5  UNL     1       0.867   2.581   8.969  1.00  0.00    -0.226 OA
BRANCH  42  43
HETATM   43  C30 UNL     1       1.641   3.687   8.582  1.00  0.00     0.380 C 
HETATM   44  N5  UNL     1       2.388   3.640   7.376  1.00  0.00    -0.032 NA
HETATM   45  O6  UNL     1       1.670   4.713   9.305  1.00  0.00    -0.242 OA
ENDBRANCH  42  43
ENDBRANCH  40  42
ENDBRANCH  39  40
ENDBRANCH   7  38
TORSDOF 11
ENDMDL
MODEL 3
REMARK VINA RESULT: -9.176329997      1.880      4.833
REMARK  11 active torsions:
REMARK  status: ('A' for Active; 'I' for Inactive)
REMARK    1  A    between atoms: C2_2  and  C3_3 
REMARK    2  A    between atoms: C3_3  and  N1_4 
REMARK       I    between atoms: N1_4  and  C4_6 
REMARK    3  A    between atoms: C4_6  and  C5_8 
REMARK       I    between atoms: N2_12  and  C9_13 
REMARK    4  A    between atoms: C9_13  and  C10_15 
REMARK    5  A    between atoms: C10_15  and  N3_16 
REMARK    6  A    between atoms: C12_18  and  C13_19 
REMARK       I    between atoms: C13_19  and  N4_21 
REMARK    7  A    between atoms: N4_21  and  C14_23 
REMARK    8  A    between atoms: C26_35  and  C27_36 
REMARK    9  A    between atoms: C28_37  and  C29_38 
REMARK   10  A    between atoms: C29_38  and  O5_40 
REMARK   11  A    between atoms: O5_40  and  C30_41 
ROOT
HETATM    1  N3  UNL     1       6.290  -0.573  12.210  1.00  0.00    -0.346 N 
HETATM    2  C11 UNL     1       6.832  -1.601  12.876  1.00  0.00     0.109 A 
HETATM    3  C12 UNL     1       5.856  -2.275  13.625  1.00  0.00     0.060 A 
HETATM    4  C23 UNL     1       4.714  -1.570  13.352  1.00  0.00     0.008 A 
HETATM    5  C24 UNL     1       3.406  -1.712  13.789  1.00  0.00     0.015 A 
HETATM    6  C25 UNL     1       2.421  -0.839  13.360  1.00  0.00     0.012 A 
HETATM    7  C26 UNL     1       2.674   0.210  12.488  1.00  0.00    -0.034 A 
HETATM    8  C31 UNL     1       3.969   0.354  12.053  1.00  0.00     0.042 A 
HETATM    9  C32 UNL     1       4.970  -0.522  12.481  1.00  0.00     0.046 A 
ENDROOT
BRANCH   1  10
HETATM   10  C10 UNL     1       6.983   0.364  11.332  1.00  0.00     0.231 C 
BRANCH  10  11
HETATM   11  C9  UNL     1       7.262   1.666  11.949  1.00  0.00     0.238 C 
HETATM   12  N2  UNL     1       6.626   2.841  11.493  1.00  0.00    -0.337 N 
HETATM   13  C5  UNL     1       5.670   2.975  10.433  1.00  0.00     0.179 C 
HETATM   14  C8  UNL     1       6.825   4.183  12.021  1.00  0.00     0.127 C 
HETATM   15  C6  UNL     1       4.646   3.952  11.007  1.00  0.00     0.037 C 
HETATM   16  C7  UNL     1       5.510   4.849  11.829  1.00  0.00     0.022 C 
HETATM   17  O2  UNL     1       8.080   1.749  12.897  1.00  0.00    -0.272 OA
BRANCH  13  18
HETATM   18  C4  UNL     1       6.246   3.553   9.178  1.00  0.00     0.240 C 
HETATM   19  N1  UNL     1       7.438   3.008   8.640  1.00  0.00    -0.356 N 
ATOM     20  H1  UNL     1       7.874   2.232   9.137  1.00  0.00     0.162 HD
HETATM   21  O1  UNL     1       5.637   4.513   8.649  1.00  0.00    -0.271 OA
BRANCH  19  22
HETATM   22  C3  UNL     1       8.068   3.475   7.447  1.00  0.00     0.149 C 
BRANCH  22  23
HETATM   23  C2  UNL     1       7.741   2.666   6.267  1.00  0.00    -0.018 C 
HETATM   24  C1  UNL     1       7.143   1.504   6.238  1.00  0.00     0.008 C 
ENDBRANCH  22  23
ENDBRANCH  19  22
ENDBRANCH  13  18
ENDBRANCH  10  11
ENDBRANCH   1  10
BRANCH   3  25
HETATM   25  C13 UNL     1       6.109  -3.443  14.405  1.00  0.00     0.254 C 
HETATM   26  O3  UNL     1       5.096  -4.219  14.609  1.00  0.00    -0.268 OA
HETATM   27  N4  UNL     1       7.338  -3.824  14.972  1.00  0.00    -0.352 N 
ATOM     28  H4  UNL     1       8.169  -3.244  14.849  1.00  0.00     0.163 HD
BRANCH  27  29
HETATM   29  C14 UNL     1       7.406  -5.084  15.751  1.00  0.00     0.085 C 
HETATM   30  C15 UNL     1       8.440  -5.954  15.126  1.00  0.00     0.025 C 
HETATM   31  C16 UNL     1       8.913  -7.010  16.061  1.00  0.00     0.007 C 
HETATM   32  C17 UNL     1       9.378  -6.529  17.397  1.00  0.00    -0.010 C 
HETATM   33  C18 UNL     1      10.889  -6.384  17.343  1.00  0.00     0.005 C 
HETATM   34  C21 UNL     1       8.923  -5.168  17.773  1.00  0.00    -0.009 C 
HETATM   35  C19 UNL     1      11.162  -4.965  16.896  1.00  0.00     0.001 C 
HETATM   36  C20 UNL     1      10.025  -4.189  17.491  1.00  0.00     0.005 C 
HETATM   37  C22 UNL     1       7.604  -4.756  17.186  1.00  0.00     0.030 C 
ENDBRANCH  27  29
ENDBRANCH   3  25
BRANCH   7  38
HETATM   38  C27 UNL     1       1.603   1.100  12.066  1.00  0.00     0.017 C 
HETATM   39  C28 UNL     1       1.567   1.714  10.908  1.00  0.00     0.083 C 
BRANCH  39  40
HETATM   40  C29 UNL     1       0.445   2.582  10.597  1.00  0.00     0.291 C 
HETATM   41  O4  UNL     1      -0.359   2.900  11.499  1.00  0.00    -0.260 OA
BRANCH  40  42
HETATM   42  O5  UNL     1       0.282   3.044   9.307  1.00  0.00    -0.226 OA
BRANCH  42  43
HETATM   43  C30 UNL     1       1.275   3.833   8.703  1.00  0.00     0.380 C 
HETATM   44  N5  UNL     1       1.824   3.443   7.453  1.00  0.00    -0.032 NA
HETATM   45  O6  UNL     1       1.674   4.878   9.271  1.00  0.00    -0.242 OA
ENDBRANCH  42  43
ENDBRANCH  40  42
ENDBRANCH  39  40
ENDBRANCH   7  38
TORSDOF 11
ENDMDL
MODEL 4
REMARK VINA RESULT: -9.151492614      1.032      1.468
REMARK  11 active torsions:
REMARK  status: ('A' for Active; 'I' for Inactive)
REMARK    1  A    between atoms: C2_2  and  C3_3 
REMARK    2  A    between atoms: C3_3  and  N1_4 
REMARK       I    between atoms: N1_4  and  C4_6 
REMARK    3  A    between atoms: C4_6  and  C5_8 
REMARK       I    between atoms: N2_12  and  C9_13 
REMARK    4  A    between atoms: C9_13  and  C10_15 
REMARK    5  A    between atoms: C10_15  and  N3_16 
REMARK    6  A    between atoms: C12_18  and  C13_19 
REMARK       I    between atoms: C13_19  and  N4_21 
REMARK    7  A    between atoms: N4_21  and  C14_23 
REMARK    8  A    between atoms: C26_35  and  C27_36 
REMARK    9  A    between atoms: C28_37  and  C29_38 
REMARK   10  A    between atoms: C29_38  and  O5_40 
REMARK   11  A    between atoms: O5_40  and  C30_41 
ROOT
HETATM    1  N3  UNL     1       4.447  -0.610  12.333  1.00  0.00    -0.346 N 
HETATM    2  C11 UNL     1       4.566  -1.301  13.475  1.00  0.00     0.109 A 
HETATM    3  C12 UNL     1       5.887  -1.259  13.943  1.00  0.00     0.060 A 
HETATM    4  C23 UNL     1       6.527  -0.501  12.999  1.00  0.00     0.008 A 
HETATM    5  C24 UNL     1       7.847  -0.099  12.868  1.00  0.00     0.015 A 
HETATM    6  C25 UNL     1       8.245   0.672  11.789  1.00  0.00     0.012 A 
HETATM    7  C26 UNL     1       7.369   1.080  10.793  1.00  0.00    -0.034 A 
HETATM    8  C31 UNL     1       6.060   0.683  10.920  1.00  0.00     0.042 A 
HETATM    9  C32 UNL     1       5.650  -0.095  12.005  1.00  0.00     0.046 A 
ENDROOT
BRANCH   1  10
HETATM   10  C10 UNL     1       3.235  -0.428  11.542  1.00  0.00     0.231 C 
BRANCH  10  11
HETATM   11  C9  UNL     1       2.147   0.245  12.260  1.00  0.00     0.238 C 
HETATM   12  N2  UNL     1       1.541   1.410  11.740  1.00  0.00    -0.337 N 
HETATM   13  C5  UNL     1       1.846   2.096  10.519  1.00  0.00     0.179 C 
HETATM   14  C8  UNL     1       0.460   2.163  12.361  1.00  0.00     0.127 C 
HETATM   15  C6  UNL     1       0.469   2.452   9.963  1.00  0.00     0.037 C 
HETATM   16  C7  UNL     1      -0.303   2.720  11.213  1.00  0.00     0.022 C 
HETATM   17  O2  UNL     1       1.741  -0.211  13.356  1.00  0.00    -0.272 OA
BRANCH  13  18
HETATM   18  C4  UNL     1       2.630   3.355  10.721  1.00  0.00     0.240 C 
HETATM   19  N1  UNL     1       3.714   3.365  11.634  1.00  0.00    -0.356 N 
ATOM     20  H1  UNL     1       3.922   2.502  12.136  1.00  0.00     0.162 HD
HETATM   21  O1  UNL     1       2.287   4.365  10.062  1.00  0.00    -0.271 OA
BRANCH  19  22
HETATM   22  C3  UNL     1       4.532   4.504  11.898  1.00  0.00     0.149 C 
BRANCH  22  23
HETATM   23  C2  UNL     1       5.898   4.366  11.380  1.00  0.00    -0.018 C 
HETATM   24  C1  UNL     1       7.017   4.613  12.008  1.00  0.00     0.008 C 
ENDBRANCH  22  23
ENDBRANCH  19  22
ENDBRANCH  13  18
ENDBRANCH  10  11
ENDBRANCH   1  10
BRANCH   3  25
HETATM   25  C13 UNL     1       6.324  -1.859  15.163  1.00  0.00     0.254 C 
HETATM   26  O3  UNL     1       5.866  -1.331  16.250  1.00  0.00    -0.268 OA
HETATM   27  N4  UNL     1       7.199  -2.952  15.294  1.00  0.00    -0.352 N 
ATOM     28  H4  UNL     1       7.596  -3.401  14.468  1.00  0.00     0.163 HD
BRANCH  27  29
HETATM   29  C14 UNL     1       7.534  -3.439  16.653  1.00  0.00     0.085 C 
HETATM   30  C15 UNL     1       6.766  -4.692  16.893  1.00  0.00     0.025 C 
HETATM   31  C16 UNL     1       7.353  -5.498  17.997  1.00  0.00     0.007 C 
HETATM   32  C17 UNL     1       8.811  -5.799  17.872  1.00  0.00    -0.010 C 
HETATM   33  C18 UNL     1       8.954  -7.178  17.253  1.00  0.00     0.005 C 
HETATM   34  C21 UNL     1       9.560  -4.929  16.932  1.00  0.00    -0.009 C 
HETATM   35  C19 UNL     1       9.016  -6.966  15.756  1.00  0.00     0.001 C 
HETATM   36  C20 UNL     1       9.715  -5.646  15.623  1.00  0.00     0.005 C 
HETATM   37  C22 UNL     1       9.010  -3.540  16.782  1.00  0.00     0.030 C 
ENDBRANCH  27  29
ENDBRANCH   3  25
BRANCH   7  38
HETATM   38  C27 UNL     1       7.836   1.891   9.679  1.00  0.00     0.017 C 
HETATM   39  C28 UNL     1       7.098   2.221   8.646  1.00  0.00     0.083 C 
BRANCH  39  40
HETATM   40  C29 UNL     1       7.674   3.035   7.591  1.00  0.00     0.291 C 
HETATM   41  O4  UNL     1       8.145   4.159   7.865  1.00  0.00    -0.260 OA
BRANCH  40  42
HETATM   42  O5  UNL     1       7.694   2.554   6.298  1.00  0.00    -0.226 OA
BRANCH  42  43
HETATM   43  C30 UNL     1       6.547   1.970   5.737  1.00  0.00     0.380 C 
HETATM   44  N5  UNL     1       5.371   2.747   5.565  1.00  0.00    -0.032 NA
HETATM   45  O6  UNL     1       6.565   0.764   5.393  1.00  0.00    -0.242 OA
ENDBRANCH  42  43
ENDBRANCH  40  42
ENDBRANCH  39  40
ENDBRANCH   7  38
TORSDOF 11
ENDMDL
MODEL 5
REMARK VINA RESULT: -8.941326524      1.393      1.810
REMARK  11 active torsions:
REMARK  status: ('A' for Active; 'I' for Inactive)
REMARK    1  A    between atoms: C2_2  and  C3_3 
REMARK    2  A    between atoms: C3_3  and  N1_4 
REMARK       I    between atoms: N1_4  and  C4_6 
REMARK    3  A    between atoms: C4_6  and  C5_8 
REMARK       I    between atoms: N2_12  and  C9_13 
REMARK    4  A    between atoms: C9_13  and  C10_15 
REMARK    5  A    between atoms: C10_15  and  N3_16 
REMARK    6  A    between atoms: C12_18  and  C13_19 
REMARK       I    between atoms: C13_19  and  N4_21 
REMARK    7  A    between atoms: N4_21  and  C14_23 
REMARK    8  A    between atoms: C26_35  and  C27_36 
REMARK    9  A    between atoms: C28_37  and  C29_38 
REMARK   10  A    between atoms: C29_38  and  O5_40 
REMARK   11  A    between atoms: O5_40  and  C30_41 
ROOT
HETATM    1  N3  UNL     1       4.151  -0.644  12.673  1.00  0.00    -0.346 N 
HETATM    2  C11 UNL     1       4.495  -1.377  13.740  1.00  0.00     0.109 A 
HETATM    3  C12 UNL     1       5.830  -1.137  14.096  1.00  0.00     0.060 A 
HETATM    4  C23 UNL     1       6.239  -0.220  13.165  1.00  0.00     0.008 A 
HETATM    5  C24 UNL     1       7.454   0.413  12.954  1.00  0.00     0.015 A 
HETATM    6  C25 UNL     1       7.609   1.311  11.911  1.00  0.00     0.012 A 
HETATM    7  C26 UNL     1       6.584   1.624  11.030  1.00  0.00    -0.034 A 
HETATM    8  C31 UNL     1       5.379   0.998  11.235  1.00  0.00     0.042 A 
HETATM    9  C32 UNL     1       5.213   0.091  12.285  1.00  0.00     0.046 A 
ENDROOT
BRANCH   1  10
HETATM   10  C10 UNL     1       2.854  -0.625  12.005  1.00  0.00     0.231 C 
BRANCH  10  11
HETATM   11  C9  UNL     1       1.880   0.286  12.617  1.00  0.00     0.238 C 
HETATM   12  N2  UNL     1       1.353   1.381  11.897  1.00  0.00    -0.337 N 
HETATM   13  C5  UNL     1       1.645   1.777  10.551  1.00  0.00     0.179 C 
HETATM   14  C8  UNL     1       0.388   2.350  12.397  1.00  0.00     0.127 C 
HETATM   15  C6  UNL     1       0.274   2.156   9.992  1.00  0.00     0.037 C 
HETATM   16  C7  UNL     1      -0.390   2.744  11.193  1.00  0.00     0.022 C 
HETATM   17  O2  UNL     1       1.502   0.100  13.799  1.00  0.00    -0.272 OA
BRANCH  13  18
HETATM   18  C4  UNL     1       2.554   2.963  10.460  1.00  0.00     0.240 C 
HETATM   19  N1  UNL     1       2.944   3.448   9.187  1.00  0.00    -0.356 N 
ATOM     20  H1  UNL     1       2.593   2.960   8.363  1.00  0.00     0.162 HD
HETATM   21  O1  UNL     1       2.938   3.484  11.534  1.00  0.00    -0.271 OA
BRANCH  19  22
HETATM   22  C3  UNL     1       3.798   4.573   8.983  1.00  0.00     0.149 C 
BRANCH  22  23
HETATM   23  C2  UNL     1       4.415   4.596   7.653  1.00  0.00    -0.018 C 
HETATM   24  C1  UNL     1       4.037   3.940   6.587  1.00  0.00     0.008 C 
ENDBRANCH  22  23
ENDBRANCH  19  22
ENDBRANCH  13  18
ENDBRANCH  10  11
ENDBRANCH   1  10
BRANCH   3  25
HETATM   25  C13 UNL     1       6.479  -1.730  15.221  1.00  0.00     0.254 C 
HETATM   26  O3  UNL     1       6.062  -1.346  16.383  1.00  0.00    -0.268 OA
HETATM   27  N4  UNL     1       7.519  -2.675  15.188  1.00  0.00    -0.352 N 
ATOM     28  H4  UNL     1       7.891  -3.007  14.298  1.00  0.00     0.163 HD
BRANCH  27  29
HETATM   29  C14 UNL     1       8.065  -3.182  16.470  1.00  0.00     0.085 C 
HETATM   30  C15 UNL     1       7.257  -4.364  16.877  1.00  0.00     0.025 C 
HETATM   31  C16 UNL     1       7.975  -5.211  17.868  1.00  0.00     0.007 C 
HETATM   32  C17 UNL     1       9.354  -5.634  17.476  1.00  0.00    -0.010 C 
HETATM   33  C18 UNL     1       9.264  -7.023  16.871  1.00  0.00     0.005 C 
HETATM   34  C21 UNL     1       9.978  -4.834  16.393  1.00  0.00    -0.009 C 
HETATM   35  C19 UNL     1       9.058  -6.825  15.385  1.00  0.00     0.001 C 
HETATM   36  C20 UNL     1       9.824  -5.569  15.094  1.00  0.00     0.005 C 
HETATM   37  C22 UNL     1       9.525  -3.405  16.320  1.00  0.00     0.030 C 
ENDBRANCH  27  29
ENDBRANCH   3  25
BRANCH   7  38
HETATM   38  C27 UNL     1       6.798   2.574   9.949  1.00  0.00     0.017 C 
HETATM   39  C28 UNL     1       7.978   2.942   9.512  1.00  0.00     0.083 C 
BRANCH  39  40
HETATM   40  C29 UNL     1       8.068   3.900   8.425  1.00  0.00     0.291 C 
HETATM   41  O4  UNL     1       7.730   5.087   8.618  1.00  0.00    -0.260 OA
BRANCH  40  42
HETATM   42  O5  UNL     1       8.526   3.485   7.191  1.00  0.00    -0.226 OA
BRANCH  42  43
HETATM   43  C30 UNL     1       7.621   3.100   6.188  1.00  0.00     0.380 C 
HETATM   44  N5  UNL     1       7.041   1.805   6.220  1.00  0.00    -0.032 NA
HETATM   45  O6  UNL     1       7.331   3.902   5.268  1.00  0.00    -0.242 OA
ENDBRANCH  42  43
ENDBRANCH  40  42
ENDBRANCH  39  40
ENDBRANCH   7  38
TORSDOF 11
ENDMDL
