MODEL 1
REMARK VINA RESULT: -9.720216013      0.000      0.000
REMARK  10 active torsions:
REMARK  status: ('A' for Active; 'I' for Inactive)
REMARK    1  A    between atoms: C2_2  and  C3_3 
REMARK    2  A    between atoms: C3_3  and  N1_5 
REMARK       I    between atoms: N1_5  and  C5_7 
REMARK       I    between atoms: C5_7  and  N2_9 
REMARK    3  A    between atoms: C9_13  and  C10_14 
REMARK       I    between atoms: C10_14  and  N3_16 
REMARK    4  A    between atoms: N3_16  and  C11_18 
REMARK    5  A    between atoms: C11_18  and  C12_19 
REMARK    6  A    between atoms: C11_18  and  C14_22 
REMARK    7  A    between atoms: C14_22  and  C15_24 
REMARK    8  A    between atoms: C15_24  and  C16_25 
REMARK    9  A    between atoms: C15_24  and  N4_32 
REMARK   10  A    between atoms: C16_25  and  C17_26 
REMARK       I    between atoms: N4_32  and  C23_34 
REMARK       I    between atoms: C23_34  and  N5_36 
ROOT
HETATM    1  C11 UNL     1       3.678  -3.594  16.000  1.00  0.00     0.230 C 
ENDROOT
BRANCH   1   2
HETATM    2  N3  UNL     1       3.403  -2.251  15.456  1.00  0.00    -0.340 N 
HETATM    3  C10 UNL     1       3.166  -2.069  14.105  1.00  0.00     0.247 C 
HETATM    4  O2  UNL     1       3.254  -3.110  13.343  1.00  0.00    -0.271 OA
ATOM      5  H3  UNL     1       3.388  -1.447  16.083  1.00  0.00     0.163 HD
BRANCH   3   6
HETATM    6  C9  UNL     1       2.799  -0.807  13.412  1.00  0.00     0.215 C 
HETATM    7  C8  UNL     1       3.550  -0.952  12.085  1.00  0.00     0.043 C 
HETATM    8  C7  UNL     1       3.368   0.116  11.098  1.00  0.00     0.023 C 
HETATM    9  C6  UNL     1       1.905   0.163  10.726  1.00  0.00     0.130 C 
HETATM   10  N2  UNL     1       1.318   1.062  11.728  1.00  0.00    -0.313 N 
HETATM   11  C5  UNL     1       1.199   2.437  11.346  1.00  0.00     0.320 C 
HETATM   12  C30 UNL     1       0.958   0.623  13.046  1.00  0.00     0.298 C 
HETATM   13  N1  UNL     1       1.824   2.876  10.160  1.00  0.00    -0.339 N 
HETATM   14  O1  UNL     1       0.553   3.177  12.086  1.00  0.00    -0.247 OA
ATOM     15  H1  UNL     1       2.338   2.141   9.675  1.00  0.00     0.164 HD
HETATM   16  O6  UNL     1       1.459  -0.641  13.330  1.00  0.00    -0.357 OA
BRANCH  13  17
HETATM   17  C3  UNL     1       1.881   4.134   9.510  1.00  0.00     0.081 C 
HETATM   18  C4  UNL     1       1.064   3.975   8.217  1.00  0.00     0.032 C 
BRANCH  17  19
HETATM   19  C2  UNL     1       3.232   4.661   9.107  1.00  0.00     0.020 C 
HETATM   20  C1  UNL     1       4.349   3.985   9.834  1.00  0.00     0.007 C 
ENDBRANCH  17  19
ENDBRANCH  13  17
ENDBRANCH   3   6
ENDBRANCH   1   2
BRANCH   1  21
HETATM   21  C12 UNL     1       3.044  -3.704  17.301  1.00  0.00     0.153 C 
HETATM   22  C13 UNL     1       3.112  -4.947  18.123  1.00  0.00     0.093 C 
HETATM   23  O3  UNL     1       2.420  -2.758  17.769  1.00  0.00    -0.296 OA
ENDBRANCH   1  21
BRANCH   1  24
HETATM   24  C14 UNL     1       5.064  -4.036  15.766  1.00  0.00     0.201 C 
HETATM   25  O4  UNL     1       5.197  -5.149  15.277  1.00  0.00    -0.288 OA
BRANCH  24  26
HETATM   26  C15 UNL     1       6.207  -3.218  16.120  1.00  0.00     0.062 C 
BRANCH  26  27
HETATM   27  C16 UNL     1       7.258  -3.555  17.061  1.00  0.00     0.065 C 
BRANCH  27  28
HETATM   28  C17 UNL     1       8.181  -4.697  16.707  1.00  0.00    -0.009 C 
HETATM   29  C18 UNL     1       9.597  -4.298  16.725  1.00  0.00     0.005 C 
HETATM   30  C19 UNL     1      10.501  -5.339  17.371  1.00  0.00     0.000 C 
HETATM   31  C20 UNL     1      10.136  -6.745  17.040  1.00  0.00     0.000 C 
HETATM   32  C21 UNL     1       8.697  -7.048  17.361  1.00  0.00     0.000 C 
HETATM   33  C22 UNL     1       7.964  -5.791  17.758  1.00  0.00     0.005 C 
ENDBRANCH  27  28
ENDBRANCH  26  27
BRANCH  26  34
HETATM   34  N4  UNL     1       6.570  -2.308  15.054  1.00  0.00    -0.308 N 
HETATM   35  C23 UNL     1       6.274  -0.942  14.951  1.00  0.00     0.327 C 
HETATM   36  O5  UNL     1       5.626  -0.292  15.794  1.00  0.00    -0.246 OA
HETATM   37  N5  UNL     1       6.741  -0.221  13.806  1.00  0.00    -0.300 N 
HETATM   38  C24 UNL     1       6.488   1.246  13.841  1.00  0.00     0.212 C 
HETATM   39  C29 UNL     1       7.381  -0.937  12.731  1.00  0.00     0.092 C 
HETATM   40  C25 UNL     1       6.920   1.820  12.629  1.00  0.00    -0.163 C 
HETATM   41  C26 UNL     1       7.423   2.091  11.338  1.00  0.00     0.085 C 
HETATM   42  C27 UNL     1       7.676   0.668  10.688  1.00  0.00     0.040 C 
HETATM   43  C28 UNL     1       8.181  -0.300  11.703  1.00  0.00    -0.008 C 
ATOM     44  H4  UNL     1       7.107  -2.710  14.285  1.00  0.00     0.170 HD
ENDBRANCH  26  34
ENDBRANCH  24  26
ENDBRANCH   1  24
TORSDOF 10
ENDMDL
MODEL 2
REMARK VINA RESULT: -9.470605496      2.704      5.381
REMARK  10 active torsions:
REMARK  status: ('A' for Active; 'I' for Inactive)
REMARK    1  A    between atoms: C2_2  and  C3_3 
REMARK    2  A    between atoms: C3_3  and  N1_5 
REMARK       I    between atoms: N1_5  and  C5_7 
REMARK       I    between atoms: C5_7  and  N2_9 
REMARK    3  A    between atoms: C9_13  and  C10_14 
REMARK       I    between atoms: C10_14  and  N3_16 
REMARK    4  A    between atoms: N3_16  and  C11_18 
REMARK    5  A    between atoms: C11_18  and  C12_19 
REMARK    6  A    between atoms: C11_18  and  C14_22 
REMARK    7  A    between atoms: C14_22  and  C15_24 
REMARK    8  A    between atoms: C15_24  and  C16_25 
REMARK    9  A    between atoms: C15_24  and  N4_32 
REMARK   10  A    between atoms: C16_25  and  C17_26 
REMARK       I    between atoms: N4_32  and  C23_34 
REMARK       I    between atoms: C23_34  and  N5_36 
ROOT
HETATM    1  C11 UNL     1       6.073  -2.100  15.157  1.00  0.00     0.230 C 
ENDROOT
BRANCH   1   2
HETATM    2  N3  UNL     1       6.432  -1.246  14.010  1.00  0.00    -0.340 N 
HETATM    3  C10 UNL     1       5.946   0.045  13.908  1.00  0.00     0.247 C 
HETATM    4  O2  UNL     1       5.124   0.442  14.824  1.00  0.00    -0.271 OA
ATOM      5  H3  UNL     1       7.047  -1.612  13.282  1.00  0.00     0.163 HD
BRANCH   3   6
HETATM    6  C9  UNL     1       6.270   1.056  12.868  1.00  0.00     0.215 C 
HETATM    7  C8  UNL     1       7.542   0.469  12.249  1.00  0.00     0.043 C 
HETATM    8  C7  UNL     1       8.127   1.195  11.119  1.00  0.00     0.023 C 
HETATM    9  C6  UNL     1       7.112   1.215  10.001  1.00  0.00     0.130 C 
HETATM   10  N2  UNL     1       6.306   2.411  10.282  1.00  0.00    -0.313 N 
HETATM   11  C5  UNL     1       6.700   3.609   9.604  1.00  0.00     0.320 C 
HETATM   12  C30 UNL     1       5.237   2.415  11.239  1.00  0.00     0.298 C 
HETATM   13  N1  UNL     1       7.922   3.628   8.900  1.00  0.00    -0.339 N 
HETATM   14  O1  UNL     1       5.945   4.576   9.677  1.00  0.00    -0.247 OA
ATOM     15  H1  UNL     1       8.439   2.750   8.957  1.00  0.00     0.164 HD
HETATM   16  O6  UNL     1       5.234   1.269  12.025  1.00  0.00    -0.357 OA
BRANCH  13  17
HETATM   17  C3  UNL     1       8.575   4.623   8.129  1.00  0.00     0.081 C 
HETATM   18  C4  UNL     1       8.366   4.219   6.660  1.00  0.00     0.032 C 
BRANCH  17  19
HETATM   19  C2  UNL     1      10.056   4.807   8.323  1.00  0.00     0.020 C 
HETATM   20  C1  UNL     1      10.562   6.067   7.699  1.00  0.00     0.007 C 
ENDBRANCH  17  19
ENDBRANCH  13  17
ENDBRANCH   3   6
ENDBRANCH   1   2
BRANCH   1  21
HETATM   21  C12 UNL     1       7.283  -2.424  15.890  1.00  0.00     0.153 C 
HETATM   22  C13 UNL     1       7.379  -3.604  16.797  1.00  0.00     0.093 C 
HETATM   23  O3  UNL     1       8.281  -1.719  15.783  1.00  0.00    -0.296 OA
ENDBRANCH   1  21
BRANCH   1  24
HETATM   24  C14 UNL     1       5.068  -3.123  14.818  1.00  0.00     0.201 C 
HETATM   25  O4  UNL     1       5.466  -4.068  14.152  1.00  0.00    -0.288 OA
BRANCH  24  26
HETATM   26  C15 UNL     1       3.680  -3.006  15.221  1.00  0.00     0.062 C 
BRANCH  26  27
HETATM   27  C16 UNL     1       3.122  -3.337  16.517  1.00  0.00     0.065 C 
BRANCH  27  28
HETATM   28  C17 UNL     1       2.810  -4.788  16.801  1.00  0.00    -0.009 C 
HETATM   29  C18 UNL     1       2.644  -5.576  15.570  1.00  0.00     0.005 C 
HETATM   30  C19 UNL     1       3.311  -6.943  15.644  1.00  0.00     0.000 C 
HETATM   31  C20 UNL     1       3.179  -7.610  16.968  1.00  0.00     0.000 C 
HETATM   32  C21 UNL     1       3.671  -6.739  18.093  1.00  0.00     0.000 C 
HETATM   33  C22 UNL     1       3.994  -5.354  17.593  1.00  0.00     0.005 C 
ENDBRANCH  27  28
ENDBRANCH  26  27
BRANCH  26  34
HETATM   34  N4  UNL     1       2.984  -1.984  14.466  1.00  0.00    -0.308 N 
HETATM   35  C23 UNL     1       3.090  -1.705  13.097  1.00  0.00     0.327 C 
HETATM   36  O5  UNL     1       3.830  -2.318  12.304  1.00  0.00    -0.246 OA
HETATM   37  N5  UNL     1       2.297  -0.647  12.548  1.00  0.00    -0.300 N 
HETATM   38  C24 UNL     1       2.381  -0.503  11.068  1.00  0.00     0.212 C 
HETATM   39  C29 UNL     1       1.521   0.188  13.429  1.00  0.00     0.092 C 
HETATM   40  C25 UNL     1       1.625   0.617  10.667  1.00  0.00    -0.163 C 
HETATM   41  C26 UNL     1       0.817   1.772  10.582  1.00  0.00     0.085 C 
HETATM   42  C27 UNL     1       0.592   2.227  12.083  1.00  0.00     0.040 C 
HETATM   43  C28 UNL     1       0.443   1.048  12.982  1.00  0.00    -0.008 C 
ATOM     44  H4  UNL     1       2.339  -1.397  14.996  1.00  0.00     0.170 HD
ENDBRANCH  26  34
ENDBRANCH  24  26
ENDBRANCH   1  24
TORSDOF 10
ENDMDL
MODEL 3
REMARK VINA RESULT: -9.333541462      2.397      9.831
REMARK  10 active torsions:
REMARK  status: ('A' for Active; 'I' for Inactive)
REMARK    1  A    between atoms: C2_2  and  C3_3 
REMARK    2  A    between atoms: C3_3  and  N1_5 
REMARK       I    between atoms: N1_5  and  C5_7 
REMARK       I    between atoms: C5_7  and  N2_9 
REMARK    3  A    between atoms: C9_13  and  C10_14 
REMARK       I    between atoms: C10_14  and  N3_16 
REMARK    4  A    between atoms: N3_16  and  C11_18 
REMARK    5  A    between atoms: C11_18  and  C12_19 
REMARK    6  A    between atoms: C11_18  and  C14_22 
REMARK    7  A    between atoms: C14_22  and  C15_24 
REMARK    8  A    between atoms: C15_24  and  C16_25 
REMARK    9  A    between atoms: C15_24  and  N4_32 
REMARK   10  A    between atoms: C16_25  and  C17_26 
REMARK       I    between atoms: N4_32  and  C23_34 
REMARK       I    between atoms: C23_34  and  N5_36 
ROOT
HETATM    1  C11 UNL     1       6.906   0.889  12.683  1.00  0.00     0.230 C 
ENDROOT
BRANCH   1   2
HETATM    2  N3  UNL     1       7.136  -0.032  13.812  1.00  0.00    -0.340 N 
HETATM    3  C10 UNL     1       7.118  -1.402  13.624  1.00  0.00     0.247 C 
HETATM    4  O2  UNL     1       6.834  -1.833  12.438  1.00  0.00    -0.271 OA
ATOM      5  H3  UNL     1       7.311   0.347  14.743  1.00  0.00     0.163 HD
BRANCH   3   6
HETATM    6  C9  UNL     1       7.406  -2.459  14.629  1.00  0.00     0.215 C 
HETATM    7  C8  UNL     1       6.715  -3.676  14.007  1.00  0.00     0.043 C 
HETATM    8  C7  UNL     1       6.844  -4.950  14.719  1.00  0.00     0.023 C 
HETATM    9  C6  UNL     1       8.311  -5.307  14.772  1.00  0.00     0.130 C 
HETATM   10  N2  UNL     1       8.789  -4.640  15.990  1.00  0.00    -0.313 N 
HETATM   11  C5  UNL     1       8.812  -5.438  17.178  1.00  0.00     0.320 C 
HETATM   12  C30 UNL     1       9.138  -3.248  16.023  1.00  0.00     0.298 C 
HETATM   13  N1  UNL     1       8.194  -6.706  17.163  1.00  0.00    -0.339 N 
HETATM   14  O1  UNL     1       9.371  -4.968  18.166  1.00  0.00    -0.247 OA
ATOM     15  H1  UNL     1       7.757  -6.936  16.271  1.00  0.00     0.164 HD
HETATM   16  O6  UNL     1       8.730  -2.580  14.875  1.00  0.00    -0.357 OA
BRANCH  13  17
HETATM   17  C3  UNL     1       8.059  -7.724  18.141  1.00  0.00     0.081 C 
HETATM   18  C4  UNL     1       9.008  -8.853  17.705  1.00  0.00     0.032 C 
BRANCH  17  19
HETATM   19  C2  UNL     1       6.702  -8.346  18.331  1.00  0.00     0.020 C 
HETATM   20  C1  UNL     1       5.631  -7.622  17.580  1.00  0.00     0.007 C 
ENDBRANCH  17  19
ENDBRANCH  13  17
ENDBRANCH   3   6
ENDBRANCH   1   2
BRANCH   1  21
HETATM   21  C12 UNL     1       7.535   2.160  12.987  1.00  0.00     0.153 C 
HETATM   22  C13 UNL     1       7.242   3.404  12.218  1.00  0.00     0.093 C 
HETATM   23  O3  UNL     1       8.346   2.248  13.903  1.00  0.00    -0.296 OA
ENDBRANCH   1  21
BRANCH   1  24
HETATM   24  C14 UNL     1       5.537   0.804  12.144  1.00  0.00     0.201 C 
HETATM   25  O4  UNL     1       5.445   0.687  10.930  1.00  0.00    -0.288 OA
BRANCH  24  26
HETATM   26  C15 UNL     1       4.364   0.884  12.993  1.00  0.00     0.062 C 
BRANCH  26  27
HETATM   27  C16 UNL     1       3.327   1.897  12.946  1.00  0.00     0.065 C 
BRANCH  27  28
HETATM   28  C17 UNL     1       2.332   1.836  11.812  1.00  0.00    -0.009 C 
HETATM   29  C18 UNL     1       0.961   1.586  12.283  1.00  0.00     0.005 C 
HETATM   30  C19 UNL     1      -0.079   2.438  11.567  1.00  0.00     0.000 C 
HETATM   31  C20 UNL     1       0.179   2.611  10.111  1.00  0.00     0.000 C 
HETATM   32  C21 UNL     1       1.558   3.151   9.839  1.00  0.00     0.000 C 
HETATM   33  C22 UNL     1       2.371   3.197  11.108  1.00  0.00     0.005 C 
ENDBRANCH  27  28
ENDBRANCH  26  27
BRANCH  26  34
HETATM   34  N4  UNL     1       3.967  -0.417  13.488  1.00  0.00    -0.308 N 
HETATM   35  C23 UNL     1       4.138  -0.934  14.780  1.00  0.00     0.327 C 
HETATM   36  O5  UNL     1       4.681  -0.324  15.720  1.00  0.00    -0.246 OA
HETATM   37  N5  UNL     1       3.658  -2.253  15.062  1.00  0.00    -0.300 N 
HETATM   38  C24 UNL     1       3.770  -2.670  16.486  1.00  0.00     0.212 C 
HETATM   39  C29 UNL     1       3.139  -3.063  13.988  1.00  0.00     0.092 C 
HETATM   40  C25 UNL     1       3.342  -4.008  16.613  1.00  0.00    -0.163 C 
HETATM   41  C26 UNL     1       2.876  -5.326  16.420  1.00  0.00     0.085 C 
HETATM   42  C27 UNL     1       2.790  -5.506  14.849  1.00  0.00     0.040 C 
HETATM   43  C28 UNL     1       2.332  -4.249  14.192  1.00  0.00    -0.008 C 
ATOM     44  H4  UNL     1       3.507  -1.031  12.816  1.00  0.00     0.170 HD
ENDBRANCH  26  34
ENDBRANCH  24  26
ENDBRANCH   1  24
TORSDOF 10
ENDMDL
MODEL 4
REMARK VINA RESULT: -9.301063949      2.643      5.373
REMARK  10 active torsions:
REMARK  status: ('A' for Active; 'I' for Inactive)
REMARK    1  A    between atoms: C2_2  and  C3_3 
REMARK    2  A    between atoms: C3_3  and  N1_5 
REMARK       I    between atoms: N1_5  and  C5_7 
REMARK       I    between atoms: C5_7  and  N2_9 
REMARK    3  A    between atoms: C9_13  and  C10_14 
REMARK       I    between atoms: C10_14  and  N3_16 
REMARK    4  A    between atoms: N3_16  and  C11_18 
REMARK    5  A    between atoms: C11_18  and  C12_19 
REMARK    6  A    between atoms: C11_18  and  C14_22 
REMARK    7  A    between atoms: C14_22  and  C15_24 
REMARK    8  A    between atoms: C15_24  and  C16_25 
REMARK    9  A    between atoms: C15_24  and  N4_32 
REMARK   10  A    between atoms: C16_25  and  C17_26 
REMARK       I    between atoms: N4_32  and  C23_34 
REMARK       I    between atoms: C23_34  and  N5_36 
ROOT
HETATM    1  C11 UNL     1       6.389  -1.875  15.915  1.00  0.00     0.230 C 
ENDROOT
BRANCH   1   2
HETATM    2  N3  UNL     1       6.688  -1.110  14.690  1.00  0.00    -0.340 N 
HETATM    3  C10 UNL     1       6.145   0.147  14.489  1.00  0.00     0.247 C 
HETATM    4  O2  UNL     1       5.326   0.588  15.387  1.00  0.00    -0.271 OA
ATOM      5  H3  UNL     1       7.303  -1.513  13.982  1.00  0.00     0.163 HD
BRANCH   3   6
HETATM    6  C9  UNL     1       6.405   1.075  13.358  1.00  0.00     0.215 C 
HETATM    7  C8  UNL     1       7.621   0.424  12.693  1.00  0.00     0.043 C 
HETATM    8  C7  UNL     1       8.131   1.058  11.475  1.00  0.00     0.023 C 
HETATM    9  C6  UNL     1       7.037   1.016  10.434  1.00  0.00     0.130 C 
HETATM   10  N2  UNL     1       6.268   2.243  10.686  1.00  0.00    -0.313 N 
HETATM   11  C5  UNL     1       6.626   3.383   9.897  1.00  0.00     0.320 C 
HETATM   12  C30 UNL     1       5.272   2.334  11.715  1.00  0.00     0.298 C 
HETATM   13  N1  UNL     1       7.794   3.330   9.108  1.00  0.00    -0.339 N 
HETATM   14  O1  UNL     1       5.890   4.366   9.955  1.00  0.00    -0.247 OA
ATOM     15  H1  UNL     1       8.303   2.450   9.190  1.00  0.00     0.164 HD
HETATM   16  O6  UNL     1       5.313   1.247  12.579  1.00  0.00    -0.357 OA
BRANCH  13  17
HETATM   17  C3  UNL     1       8.401   4.257   8.222  1.00  0.00     0.081 C 
HETATM   18  C4  UNL     1       8.204   3.679   6.811  1.00  0.00     0.032 C 
BRANCH  17  19
HETATM   19  C2  UNL     1       9.873   4.523   8.381  1.00  0.00     0.020 C 
HETATM   20  C1  UNL     1      10.295   5.805   7.738  1.00  0.00     0.007 C 
ENDBRANCH  17  19
ENDBRANCH  13  17
ENDBRANCH   3   6
ENDBRANCH   1   2
BRANCH   1  21
HETATM   21  C12 UNL     1       7.460  -2.827  16.139  1.00  0.00     0.153 C 
HETATM   22  C13 UNL     1       8.737  -2.793  15.370  1.00  0.00     0.093 C 
HETATM   23  O3  UNL     1       7.341  -3.708  16.984  1.00  0.00    -0.296 OA
ENDBRANCH   1  21
BRANCH   1  24
HETATM   24  C14 UNL     1       4.969  -2.257  16.020  1.00  0.00     0.201 C 
HETATM   25  O4  UNL     1       4.438  -2.053  17.103  1.00  0.00    -0.288 OA
BRANCH  24  26
HETATM   26  C15 UNL     1       4.248  -2.867  14.920  1.00  0.00     0.062 C 
BRANCH  26  27
HETATM   27  C16 UNL     1       3.911  -4.270  14.776  1.00  0.00     0.065 C 
BRANCH  27  28
HETATM   28  C17 UNL     1       3.539  -5.038  16.022  1.00  0.00    -0.009 C 
HETATM   29  C18 UNL     1       2.531  -6.077  15.759  1.00  0.00     0.005 C 
HETATM   30  C19 UNL     1       2.823  -7.386  16.479  1.00  0.00     0.000 C 
HETATM   31  C20 UNL     1       3.357  -7.211  17.858  1.00  0.00     0.000 C 
HETATM   32  C21 UNL     1       4.576  -6.329  17.886  1.00  0.00     0.000 C 
HETATM   33  C22 UNL     1       4.818  -5.710  16.533  1.00  0.00     0.005 C 
ENDBRANCH  27  28
ENDBRANCH  26  27
BRANCH  26  34
HETATM   34  N4  UNL     1       3.363  -1.925  14.268  1.00  0.00    -0.308 N 
HETATM   35  C23 UNL     1       3.391  -1.504  12.931  1.00  0.00     0.327 C 
HETATM   36  O5  UNL     1       4.217  -1.892  12.083  1.00  0.00    -0.246 OA
HETATM   37  N5  UNL     1       2.408  -0.563  12.486  1.00  0.00    -0.300 N 
HETATM   38  C24 UNL     1       2.437  -0.269  11.026  1.00  0.00     0.212 C 
HETATM   39  C29 UNL     1       1.507   0.027  13.444  1.00  0.00     0.092 C 
HETATM   40  C25 UNL     1       1.481   0.725  10.735  1.00  0.00    -0.163 C 
HETATM   41  C26 UNL     1       0.473   1.714  10.761  1.00  0.00     0.085 C 
HETATM   42  C27 UNL     1       0.196   1.977  12.298  1.00  0.00     0.040 C 
HETATM   43  C28 UNL     1       0.282   0.712  13.081  1.00  0.00    -0.008 C 
ATOM     44  H4  UNL     1       2.631  -1.519  14.851  1.00  0.00     0.170 HD
ENDBRANCH  26  34
ENDBRANCH  24  26
ENDBRANCH   1  24
TORSDOF 10
ENDMDL
MODEL 5
REMARK VINA RESULT: -9.247064439      2.629      5.250
REMARK  10 active torsions:
REMARK  status: ('A' for Active; 'I' for Inactive)
REMARK    1  A    between atoms: C2_2  and  C3_3 
REMARK    2  A    between atoms: C3_3  and  N1_5 
REMARK       I    between atoms: N1_5  and  C5_7 
REMARK       I    between atoms: C5_7  and  N2_9 
REMARK    3  A    between atoms: C9_13  and  C10_14 
REMARK       I    between atoms: C10_14  and  N3_16 
REMARK    4  A    between atoms: N3_16  and  C11_18 
REMARK    5  A    between atoms: C11_18  and  C12_19 
REMARK    6  A    between atoms: C11_18  and  C14_22 
REMARK    7  A    between atoms: C14_22  and  C15_24 
REMARK    8  A    between atoms: C15_24  and  C16_25 
REMARK    9  A    between atoms: C15_24  and  N4_32 
REMARK   10  A    between atoms: C16_25  and  C17_26 
REMARK       I    between atoms: N4_32  and  C23_34 
REMARK       I    between atoms: C23_34  and  N5_36 
ROOT
HETATM    1  C11 UNL     1       6.371  -1.761  15.064  1.00  0.00     0.230 C 
ENDROOT
BRANCH   1   2
HETATM    2  N3  UNL     1       6.168  -1.381  13.653  1.00  0.00    -0.340 N 
HETATM    3  C10 UNL     1       6.362  -0.076  13.236  1.00  0.00     0.247 C 
HETATM    4  O2  UNL     1       6.667   0.795  14.142  1.00  0.00    -0.271 OA
ATOM      5  H3  UNL     1       5.882  -2.089  12.977  1.00  0.00     0.163 HD
BRANCH   3   6
HETATM    6  C9  UNL     1       6.278   0.455  11.851  1.00  0.00     0.215 C 
HETATM    7  C8  UNL     1       5.273   1.598  12.017  1.00  0.00     0.043 C 
HETATM    8  C7  UNL     1       4.982   2.405  10.828  1.00  0.00     0.023 C 
HETATM    9  C6  UNL     1       6.267   3.064  10.387  1.00  0.00     0.130 C 
HETATM   10  N2  UNL     1       6.881   2.071   9.496  1.00  0.00    -0.313 N 
HETATM   11  C5  UNL     1       6.616   2.230   8.098  1.00  0.00     0.320 C 
HETATM   12  C30 UNL     1       7.635   0.953   9.987  1.00  0.00     0.298 C 
HETATM   13  N1  UNL     1       5.642   3.165   7.687  1.00  0.00    -0.339 N 
HETATM   14  O1  UNL     1       7.255   1.529   7.316  1.00  0.00    -0.247 OA
ATOM     15  H1  UNL     1       5.189   3.648   8.462  1.00  0.00     0.164 HD
HETATM   16  O6  UNL     1       7.493   0.788  11.359  1.00  0.00    -0.357 OA
BRANCH  13  17
HETATM   17  C3  UNL     1       5.168   3.565   6.412  1.00  0.00     0.081 C 
HETATM   18  C4  UNL     1       6.005   4.795   6.022  1.00  0.00     0.032 C 
BRANCH  17  19
HETATM   19  C2  UNL     1       3.723   3.965   6.290  1.00  0.00     0.020 C 
HETATM   20  C1  UNL     1       3.027   4.005   7.612  1.00  0.00     0.007 C 
ENDBRANCH  17  19
ENDBRANCH  13  17
ENDBRANCH   3   6
ENDBRANCH   1   2
BRANCH   1  21
HETATM   21  C12 UNL     1       7.264  -2.904  15.111  1.00  0.00     0.153 C 
HETATM   22  C13 UNL     1       6.907  -4.226  14.521  1.00  0.00     0.093 C 
HETATM   23  O3  UNL     1       8.361  -2.812  15.652  1.00  0.00    -0.296 OA
ENDBRANCH   1  21
BRANCH   1  24
HETATM   24  C14 UNL     1       5.130  -1.706  15.857  1.00  0.00     0.201 C 
HETATM   25  O4  UNL     1       5.218  -1.173  16.954  1.00  0.00    -0.288 OA
BRANCH  24  26
HETATM   26  C15 UNL     1       3.884  -2.276  15.384  1.00  0.00     0.062 C 
BRANCH  26  27
HETATM   27  C16 UNL     1       3.095  -3.301  16.038  1.00  0.00     0.065 C 
BRANCH  27  28
HETATM   28  C17 UNL     1       3.723  -4.662  16.226  1.00  0.00    -0.009 C 
HETATM   29  C18 UNL     1       3.850  -5.029  17.645  1.00  0.00     0.005 C 
HETATM   30  C19 UNL     1       3.480  -6.480  17.920  1.00  0.00     0.000 C 
HETATM   31  C20 UNL     1       3.941  -7.431  16.871  1.00  0.00     0.000 C 
HETATM   32  C21 UNL     1       3.467  -7.034  15.498  1.00  0.00     0.000 C 
HETATM   33  C22 UNL     1       2.808  -5.678  15.534  1.00  0.00     0.005 C 
ENDBRANCH  27  28
ENDBRANCH  26  27
BRANCH  26  34
HETATM   34  N4  UNL     1       3.158  -1.354  14.534  1.00  0.00    -0.308 N 
HETATM   35  C23 UNL     1       3.119  -1.327  13.133  1.00  0.00     0.327 C 
HETATM   36  O5  UNL     1       3.730  -2.120  12.392  1.00  0.00    -0.246 OA
HETATM   37  N5  UNL     1       2.323  -0.327  12.488  1.00  0.00    -0.300 N 
HETATM   38  C24 UNL     1       2.241  -0.450  11.006  1.00  0.00     0.212 C 
HETATM   39  C29 UNL     1       1.698   0.702  13.280  1.00  0.00     0.092 C 
HETATM   40  C25 UNL     1       1.502   0.634  10.491  1.00  0.00    -0.163 C 
HETATM   41  C26 UNL     1       0.750   1.810  10.283  1.00  0.00     0.085 C 
HETATM   42  C27 UNL     1       0.724   2.535  11.691  1.00  0.00     0.040 C 
HETATM   43  C28 UNL     1       0.620   1.545  12.800  1.00  0.00    -0.008 C 
ATOM     44  H4  UNL     1       2.610  -0.640  15.013  1.00  0.00     0.170 HD
ENDBRANCH  26  34
ENDBRANCH  24  26
ENDBRANCH   1  24
TORSDOF 10
ENDMDL
