MODEL 1
REMARK VINA RESULT: -9.080680105      0.000      0.000
REMARK  11 active torsions:
REMARK  status: ('A' for Active; 'I' for Inactive)
REMARK    1  A    between atoms: C2_2  and  C5_5 
REMARK    2  A    between atoms: C5_5  and  N1_6 
REMARK    3  A    between atoms: C5_5  and  C20_29 
REMARK       I    between atoms: N1_6  and  C6_7 
REMARK    4  A    between atoms: C6_7  and  C7_9 
REMARK    5  A    between atoms: C7_9  and  N2_10 
REMARK       I    between atoms: N2_10  and  C8_12 
REMARK    6  A    between atoms: C8_12  and  C9_14 
REMARK    7  A    between atoms: C11_17  and  N3_18 
REMARK    8  A    between atoms: C20_29  and  C21_31 
REMARK       I    between atoms: C21_31  and  N5_33 
REMARK    9  A    between atoms: N5_33  and  C22_35 
REMARK   10  A    between atoms: C22_35  and  C23_36 
REMARK   11  A    between atoms: C23_36  and  N6_37 
ROOT
HETATM    1  N1  UNL     1       5.336  -3.243  15.704  1.00  0.00    -0.399 NA
HETATM    2  C6  UNL     1       6.272  -2.363  16.180  1.00  0.00     0.316 C 
HETATM    3  O1  UNL     1       6.129  -1.631  17.192  1.00  0.00    -0.255 OA
ENDROOT
BRANCH   2   4
HETATM    4  C7  UNL     1       7.626  -2.167  15.526  1.00  0.00     0.127 C 
HETATM    5  C16 UNL     1       7.779  -3.280  14.524  1.00  0.00     0.042 C 
HETATM    6  C17 UNL     1       9.088  -3.951  14.806  1.00  0.00     0.003 C 
HETATM    7  C18 UNL     1       9.631  -3.366  16.067  1.00  0.00     0.003 C 
HETATM    8  C19 UNL     1       8.761  -2.199  16.475  1.00  0.00     0.042 C 
BRANCH   4   9
HETATM    9  N2  UNL     1       7.634  -0.930  14.792  1.00  0.00    -0.337 N 
HETATM   10  C8  UNL     1       7.143  -0.741  13.504  1.00  0.00     0.269 C 
HETATM   11  O2  UNL     1       6.621  -1.648  12.861  1.00  0.00    -0.266 OA
ATOM     12  H2  UNL     1       8.037  -0.117  15.258  1.00  0.00     0.164 HD
BRANCH  10  13
HETATM   13  C9  UNL     1       7.234   0.599  12.832  1.00  0.00     0.109 A 
HETATM   14  C10 UNL     1       7.619   1.740  13.495  1.00  0.00     0.088 A 
HETATM   15  S1  UNL     1       7.494   2.924  12.258  1.00  0.00    -0.064 SA
HETATM   16  C11 UNL     1       6.963   1.903  10.983  1.00  0.00     0.147 A 
HETATM   17  N4  UNL     1       6.915   0.730  11.578  1.00  0.00    -0.332 N 
ATOM     18  H4  UNL     1       6.622  -0.090  11.047  1.00  0.00     0.168 HD
BRANCH  16  19
HETATM   19  N3  UNL     1       6.642   2.244   9.627  1.00  0.00    -0.361 N 
HETATM   20  C12 UNL     1       7.107   1.540   8.475  1.00  0.00     0.125 C 
HETATM   21  C13 UNL     1       6.734   2.424   7.291  1.00  0.00     0.021 C 
HETATM   22  C14 UNL     1       6.434   3.779   7.911  1.00  0.00     0.021 C 
HETATM   23  C15 UNL     1       5.809   3.326   9.235  1.00  0.00     0.125 C 
ENDBRANCH  16  19
ENDBRANCH  10  13
ENDBRANCH   4   9
ENDBRANCH   2   4
BRANCH   1  24
HETATM   24  C5  UNL     1       4.390  -4.129  15.228  1.00  0.00     0.253 C 
BRANCH  24  25
HETATM   25  C2  UNL     1       3.639  -4.853  16.349  1.00  0.00    -0.011 C 
HETATM   26  C1  UNL     1       2.779  -5.983  15.904  1.00  0.00     0.018 C 
HETATM   27  C3  UNL     1       4.586  -5.396  17.393  1.00  0.00     0.018 C 
HETATM   28  C4  UNL     1       2.724  -3.871  17.075  1.00  0.00     0.018 C 
ENDBRANCH  24  25
BRANCH  24  29
HETATM   29  C20 UNL     1       3.423  -3.548  14.251  1.00  0.00     0.252 C 
HETATM   30  O3  UNL     1       2.621  -4.365  13.690  1.00  0.00    -0.284 OA
BRANCH  29  31
HETATM   31  C21 UNL     1       3.297  -2.168  13.870  1.00  0.00     0.290 C 
HETATM   32  O4  UNL     1       2.880  -1.318  14.690  1.00  0.00    -0.264 OA
HETATM   33  N5  UNL     1       3.635  -1.720  12.575  1.00  0.00    -0.353 N 
ATOM     34  H5  UNL     1       3.970  -2.428  11.921  1.00  0.00     0.162 HD
BRANCH  33  35
HETATM   35  C22 UNL     1       3.556  -0.373  12.078  1.00  0.00     0.151 C 
BRANCH  35  36
HETATM   36  C23 UNL     1       2.293  -0.142  11.362  1.00  0.00     0.256 C 
BRANCH  36  37
HETATM   37  N6  UNL     1       1.532   1.010  11.704  1.00  0.00    -0.069 N 
HETATM   38  C24 UNL     1       0.669   0.612  12.825  1.00  0.00     0.272 C 
HETATM   39  C25 UNL     1       2.255   2.156  12.146  1.00  0.00     0.237 C 
HETATM   40  C26 UNL     1       2.509   3.164  11.050  1.00  0.00     0.028 C 
HETATM   41  C27 UNL     1       1.225   3.797  10.564  1.00  0.00     0.003 C 
HETATM   42  C28 UNL     1       0.115   2.833  10.933  1.00  0.00     0.028 C 
HETATM   43  C29 UNL     1       0.618   1.434  10.657  1.00  0.00     0.237 C 
ENDBRANCH  36  37
ENDBRANCH  35  36
ENDBRANCH  33  35
ENDBRANCH  29  31
ENDBRANCH  24  29
ENDBRANCH   1  24
TORSDOF 11
ENDMDL
MODEL 2
REMARK VINA RESULT: -9.017395172      2.014      7.646
REMARK  11 active torsions:
REMARK  status: ('A' for Active; 'I' for Inactive)
REMARK    1  A    between atoms: C2_2  and  C5_5 
REMARK    2  A    between atoms: C5_5  and  N1_6 
REMARK    3  A    between atoms: C5_5  and  C20_29 
REMARK       I    between atoms: N1_6  and  C6_7 
REMARK    4  A    between atoms: C6_7  and  C7_9 
REMARK    5  A    between atoms: C7_9  and  N2_10 
REMARK       I    between atoms: N2_10  and  C8_12 
REMARK    6  A    between atoms: C8_12  and  C9_14 
REMARK    7  A    between atoms: C11_17  and  N3_18 
REMARK    8  A    between atoms: C20_29  and  C21_31 
REMARK       I    between atoms: C21_31  and  N5_33 
REMARK    9  A    between atoms: N5_33  and  C22_35 
REMARK   10  A    between atoms: C22_35  and  C23_36 
REMARK   11  A    between atoms: C23_36  and  N6_37 
ROOT
HETATM    1  N1  UNL     1       3.639   1.735  11.946  1.00  0.00    -0.399 NA
HETATM    2  C6  UNL     1       4.603   2.512  11.359  1.00  0.00     0.316 C 
HETATM    3  O1  UNL     1       4.386   3.425  10.522  1.00  0.00    -0.255 OA
ENDROOT
BRANCH   2   4
HETATM    4  C7  UNL     1       6.081   2.358  11.659  1.00  0.00     0.127 C 
HETATM    5  C16 UNL     1       6.572   3.717  12.078  1.00  0.00     0.042 C 
HETATM    6  C17 UNL     1       7.764   4.038  11.228  1.00  0.00     0.003 C 
HETATM    7  C18 UNL     1       7.880   2.968  10.194  1.00  0.00     0.003 C 
HETATM    8  C19 UNL     1       6.880   1.879  10.509  1.00  0.00     0.042 C 
BRANCH   4   9
HETATM    9  N2  UNL     1       6.258   1.477  12.782  1.00  0.00    -0.337 N 
HETATM   10  C8  UNL     1       6.537   0.116  12.716  1.00  0.00     0.269 C 
HETATM   11  O2  UNL     1       6.682  -0.474  11.648  1.00  0.00    -0.266 OA
ATOM     12  H2  UNL     1       6.170   1.887  13.711  1.00  0.00     0.164 HD
BRANCH  10  13
HETATM   13  C9  UNL     1       6.673  -0.706  13.966  1.00  0.00     0.109 A 
HETATM   14  C10 UNL     1       5.916  -0.481  15.090  1.00  0.00     0.088 A 
HETATM   15  S1  UNL     1       6.530  -1.666  16.170  1.00  0.00    -0.064 SA
HETATM   16  C11 UNL     1       7.703  -2.371  15.132  1.00  0.00     0.147 A 
HETATM   17  N4  UNL     1       7.553  -1.661  14.034  1.00  0.00    -0.332 N 
ATOM     18  H4  UNL     1       8.138  -1.862  13.223  1.00  0.00     0.168 HD
BRANCH  16  19
HETATM   19  N3  UNL     1       8.617  -3.444  15.399  1.00  0.00    -0.361 N 
HETATM   20  C12 UNL     1       8.420  -4.802  15.005  1.00  0.00     0.125 C 
HETATM   21  C13 UNL     1       9.499  -5.590  15.739  1.00  0.00     0.021 C 
HETATM   22  C14 UNL     1       9.984  -4.644  16.826  1.00  0.00     0.021 C 
HETATM   23  C15 UNL     1       9.854  -3.309  16.085  1.00  0.00     0.125 C 
ENDBRANCH  16  19
ENDBRANCH  10  13
ENDBRANCH   4   9
ENDBRANCH   2   4
BRANCH   1  24
HETATM   24  C5  UNL     1       2.665   0.955  12.536  1.00  0.00     0.253 C 
BRANCH  24  25
HETATM   25  C2  UNL     1       1.263   1.247  11.994  1.00  0.00    -0.011 C 
HETATM   26  C1  UNL     1       1.008   0.764  10.610  1.00  0.00     0.018 C 
HETATM   27  C3  UNL     1       0.190   0.655  12.879  1.00  0.00     0.018 C 
HETATM   28  C4  UNL     1       1.019   2.753  11.980  1.00  0.00     0.018 C 
ENDBRANCH  24  25
BRANCH  24  29
HETATM   29  C20 UNL     1       2.934  -0.513  12.506  1.00  0.00     0.252 C 
HETATM   30  O3  UNL     1       3.375  -0.988  11.409  1.00  0.00    -0.284 OA
BRANCH  29  31
HETATM   31  C21 UNL     1       2.750  -1.451  13.579  1.00  0.00     0.290 C 
HETATM   32  O4  UNL     1       2.509  -1.050  14.740  1.00  0.00    -0.264 OA
HETATM   33  N5  UNL     1       2.831  -2.845  13.370  1.00  0.00    -0.353 N 
ATOM     34  H5  UNL     1       3.030  -3.152  12.418  1.00  0.00     0.162 HD
BRANCH  33  35
HETATM   35  C22 UNL     1       2.662  -3.878  14.355  1.00  0.00     0.151 C 
BRANCH  35  36
HETATM   36  C23 UNL     1       3.947  -4.243  14.971  1.00  0.00     0.256 C 
BRANCH  36  37
HETATM   37  N6  UNL     1       3.922  -4.877  16.243  1.00  0.00    -0.069 N 
HETATM   38  C24 UNL     1       3.430  -3.869  17.194  1.00  0.00     0.272 C 
HETATM   39  C25 UNL     1       3.067  -6.009  16.387  1.00  0.00     0.237 C 
HETATM   40  C26 UNL     1       3.783  -7.327  16.209  1.00  0.00     0.028 C 
HETATM   41  C27 UNL     1       4.784  -7.573  17.316  1.00  0.00     0.003 C 
HETATM   42  C28 UNL     1       5.118  -6.211  17.891  1.00  0.00     0.028 C 
HETATM   43  C29 UNL     1       5.239  -5.246  16.734  1.00  0.00     0.237 C 
ENDBRANCH  36  37
ENDBRANCH  35  36
ENDBRANCH  33  35
ENDBRANCH  29  31
ENDBRANCH  24  29
ENDBRANCH   1  24
TORSDOF 11
ENDMDL
MODEL 3
REMARK VINA RESULT: -8.822585749      2.464      9.070
REMARK  11 active torsions:
REMARK  status: ('A' for Active; 'I' for Inactive)
REMARK    1  A    between atoms: C2_2  and  C5_5 
REMARK    2  A    between atoms: C5_5  and  N1_6 
REMARK    3  A    between atoms: C5_5  and  C20_29 
REMARK       I    between atoms: N1_6  and  C6_7 
REMARK    4  A    between atoms: C6_7  and  C7_9 
REMARK    5  A    between atoms: C7_9  and  N2_10 
REMARK       I    between atoms: N2_10  and  C8_12 
REMARK    6  A    between atoms: C8_12  and  C9_14 
REMARK    7  A    between atoms: C11_17  and  N3_18 
REMARK    8  A    between atoms: C20_29  and  C21_31 
REMARK       I    between atoms: C21_31  and  N5_33 
REMARK    9  A    between atoms: N5_33  and  C22_35 
REMARK   10  A    between atoms: C22_35  and  C23_36 
REMARK   11  A    between atoms: C23_36  and  N6_37 
ROOT
HETATM    1  N1  UNL     1       4.530   1.308  12.349  1.00  0.00    -0.399 NA
HETATM    2  C6  UNL     1       3.660   0.711  13.223  1.00  0.00     0.316 C 
HETATM    3  O1  UNL     1       3.782   0.705  14.475  1.00  0.00    -0.255 OA
ENDROOT
BRANCH   2   4
HETATM    4  C7  UNL     1       2.416  -0.029  12.772  1.00  0.00     0.127 C 
HETATM    5  C16 UNL     1       2.615  -0.345  11.314  1.00  0.00     0.042 C 
HETATM    6  C17 UNL     1       1.408   0.160  10.584  1.00  0.00     0.003 C 
HETATM    7  C18 UNL     1       0.579   0.925  11.561  1.00  0.00     0.003 C 
HETATM    8  C19 UNL     1       1.165   0.741  12.942  1.00  0.00     0.042 C 
BRANCH   4   9
HETATM    9  N2  UNL     1       2.319  -1.284  13.470  1.00  0.00    -0.337 N 
HETATM   10  C8  UNL     1       3.308  -2.260  13.536  1.00  0.00     0.269 C 
HETATM   11  O2  UNL     1       4.403  -2.122  12.997  1.00  0.00    -0.266 OA
ATOM     12  H2  UNL     1       1.446  -1.476  13.960  1.00  0.00     0.164 HD
BRANCH  10  13
HETATM   13  C9  UNL     1       3.076  -3.545  14.277  1.00  0.00     0.109 A 
HETATM   14  C10 UNL     1       2.026  -4.386  13.998  1.00  0.00     0.088 A 
HETATM   15  S1  UNL     1       2.252  -5.628  15.161  1.00  0.00    -0.064 SA
HETATM   16  C11 UNL     1       3.659  -5.006  15.925  1.00  0.00     0.147 A 
HETATM   17  N4  UNL     1       3.865  -3.897  15.249  1.00  0.00    -0.332 N 
ATOM     18  H4  UNL     1       4.657  -3.302  15.492  1.00  0.00     0.168 HD
BRANCH  16  19
HETATM   19  N3  UNL     1       4.404  -5.549  17.025  1.00  0.00    -0.361 N 
HETATM   20  C12 UNL     1       3.973  -5.543  18.386  1.00  0.00     0.125 C 
HETATM   21  C13 UNL     1       5.195  -5.970  19.192  1.00  0.00     0.021 C 
HETATM   22  C14 UNL     1       6.361  -5.796  18.231  1.00  0.00     0.021 C 
HETATM   23  C15 UNL     1       5.673  -6.179  16.917  1.00  0.00     0.125 C 
ENDBRANCH  16  19
ENDBRANCH  10  13
ENDBRANCH   4   9
ENDBRANCH   2   4
BRANCH   1  24
HETATM   24  C5  UNL     1       5.409   1.910  11.471  1.00  0.00     0.253 C 
BRANCH  24  25
HETATM   25  C2  UNL     1       5.022   3.355  11.144  1.00  0.00    -0.011 C 
HETATM   26  C1  UNL     1       5.764   4.395  11.906  1.00  0.00     0.018 C 
HETATM   27  C3  UNL     1       5.204   3.661   9.676  1.00  0.00     0.018 C 
HETATM   28  C4  UNL     1       3.541   3.573  11.442  1.00  0.00     0.018 C 
ENDBRANCH  24  25
BRANCH  24  29
HETATM   29  C20 UNL     1       6.844   1.839  11.873  1.00  0.00     0.252 C 
HETATM   30  O3  UNL     1       7.683   2.393  11.090  1.00  0.00    -0.284 OA
BRANCH  29  31
HETATM   31  C21 UNL     1       7.387   1.212  13.047  1.00  0.00     0.290 C 
HETATM   32  O4  UNL     1       8.302   1.767  13.698  1.00  0.00    -0.264 OA
HETATM   33  N5  UNL     1       6.916  -0.036  13.509  1.00  0.00    -0.353 N 
ATOM     34  H5  UNL     1       6.173  -0.472  12.964  1.00  0.00     0.162 HD
BRANCH  33  35
HETATM   35  C22 UNL     1       7.373  -0.758  14.665  1.00  0.00     0.151 C 
BRANCH  35  36
HETATM   36  C23 UNL     1       7.834  -2.107  14.303  1.00  0.00     0.256 C 
BRANCH  36  37
HETATM   37  N6  UNL     1       7.938  -3.077  15.337  1.00  0.00    -0.069 N 
HETATM   38  C24 UNL     1       7.020  -2.643  16.400  1.00  0.00     0.272 C 
HETATM   39  C25 UNL     1       7.565  -4.414  15.012  1.00  0.00     0.237 C 
HETATM   40  C26 UNL     1       8.738  -5.291  14.644  1.00  0.00     0.028 C 
HETATM   41  C27 UNL     1       9.655  -5.522  15.825  1.00  0.00     0.003 C 
HETATM   42  C28 UNL     1       9.397  -4.379  16.786  1.00  0.00     0.028 C 
HETATM   43  C29 UNL     1       9.247  -3.119  15.965  1.00  0.00     0.237 C 
ENDBRANCH  36  37
ENDBRANCH  35  36
ENDBRANCH  33  35
ENDBRANCH  29  31
ENDBRANCH  24  29
ENDBRANCH   1  24
TORSDOF 11
ENDMDL
MODEL 4
REMARK VINA RESULT: -8.813737473      2.884      7.791
REMARK  11 active torsions:
REMARK  status: ('A' for Active; 'I' for Inactive)
REMARK    1  A    between atoms: C2_2  and  C5_5 
REMARK    2  A    between atoms: C5_5  and  N1_6 
REMARK    3  A    between atoms: C5_5  and  C20_29 
REMARK       I    between atoms: N1_6  and  C6_7 
REMARK    4  A    between atoms: C6_7  and  C7_9 
REMARK    5  A    between atoms: C7_9  and  N2_10 
REMARK       I    between atoms: N2_10  and  C8_12 
REMARK    6  A    between atoms: C8_12  and  C9_14 
REMARK    7  A    between atoms: C11_17  and  N3_18 
REMARK    8  A    between atoms: C20_29  and  C21_31 
REMARK       I    between atoms: C21_31  and  N5_33 
REMARK    9  A    between atoms: N5_33  and  C22_35 
REMARK   10  A    between atoms: C22_35  and  C23_36 
REMARK   11  A    between atoms: C23_36  and  N6_37 
ROOT
HETATM    1  N1  UNL     1       3.776   1.242  12.459  1.00  0.00    -0.399 NA
HETATM    2  C6  UNL     1       4.538   0.757  13.489  1.00  0.00     0.316 C 
HETATM    3  O1  UNL     1       4.210   0.776  14.703  1.00  0.00    -0.255 OA
ENDROOT
BRANCH   2   4
HETATM    4  C7  UNL     1       5.898   0.120  13.280  1.00  0.00     0.127 C 
HETATM    5  C16 UNL     1       6.907   1.076  13.855  1.00  0.00     0.042 C 
HETATM    6  C17 UNL     1       7.933   1.328  12.793  1.00  0.00     0.003 C 
HETATM    7  C18 UNL     1       7.453   0.674  11.540  1.00  0.00     0.003 C 
HETATM    8  C19 UNL     1       6.225  -0.146  11.862  1.00  0.00     0.042 C 
BRANCH   4   9
HETATM    9  N2  UNL     1       5.984  -1.098  14.041  1.00  0.00    -0.337 N 
HETATM   10  C8  UNL     1       5.279  -2.270  13.789  1.00  0.00     0.269 C 
HETATM   11  O2  UNL     1       4.502  -2.378  12.844  1.00  0.00    -0.266 OA
ATOM     12  H2  UNL     1       6.620  -1.103  14.838  1.00  0.00     0.164 HD
BRANCH  10  13
HETATM   13  C9  UNL     1       5.436  -3.472  14.676  1.00  0.00     0.109 A 
HETATM   14  C10 UNL     1       4.371  -4.234  15.091  1.00  0.00     0.088 A 
HETATM   15  S1  UNL     1       5.141  -5.402  16.085  1.00  0.00    -0.064 SA
HETATM   16  C11 UNL     1       6.760  -4.854  15.912  1.00  0.00     0.147 A 
HETATM   17  N4  UNL     1       6.610  -3.820  15.112  1.00  0.00    -0.332 N 
ATOM     18  H4  UNL     1       7.430  -3.282  14.830  1.00  0.00     0.168 HD
BRANCH  16  19
HETATM   19  N3  UNL     1       7.959  -5.379  16.500  1.00  0.00    -0.361 N 
HETATM   20  C12 UNL     1       8.173  -5.555  17.900  1.00  0.00     0.125 C 
HETATM   21  C13 UNL     1       9.658  -5.871  18.039  1.00  0.00     0.021 C 
HETATM   22  C14 UNL     1      10.260  -5.447  16.709  1.00  0.00     0.021 C 
HETATM   23  C15 UNL     1       9.102  -5.807  15.773  1.00  0.00     0.125 C 
ENDBRANCH  16  19
ENDBRANCH  10  13
ENDBRANCH   4   9
ENDBRANCH   2   4
BRANCH   1  24
HETATM   24  C5  UNL     1       3.006   1.732  11.423  1.00  0.00     0.253 C 
BRANCH  24  25
HETATM   25  C2  UNL     1       1.510   1.478  11.626  1.00  0.00    -0.011 C 
HETATM   26  C1  UNL     1       0.732   2.647  12.116  1.00  0.00     0.018 C 
HETATM   27  C3  UNL     1       0.848   1.003  10.353  1.00  0.00     0.018 C 
HETATM   28  C4  UNL     1       1.310   0.363  12.649  1.00  0.00     0.018 C 
ENDBRANCH  24  25
BRANCH  24  29
HETATM   29  C20 UNL     1       3.245   3.166  11.088  1.00  0.00     0.252 C 
HETATM   30  O3  UNL     1       3.586   3.926  12.053  1.00  0.00    -0.284 OA
BRANCH  29  31
HETATM   31  C21 UNL     1       3.131   3.787   9.797  1.00  0.00     0.290 C 
HETATM   32  O4  UNL     1       2.124   4.472   9.508  1.00  0.00    -0.264 OA
HETATM   33  N5  UNL     1       4.138   3.654   8.817  1.00  0.00    -0.353 N 
ATOM     34  H5  UNL     1       4.949   3.090   9.071  1.00  0.00     0.162 HD
BRANCH  33  35
HETATM   35  C22 UNL     1       4.142   4.226   7.498  1.00  0.00     0.151 C 
BRANCH  35  36
HETATM   36  C23 UNL     1       5.445   4.831   7.183  1.00  0.00     0.256 C 
BRANCH  36  37
HETATM   37  N6  UNL     1       6.393   4.044   6.474  1.00  0.00    -0.069 N 
HETATM   38  C24 UNL     1       7.047   4.951   5.520  1.00  0.00     0.272 C 
HETATM   39  C25 UNL     1       7.440   3.447   7.235  1.00  0.00     0.237 C 
HETATM   40  C26 UNL     1       7.160   2.013   7.618  1.00  0.00     0.028 C 
HETATM   41  C27 UNL     1       7.126   1.108   6.407  1.00  0.00     0.003 C 
HETATM   42  C28 UNL     1       6.835   2.005   5.220  1.00  0.00     0.028 C 
HETATM   43  C29 UNL     1       5.790   3.007   5.654  1.00  0.00     0.237 C 
ENDBRANCH  36  37
ENDBRANCH  35  36
ENDBRANCH  33  35
ENDBRANCH  29  31
ENDBRANCH  24  29
ENDBRANCH   1  24
TORSDOF 11
ENDMDL
MODEL 5
REMARK VINA RESULT: -8.808961919      3.536      8.143
REMARK  11 active torsions:
REMARK  status: ('A' for Active; 'I' for Inactive)
REMARK    1  A    between atoms: C2_2  and  C5_5 
REMARK    2  A    between atoms: C5_5  and  N1_6 
REMARK    3  A    between atoms: C5_5  and  C20_29 
REMARK       I    between atoms: N1_6  and  C6_7 
REMARK    4  A    between atoms: C6_7  and  C7_9 
REMARK    5  A    between atoms: C7_9  and  N2_10 
REMARK       I    between atoms: N2_10  and  C8_12 
REMARK    6  A    between atoms: C8_12  and  C9_14 
REMARK    7  A    between atoms: C11_17  and  N3_18 
REMARK    8  A    between atoms: C20_29  and  C21_31 
REMARK       I    between atoms: C21_31  and  N5_33 
REMARK    9  A    between atoms: N5_33  and  C22_35 
REMARK   10  A    between atoms: C22_35  and  C23_36 
REMARK   11  A    between atoms: C23_36  and  N6_37 
ROOT
HETATM    1  N1  UNL     1       6.688  -4.399  16.326  1.00  0.00    -0.399 NA
HETATM    2  C6  UNL     1       6.009  -3.213  16.233  1.00  0.00     0.316 C 
HETATM    3  O1  UNL     1       6.476  -2.086  16.538  1.00  0.00    -0.255 OA
ENDROOT
BRANCH   2   4
HETATM    4  C7  UNL     1       4.579  -3.118  15.737  1.00  0.00     0.127 C 
HETATM    5  C16 UNL     1       3.725  -2.867  16.950  1.00  0.00     0.042 C 
HETATM    6  C17 UNL     1       2.638  -3.899  16.946  1.00  0.00     0.003 C 
HETATM    7  C18 UNL     1       2.938  -4.864  15.848  1.00  0.00     0.003 C 
HETATM    8  C19 UNL     1       4.103  -4.335  15.043  1.00  0.00     0.042 C 
BRANCH   4   9
HETATM    9  N2  UNL     1       4.441  -1.975  14.875  1.00  0.00    -0.337 N 
HETATM   10  C8  UNL     1       4.940  -1.862  13.582  1.00  0.00     0.269 C 
HETATM   11  O2  UNL     1       5.552  -2.774  13.032  1.00  0.00    -0.266 OA
ATOM     12  H2  UNL     1       3.931  -1.174  15.246  1.00  0.00     0.164 HD
BRANCH  10  13
HETATM   13  C9  UNL     1       4.752  -0.600  12.789  1.00  0.00     0.109 A 
HETATM   14  C10 UNL     1       5.794   0.060  12.184  1.00  0.00     0.088 A 
HETATM   15  S1  UNL     1       4.997   1.411  11.486  1.00  0.00    -0.064 SA
HETATM   16  C11 UNL     1       3.398   1.055  12.004  1.00  0.00     0.147 A 
HETATM   17  N4  UNL     1       3.573  -0.064  12.672  1.00  0.00    -0.332 N 
ATOM     18  H4  UNL     1       2.770  -0.519  13.107  1.00  0.00     0.168 HD
BRANCH  16  19
HETATM   19  N3  UNL     1       2.190   1.796  11.778  1.00  0.00    -0.361 N 
HETATM   20  C12 UNL     1       0.904   1.435  12.282  1.00  0.00     0.125 C 
HETATM   21  C13 UNL     1      -0.077   2.353  11.561  1.00  0.00     0.021 C 
HETATM   22  C14 UNL     1       0.714   2.904  10.386  1.00  0.00     0.021 C 
HETATM   23  C15 UNL     1       2.101   3.000  11.029  1.00  0.00     0.125 C 
ENDBRANCH  16  19
ENDBRANCH  10  13
ENDBRANCH   4   9
ENDBRANCH   2   4
BRANCH   1  24
HETATM   24  C5  UNL     1       7.376  -5.592  16.421  1.00  0.00     0.253 C 
BRANCH  24  25
HETATM   25  C2  UNL     1       8.864  -5.447  16.090  1.00  0.00    -0.011 C 
HETATM   26  C1  UNL     1       9.466  -4.136  16.456  1.00  0.00     0.018 C 
HETATM   27  C3  UNL     1       9.691  -6.520  16.758  1.00  0.00     0.018 C 
HETATM   28  C4  UNL     1       9.077  -5.618  14.589  1.00  0.00     0.018 C 
ENDBRANCH  24  25
BRANCH  24  29
HETATM   29  C20 UNL     1       7.204  -6.313  17.716  1.00  0.00     0.252 C 
HETATM   30  O3  UNL     1       7.667  -5.737  18.755  1.00  0.00    -0.284 OA
BRANCH  29  31
HETATM   31  C21 UNL     1       6.575  -7.589  17.923  1.00  0.00     0.290 C 
HETATM   32  O4  UNL     1       5.418  -7.657  18.396  1.00  0.00    -0.264 OA
HETATM   33  N5  UNL     1       7.226  -8.800  17.604  1.00  0.00    -0.353 N 
ATOM     34  H5  UNL     1       8.169  -8.723  17.222  1.00  0.00     0.162 HD
BRANCH  33  35
HETATM   35  C22 UNL     1       6.704 -10.130  17.760  1.00  0.00     0.151 C 
BRANCH  35  36
HETATM   36  C23 UNL     1       6.237 -10.673  16.476  1.00  0.00     0.256 C 
BRANCH  36  37
HETATM   37  N6  UNL     1       4.859 -11.002  16.351  1.00  0.00    -0.069 N 
HETATM   38  C24 UNL     1       4.307 -10.976  17.713  1.00  0.00     0.272 C 
HETATM   39  C25 UNL     1       4.049 -10.119  15.578  1.00  0.00     0.237 C 
HETATM   40  C26 UNL     1       3.858 -10.576  14.151  1.00  0.00     0.028 C 
HETATM   41  C27 UNL     1       3.051 -11.854  14.078  1.00  0.00     0.003 C 
HETATM   42  C28 UNL     1       3.189 -12.516  15.434  1.00  0.00     0.028 C 
HETATM   43  C29 UNL     1       4.625 -12.355  15.876  1.00  0.00     0.237 C 
ENDBRANCH  36  37
ENDBRANCH  35  36
ENDBRANCH  33  35
ENDBRANCH  29  31
ENDBRANCH  24  29
ENDBRANCH   1  24
TORSDOF 11
ENDMDL
