MODEL 1
REMARK VINA RESULT: -8.294328551      0.000      0.000
REMARK  2 active torsions:
REMARK  status: ('A' for Active; 'I' for Inactive)
REMARK    1  A    between atoms: C5_12  and  N4_13 
REMARK    2  A    between atoms: N5_15  and  N6_17 
REMARK       I    between atoms: N6_17  and  C6_19 
ROOT
HETATM    1  C1  UNL     1     -17.822 -40.938 -10.567  1.00  0.00     0.163 C 
HETATM    2  N1  UNL     1     -17.362 -42.167  -9.982  1.00  0.00    -0.287 N 
HETATM    3  C2  UNL     1     -17.746 -43.337 -10.528  1.00  0.00     0.330 A 
HETATM    4  O1  UNL     1     -18.497 -43.353 -11.537  1.00  0.00    -0.246 OA
HETATM    5  N2  UNL     1     -17.339 -44.504 -10.013  1.00  0.00    -0.273 N 
ATOM      6  H2  UNL     1     -17.627 -45.393 -10.423  1.00  0.00     0.173 HD
HETATM    7  C3  UNL     1     -16.539 -44.463  -8.938  1.00  0.00     0.280 A 
HETATM    8  O2  UNL     1     -16.154 -45.550  -8.449  1.00  0.00    -0.265 OA
HETATM    9  C4  UNL     1     -16.119 -43.296  -8.343  1.00  0.00     0.162 A 
HETATM   10  N3  UNL     1     -15.346 -42.959  -7.295  1.00  0.00    -0.181 N 
ATOM     11  H3  UNL     1     -14.876 -43.625  -6.681  1.00  0.00     0.184 HD
HETATM   12  C5  UNL     1     -15.279 -41.617  -7.169  1.00  0.00     0.700 A 
HETATM   13  N7  UNL     1     -16.028 -41.106  -8.162  1.00  0.00    -0.172 N 
ATOM     14  H7  UNL     1     -16.174 -40.110  -8.333  1.00  0.00     0.186 HD
HETATM   15  C7  UNL     1     -16.560 -42.105  -8.903  1.00  0.00     0.160 A 
ENDROOT
BRANCH  12  16
HETATM   16  N4  UNL     1     -14.577 -40.838  -6.205  1.00  0.00    -0.117 N 
HETATM   17  N5  UNL     1     -14.416 -41.152  -5.009  1.00  0.00    -0.225 N 
ATOM     18  H5  UNL     1     -13.891 -40.504  -4.420  1.00  0.00     0.209 HD
ATOM     19  H4  UNL     1     -14.174 -39.954  -6.517  1.00  0.00     0.207 HD
BRANCH  17  20
HETATM   20  N6  UNL     1     -14.897 -42.321  -4.409  1.00  0.00    -0.241 N 
HETATM   21  C6  UNL     1     -14.006 -43.203  -3.755  1.00  0.00     0.334 C 
HETATM   22  O3  UNL     1     -12.783 -42.909  -3.728  1.00  0.00    -0.252 OA
HETATM   23 CL1  UNL     1     -14.639 -44.655  -3.015  1.00  0.00    -0.018 Cl
ATOM     24  H6  UNL     1     -15.893 -42.538  -4.444  1.00  0.00     0.192 HD
ENDBRANCH  17  20
ENDBRANCH  12  16
TORSDOF 2
ENDMDL
MODEL 2
REMARK VINA RESULT: -7.615558558      3.617      6.338
REMARK  2 active torsions:
REMARK  status: ('A' for Active; 'I' for Inactive)
REMARK    1  A    between atoms: C5_12  and  N4_13 
REMARK    2  A    between atoms: N5_15  and  N6_17 
REMARK       I    between atoms: N6_17  and  C6_19 
ROOT
HETATM    1  C1  UNL     1     -16.258 -45.687  -2.501  1.00  0.00     0.163 C 
HETATM    2  N1  UNL     1     -14.948 -45.211  -2.850  1.00  0.00    -0.287 N 
HETATM    3  C2  UNL     1     -13.900 -46.053  -2.760  1.00  0.00     0.330 A 
HETATM    4  O1  UNL     1     -14.067 -47.239  -2.376  1.00  0.00    -0.246 OA
HETATM    5  N2  UNL     1     -12.663 -45.648  -3.075  1.00  0.00    -0.273 N 
ATOM      6  H2  UNL     1     -11.867 -46.282  -3.009  1.00  0.00     0.173 HD
HETATM    7  C3  UNL     1     -12.509 -44.380  -3.481  1.00  0.00     0.280 A 
HETATM    8  O2  UNL     1     -11.356 -43.994  -3.778  1.00  0.00    -0.265 OA
HETATM    9  C4  UNL     1     -13.545 -43.482  -3.590  1.00  0.00     0.162 A 
HETATM   10  N3  UNL     1     -13.686 -42.195  -3.955  1.00  0.00    -0.181 N 
ATOM     11  H3  UNL     1     -12.922 -41.590  -4.257  1.00  0.00     0.184 HD
HETATM   12  C5  UNL     1     -14.979 -41.817  -3.867  1.00  0.00     0.700 A 
HETATM   13  N7  UNL     1     -15.659 -42.894  -3.436  1.00  0.00    -0.172 N 
ATOM     14  H7  UNL     1     -16.665 -42.923  -3.270  1.00  0.00     0.186 HD
HETATM   15  C7  UNL     1     -14.814 -43.934  -3.255  1.00  0.00     0.160 A 
ENDROOT
BRANCH  12  16
HETATM   16  N4  UNL     1     -15.568 -40.552  -4.155  1.00  0.00    -0.117 N 
HETATM   17  N5  UNL     1     -16.159 -40.262  -5.214  1.00  0.00    -0.225 N 
ATOM     18  H5  UNL     1     -16.538 -39.318  -5.296  1.00  0.00     0.209 HD
ATOM     19  H4  UNL     1     -15.501 -39.828  -3.440  1.00  0.00     0.207 HD
BRANCH  17  20
HETATM   20  N6  UNL     1     -16.344 -41.126  -6.299  1.00  0.00    -0.241 N 
HETATM   21  C6  UNL     1     -15.252 -41.470  -7.128  1.00  0.00     0.334 C 
HETATM   22  O3  UNL     1     -14.123 -40.982  -6.865  1.00  0.00    -0.252 OA
HETATM   23 CL1  UNL     1     -15.516 -42.552  -8.476  1.00  0.00    -0.018 Cl
ATOM     24  H6  UNL     1     -17.269 -41.508  -6.492  1.00  0.00     0.192 HD
ENDBRANCH  17  20
ENDBRANCH  12  16
TORSDOF 2
ENDMDL
MODEL 3
REMARK VINA RESULT: -7.218535486      5.299      8.528
REMARK  2 active torsions:
REMARK  status: ('A' for Active; 'I' for Inactive)
REMARK    1  A    between atoms: C5_12  and  N4_13 
REMARK    2  A    between atoms: N5_15  and  N6_17 
REMARK       I    between atoms: N6_17  and  C6_19 
ROOT
HETATM    1  C1  UNL     1     -18.934 -44.850 -11.576  1.00  0.00     0.163 C 
HETATM    2  N1  UNL     1     -18.470 -43.533 -11.233  1.00  0.00    -0.287 N 
HETATM    3  C2  UNL     1     -17.424 -43.405 -10.394  1.00  0.00     0.330 A 
HETATM    4  O1  UNL     1     -16.861 -44.424  -9.918  1.00  0.00    -0.246 OA
HETATM    5  N2  UNL     1     -16.961 -42.196 -10.050  1.00  0.00    -0.273 N 
ATOM      6  H2  UNL     1     -16.169 -42.094  -9.415  1.00  0.00     0.173 HD
HETATM    7  C3  UNL     1     -17.577 -41.125 -10.570  1.00  0.00     0.280 A 
HETATM    8  O2  UNL     1     -17.151 -39.991 -10.253  1.00  0.00    -0.265 OA
HETATM    9  C4  UNL     1     -18.648 -41.202 -11.429  1.00  0.00     0.162 A 
HETATM   10  N3  UNL     1     -19.438 -40.332 -12.084  1.00  0.00    -0.181 N 
ATOM     11  H3  UNL     1     -19.349 -39.317 -12.036  1.00  0.00     0.184 HD
HETATM   12  C5  UNL     1     -20.364 -40.990 -12.814  1.00  0.00     0.700 A 
HETATM   13  N7  UNL     1     -20.145 -42.301 -12.608  1.00  0.00    -0.172 N 
ATOM     14  H7  UNL     1     -20.687 -43.057 -13.027  1.00  0.00     0.186 HD
HETATM   15  C7  UNL     1     -19.102 -42.470 -11.765  1.00  0.00     0.160 A 
ENDROOT
BRANCH  12  16
HETATM   16  N4  UNL     1     -21.390 -40.464 -13.650  1.00  0.00    -0.117 N 
HETATM   17  N5  UNL     1     -21.333 -39.376 -14.257  1.00  0.00    -0.225 N 
ATOM     18  H5  UNL     1     -22.138 -39.113 -14.826  1.00  0.00     0.209 HD
ATOM     19  H4  UNL     1     -22.237 -41.020 -13.762  1.00  0.00     0.207 HD
BRANCH  17  20
HETATM   20  N6  UNL     1     -20.254 -38.486 -14.220  1.00  0.00    -0.241 N 
HETATM   21  C6  UNL     1     -19.788 -37.883 -15.411  1.00  0.00     0.334 C 
HETATM   22  O3  UNL     1     -20.365 -38.166 -16.491  1.00  0.00    -0.252 OA
HETATM   23 CL1  UNL     1     -18.437 -36.775 -15.330  1.00  0.00    -0.018 Cl
ATOM     24  H6  UNL     1     -19.801 -38.272 -13.331  1.00  0.00     0.192 HD
ENDBRANCH  17  20
ENDBRANCH  12  16
TORSDOF 2
ENDMDL
MODEL 4
REMARK VINA RESULT: -7.182251592      4.149      7.095
REMARK  2 active torsions:
REMARK  status: ('A' for Active; 'I' for Inactive)
REMARK    1  A    between atoms: C5_12  and  N4_13 
REMARK    2  A    between atoms: N5_15  and  N6_17 
REMARK       I    between atoms: N6_17  and  C6_19 
ROOT
HETATM    1  C1  UNL     1     -18.030 -45.320 -10.834  1.00  0.00     0.163 C 
HETATM    2  N1  UNL     1     -17.435 -44.241 -10.095  1.00  0.00    -0.287 N 
HETATM    3  C2  UNL     1     -16.610 -44.526  -9.069  1.00  0.00     0.330 A 
HETATM    4  O1  UNL     1     -16.364 -45.722  -8.763  1.00  0.00    -0.246 OA
HETATM    5  N2  UNL     1     -16.035 -43.549  -8.356  1.00  0.00    -0.273 N 
ATOM      6  H2  UNL     1     -15.409 -43.761  -7.578  1.00  0.00     0.173 HD
HETATM    7  C3  UNL     1     -16.311 -42.284  -8.700  1.00  0.00     0.280 A 
HETATM    8  O2  UNL     1     -15.778 -41.365  -8.038  1.00  0.00    -0.265 OA
HETATM    9  C4  UNL     1     -17.146 -41.940  -9.738  1.00  0.00     0.162 A 
HETATM   10  N3  UNL     1     -17.593 -40.799 -10.293  1.00  0.00    -0.181 N 
ATOM     11  H3  UNL     1     -17.339 -39.862  -9.979  1.00  0.00     0.184 HD
HETATM   12  C5  UNL     1     -18.422 -41.067 -11.324  1.00  0.00     0.700 A 
HETATM   13  N7  UNL     1     -18.494 -42.408 -11.412  1.00  0.00    -0.172 N 
ATOM     14  H7  UNL     1     -19.047 -42.920 -12.100  1.00  0.00     0.186 HD
HETATM   15  C7  UNL     1     -17.725 -42.977 -10.456  1.00  0.00     0.160 A 
ENDROOT
BRANCH  12  16
HETATM   16  N4  UNL     1     -19.112 -40.164 -12.182  1.00  0.00    -0.117 N 
HETATM   17  N5  UNL     1     -20.310 -40.263 -12.513  1.00  0.00    -0.225 N 
ATOM     18  H5  UNL     1     -20.686 -39.547 -13.136  1.00  0.00     0.209 HD
ATOM     19  H4  UNL     1     -18.585 -39.374 -12.555  1.00  0.00     0.207 HD
BRANCH  17  20
HETATM   20  N6  UNL     1     -21.181 -41.277 -12.101  1.00  0.00    -0.241 N 
HETATM   21  C6  UNL     1     -21.976 -41.961 -13.049  1.00  0.00     0.334 C 
HETATM   22  O3  UNL     1     -21.878 -41.636 -14.259  1.00  0.00    -0.252 OA
HETATM   23 CL1  UNL     1     -23.054 -43.224 -12.501  1.00  0.00    -0.018 Cl
ATOM     24  H6  UNL     1     -21.243 -41.524 -11.113  1.00  0.00     0.192 HD
ENDBRANCH  17  20
ENDBRANCH  12  16
TORSDOF 2
ENDMDL
MODEL 5
REMARK VINA RESULT: -7.166572179      6.798      8.901
REMARK  2 active torsions:
REMARK  status: ('A' for Active; 'I' for Inactive)
REMARK    1  A    between atoms: C5_12  and  N4_13 
REMARK    2  A    between atoms: N5_15  and  N6_17 
REMARK       I    between atoms: N6_17  and  C6_19 
ROOT
HETATM    1  C1  UNL     1     -22.550 -43.391 -12.899  1.00  0.00     0.163 C 
HETATM    2  N1  UNL     1     -21.178 -43.246 -12.498  1.00  0.00    -0.287 N 
HETATM    3  C2  UNL     1     -20.482 -44.342 -12.137  1.00  0.00     0.330 A 
HETATM    4  O1  UNL     1     -21.027 -45.475 -12.151  1.00  0.00    -0.246 OA
HETATM    5  N2  UNL     1     -19.201 -44.249 -11.756  1.00  0.00    -0.273 N 
ATOM      6  H2  UNL     1     -18.671 -45.076 -11.482  1.00  0.00     0.173 HD
HETATM    7  C3  UNL     1     -18.642 -43.031 -11.749  1.00  0.00     0.280 A 
HETATM    8  O2  UNL     1     -17.445 -42.936 -11.395  1.00  0.00    -0.265 OA
HETATM    9  C4  UNL     1     -19.309 -41.883 -12.108  1.00  0.00     0.162 A 
HETATM   10  N3  UNL     1     -19.017 -40.572 -12.194  1.00  0.00    -0.181 N 
ATOM     11  H3  UNL     1     -18.110 -40.163 -11.971  1.00  0.00     0.184 HD
HETATM   12  C5  UNL     1     -20.093 -39.875 -12.618  1.00  0.00     0.700 A 
HETATM   13  N7  UNL     1     -21.078 -40.773 -12.800  1.00  0.00    -0.172 N 
ATOM     14  H7  UNL     1     -22.020 -40.550 -13.119  1.00  0.00     0.186 HD
HETATM   15  C7  UNL     1     -20.634 -42.014 -12.497  1.00  0.00     0.160 A 
ENDROOT
BRANCH  12  16
HETATM   16  N4  UNL     1     -20.224 -38.475 -12.847  1.00  0.00    -0.117 N 
HETATM   17  N5  UNL     1     -20.465 -37.949 -13.951  1.00  0.00    -0.225 N 
ATOM     18  H5  UNL     1     -20.535 -36.931 -13.980  1.00  0.00     0.209 HD
ATOM     19  H4  UNL     1     -20.112 -37.855 -12.045  1.00  0.00     0.207 HD
BRANCH  17  20
HETATM   20  N6  UNL     1     -20.646 -38.641 -15.153  1.00  0.00    -0.241 N 
HETATM   21  C6  UNL     1     -21.940 -39.051 -15.549  1.00  0.00     0.334 C 
HETATM   22  O3  UNL     1     -22.911 -38.778 -14.798  1.00  0.00    -0.252 OA
HETATM   23 CL1  UNL     1     -22.134 -39.914 -17.058  1.00  0.00    -0.018 Cl
ATOM     24  H6  UNL     1     -19.843 -38.851 -15.746  1.00  0.00     0.192 HD
ENDBRANCH  17  20
ENDBRANCH  12  16
TORSDOF 2
ENDMDL
