MODEL 1
REMARK VINA RESULT: -9.325129732      0.000      0.000
REMARK  9 active torsions:
REMARK  status: ('A' for Active; 'I' for Inactive)
REMARK    1  A    between atoms: N1_2  and  C2_4 
REMARK    2  A    between atoms: C2_4  and  C3_5 
REMARK    3  A    between atoms: C3_5  and  N2_6 
REMARK    4  A    between atoms: C6_11  and  N4_12 
REMARK    5  A    between atoms: N4_12  and  N5_14 
REMARK       I    between atoms: C7_16  and  N7_18 
REMARK    6  A    between atoms: N7_18  and  C8_20 
REMARK    7  A    between atoms: N11_25  and  N12_26 
REMARK    8  A    between atoms: C9_31  and  N14_32 
REMARK    9  A    between atoms: N14_32  and  O1_34 
ROOT
HETATM    1  N2  UNL     1       2.086  12.027  22.314  1.00  0.00    -0.325 N 
HETATM    2  C4  UNL     1       3.273  11.996  22.942  1.00  0.00     0.185 A 
HETATM    3  N3  UNL     1       3.895  10.835  22.689  1.00  0.00    -0.346 N 
ATOM      4  H3  UNL     1       4.811  10.557  23.044  1.00  0.00     0.167 HD
HETATM    5  C5  UNL     1       3.114  10.108  21.896  1.00  0.00     0.124 A 
HETATM    6  C6  UNL     1       3.244   8.856  21.332  1.00  0.00     0.166 A 
HETATM    7  N13 UNL     1       2.232   8.424  20.562  1.00  0.00    -0.171 N 
ATOM      8  H13 UNL     1       2.306   7.502  20.133  1.00  0.00     0.186 HD
HETATM    9  C9  UNL     1       1.122   9.151  20.331  1.00  0.00     0.705 A 
HETATM   10  N15 UNL     1       0.977  10.373  20.872  1.00  0.00    -0.172 N 
ATOM     11  H15 UNL     1       0.137  10.925  20.697  1.00  0.00     0.186 HD
HETATM   12  C10 UNL     1       1.972  10.853  21.655  1.00  0.00     0.155 A 
ENDROOT
BRANCH   6  13
HETATM   13  N4  UNL     1       4.300   8.157  21.550  1.00  0.00    -0.281 N 
ATOM     14  H4  UNL     1       5.157   8.421  21.064  1.00  0.00     0.188 HD
BRANCH  13  15
HETATM   15  N5  UNL     1       4.345   7.072  22.401  1.00  0.00    -0.271 N 
HETATM   16  C7  UNL     1       4.911   7.086  23.557  1.00  0.00     0.221 C 
HETATM   17  N6  UNL     1       5.539   8.272  24.023  1.00  0.00    -0.061 NA
HETATM   18  N7  UNL     1       4.926   5.935  24.378  1.00  0.00    -0.158 N 
ATOM     19  H7  UNL     1       4.192   5.237  24.257  1.00  0.00     0.187 HD
ATOM     20  H5  UNL     1       3.903   6.206  22.095  1.00  0.00     0.189 HD
BRANCH  18  21
HETATM   21  C8  UNL     1       5.836   5.734  25.279  1.00  0.00     0.731 A 
HETATM   22  N8  UNL     1       5.922   6.324  26.484  1.00  0.00    -0.115 N 
HETATM   23  N9  UNL     1       7.001   5.838  27.094  1.00  0.00     0.008 NA
ATOM     24  H8  UNL     1       5.276   7.017  26.863  1.00  0.00     0.203 HD
HETATM   25  N10 UNL     1       7.605   4.959  26.312  1.00  0.00     0.030 NA
HETATM   26  N11 UNL     1       6.876   4.899  25.189  1.00  0.00    -0.012 N 
BRANCH  26  27
HETATM   27  N12 UNL     1       7.165   4.086  24.088  1.00  0.00    -0.311 N 
ATOM     28 2H12 UNL     1       7.908   4.260  23.411  1.00  0.00     0.179 HD
ATOM     29 1H12 UNL     1       6.666   3.232  23.842  1.00  0.00     0.179 HD
ENDBRANCH  26  27
ENDBRANCH  18  21
ENDBRANCH  13  15
ENDBRANCH   6  13
BRANCH   9  30
HETATM   30  N14 UNL     1       0.185   8.658  19.571  1.00  0.00    -0.098 N 
ATOM     31  H14 UNL     1       0.380   7.847  18.984  1.00  0.00     0.213 HD
BRANCH  30  32
HETATM   32  O1  UNL     1      -1.058   9.223  19.559  1.00  0.00    -0.276 OA
ATOM     33  H1  UNL     1      -1.523   9.340  18.739  1.00  0.00     0.245 HD
ENDBRANCH  30  32
ENDBRANCH   9  30
BRANCH   1  34
HETATM   34  C3  UNL     1       1.080  13.097  22.311  1.00  0.00     0.150 C 
BRANCH  34  35
HETATM   35  C2  UNL     1       1.252  13.968  21.084  1.00  0.00     0.133 C 
BRANCH  35  36
HETATM   36  N1  UNL     1       0.934  15.337  21.323  1.00  0.00    -0.424 N 
HETATM   37  C1  UNL     1       1.893  16.084  22.068  1.00  0.00     0.139 C 
ATOM     38  H1  UNL     1       0.070  15.758  20.980  1.00  0.00     0.152 HD
ENDBRANCH  35  36
ENDBRANCH  34  35
ENDBRANCH   1  34
TORSDOF 9
ENDMDL
MODEL 2
REMARK VINA RESULT: -9.162224018      3.195      8.317
REMARK  9 active torsions:
REMARK  status: ('A' for Active; 'I' for Inactive)
REMARK    1  A    between atoms: N1_2  and  C2_4 
REMARK    2  A    between atoms: C2_4  and  C3_5 
REMARK    3  A    between atoms: C3_5  and  N2_6 
REMARK    4  A    between atoms: C6_11  and  N4_12 
REMARK    5  A    between atoms: N4_12  and  N5_14 
REMARK       I    between atoms: C7_16  and  N7_18 
REMARK    6  A    between atoms: N7_18  and  C8_20 
REMARK    7  A    between atoms: N11_25  and  N12_26 
REMARK    8  A    between atoms: C9_31  and  N14_32 
REMARK    9  A    between atoms: N14_32  and  O1_34 
ROOT
HETATM    1  N2  UNL     1       4.262   8.269  26.784  1.00  0.00    -0.325 N 
HETATM    2  C4  UNL     1       3.353   9.229  26.546  1.00  0.00     0.185 A 
HETATM    3  N3  UNL     1       3.164   9.365  25.224  1.00  0.00    -0.346 N 
ATOM      4  H3  UNL     1       2.527  10.023  24.776  1.00  0.00     0.167 HD
HETATM    5  C5  UNL     1       3.950   8.494  24.601  1.00  0.00     0.124 A 
HETATM    6  C6  UNL     1       4.165   8.199  23.270  1.00  0.00     0.166 A 
HETATM    7  N13 UNL     1       5.056   7.233  22.994  1.00  0.00    -0.171 N 
ATOM      8  H13 UNL     1       5.230   6.997  22.017  1.00  0.00     0.186 HD
HETATM    9  C9  UNL     1       5.730   6.560  23.945  1.00  0.00     0.705 A 
HETATM   10  N15 UNL     1       5.535   6.833  25.247  1.00  0.00    -0.172 N 
ATOM     11  H15 UNL     1       6.045   6.324  25.969  1.00  0.00     0.186 HD
HETATM   12  C10 UNL     1       4.645   7.799  25.576  1.00  0.00     0.155 A 
ENDROOT
BRANCH   6  13
HETATM   13  N4  UNL     1       3.526   8.838  22.357  1.00  0.00    -0.281 N 
ATOM     14  H4  UNL     1       2.825   8.329  21.818  1.00  0.00     0.188 HD
BRANCH  13  15
HETATM   15  N5  UNL     1       3.730  10.170  22.060  1.00  0.00    -0.271 N 
HETATM   16  C7  UNL     1       2.849  11.091  22.236  1.00  0.00     0.221 C 
HETATM   17  N6  UNL     1       1.574  10.758  22.769  1.00  0.00    -0.061 NA
HETATM   18  N7  UNL     1       3.121  12.438  21.905  1.00  0.00    -0.158 N 
ATOM     19  H7  UNL     1       4.091  12.755  21.897  1.00  0.00     0.187 HD
ATOM     20  H5  UNL     1       4.635  10.441  21.676  1.00  0.00     0.189 HD
BRANCH  18  21
HETATM   21  C8  UNL     1       2.187  13.287  21.611  1.00  0.00     0.731 A 
HETATM   22  N8  UNL     1       1.274  13.173  20.630  1.00  0.00    -0.115 N 
HETATM   23  N9  UNL     1       0.504  14.259  20.669  1.00  0.00     0.008 NA
ATOM     24  H8  UNL     1       1.188  12.396  19.975  1.00  0.00     0.203 HD
HETATM   25  N10 UNL     1       0.901  15.059  21.644  1.00  0.00     0.030 NA
HETATM   26  N11 UNL     1       1.944  14.450  22.224  1.00  0.00    -0.012 N 
BRANCH  26  27
HETATM   27  N12 UNL     1       2.670  14.958  23.306  1.00  0.00    -0.311 N 
ATOM     28 2H12 UNL     1       2.979  15.926  23.401  1.00  0.00     0.179 HD
ATOM     29 1H12 UNL     1       2.970  14.418  24.118  1.00  0.00     0.179 HD
ENDBRANCH  26  27
ENDBRANCH  18  21
ENDBRANCH  13  15
ENDBRANCH   6  13
BRANCH   9  30
HETATM   30  N14 UNL     1       6.578   5.635  23.592  1.00  0.00    -0.098 N 
ATOM     31  H14 UNL     1       6.241   4.709  23.330  1.00  0.00     0.213 HD
BRANCH  30  32
HETATM   32  O1  UNL     1       7.917   5.903  23.573  1.00  0.00    -0.276 OA
ATOM     33  H1  UNL     1       8.258   6.595  23.019  1.00  0.00     0.245 HD
ENDBRANCH  30  32
ENDBRANCH   9  30
BRANCH   1  34
HETATM   34  C3  UNL     1       4.769   7.790  28.075  1.00  0.00     0.150 C 
BRANCH  34  35
HETATM   35  C2  UNL     1       3.620   7.323  28.944  1.00  0.00     0.133 C 
BRANCH  35  36
HETATM   36  N1  UNL     1       3.946   7.291  30.331  1.00  0.00    -0.424 N 
HETATM   37  C1  UNL     1       5.082   6.508  30.691  1.00  0.00     0.139 C 
ATOM     38  H1  UNL     1       3.399   7.799  31.027  1.00  0.00     0.152 HD
ENDBRANCH  35  36
ENDBRANCH  34  35
ENDBRANCH   1  34
TORSDOF 9
ENDMDL
MODEL 3
REMARK VINA RESULT: -9.060653989      3.216      8.280
REMARK  9 active torsions:
REMARK  status: ('A' for Active; 'I' for Inactive)
REMARK    1  A    between atoms: N1_2  and  C2_4 
REMARK    2  A    between atoms: C2_4  and  C3_5 
REMARK    3  A    between atoms: C3_5  and  N2_6 
REMARK    4  A    between atoms: C6_11  and  N4_12 
REMARK    5  A    between atoms: N4_12  and  N5_14 
REMARK       I    between atoms: C7_16  and  N7_18 
REMARK    6  A    between atoms: N7_18  and  C8_20 
REMARK    7  A    between atoms: N11_25  and  N12_26 
REMARK    8  A    between atoms: C9_31  and  N14_32 
REMARK    9  A    between atoms: N14_32  and  O1_34 
ROOT
HETATM    1  N2  UNL     1       4.307   8.165  26.860  1.00  0.00    -0.325 N 
HETATM    2  C4  UNL     1       3.395   9.120  26.613  1.00  0.00     0.185 A 
HETATM    3  N3  UNL     1       3.217   9.254  25.290  1.00  0.00    -0.346 N 
ATOM      4  H3  UNL     1       2.580   9.908  24.835  1.00  0.00     0.167 HD
HETATM    5  C5  UNL     1       4.013   8.386  24.674  1.00  0.00     0.124 A 
HETATM    6  C6  UNL     1       4.242   8.091  23.346  1.00  0.00     0.166 A 
HETATM    7  N13 UNL     1       5.140   7.129  23.078  1.00  0.00    -0.171 N 
ATOM      8  H13 UNL     1       5.324   6.893  22.103  1.00  0.00     0.186 HD
HETATM    9  C9  UNL     1       5.809   6.461  24.037  1.00  0.00     0.705 A 
HETATM   10  N15 UNL     1       5.601   6.734  25.336  1.00  0.00    -0.172 N 
ATOM     11  H15 UNL     1       6.107   6.228  26.063  1.00  0.00     0.186 HD
HETATM   12  C10 UNL     1       4.704   7.696  25.656  1.00  0.00     0.155 A 
ENDROOT
BRANCH   6  13
HETATM   13  N4  UNL     1       3.607   8.726  22.426  1.00  0.00    -0.281 N 
ATOM     14  H4  UNL     1       2.923   8.209  21.874  1.00  0.00     0.188 HD
BRANCH  13  15
HETATM   15  N5  UNL     1       3.794  10.063  22.141  1.00  0.00    -0.271 N 
HETATM   16  C7  UNL     1       2.897  10.969  22.312  1.00  0.00     0.221 C 
HETATM   17  N6  UNL     1       1.621  10.613  22.827  1.00  0.00    -0.061 NA
HETATM   18  N7  UNL     1       3.153  12.322  21.994  1.00  0.00    -0.158 N 
ATOM     19  H7  UNL     1       4.118  12.653  22.001  1.00  0.00     0.187 HD
ATOM     20  H5  UNL     1       4.700  10.350  21.771  1.00  0.00     0.189 HD
BRANCH  18  21
HETATM   21  C8  UNL     1       2.210  13.158  21.694  1.00  0.00     0.731 A 
HETATM   22  N8  UNL     1       1.406  13.809  22.553  1.00  0.00    -0.115 N 
HETATM   23  N9  UNL     1       0.578  14.566  21.836  1.00  0.00     0.008 NA
ATOM     24  H8  UNL     1       1.428  13.737  23.571  1.00  0.00     0.203 HD
HETATM   25  N10 UNL     1       0.829  14.413  20.547  1.00  0.00     0.030 NA
HETATM   26  N11 UNL     1       1.842  13.540  20.466  1.00  0.00    -0.012 N 
BRANCH  26  27
HETATM   27  N12 UNL     1       2.425  13.094  19.275  1.00  0.00    -0.311 N 
ATOM     28 2H12 UNL     1       2.563  12.116  19.021  1.00  0.00     0.179 HD
ATOM     29 1H12 UNL     1       2.776  13.697  18.532  1.00  0.00     0.179 HD
ENDBRANCH  26  27
ENDBRANCH  18  21
ENDBRANCH  13  15
ENDBRANCH   6  13
BRANCH   9  30
HETATM   30  N14 UNL     1       6.665   5.541  23.692  1.00  0.00    -0.098 N 
ATOM     31  H14 UNL     1       6.345   4.587  23.518  1.00  0.00     0.213 HD
BRANCH  30  32
HETATM   32  O1  UNL     1       7.989   5.848  23.563  1.00  0.00    -0.276 OA
ATOM     33  H1  UNL     1       8.429   5.727  22.730  1.00  0.00     0.245 HD
ENDBRANCH  30  32
ENDBRANCH   9  30
BRANCH   1  34
HETATM   34  C3  UNL     1       4.806   7.690  28.157  1.00  0.00     0.150 C 
BRANCH  34  35
HETATM   35  C2  UNL     1       3.644   7.365  29.073  1.00  0.00     0.133 C 
BRANCH  35  36
HETATM   36  N1  UNL     1       4.052   7.051  30.402  1.00  0.00    -0.424 N 
HETATM   37  C1  UNL     1       5.296   6.366  30.531  1.00  0.00     0.139 C 
ATOM     38  H1  UNL     1       3.487   7.301  31.214  1.00  0.00     0.152 HD
ENDBRANCH  35  36
ENDBRANCH  34  35
ENDBRANCH   1  34
TORSDOF 9
ENDMDL
MODEL 4
REMARK VINA RESULT: -8.945657996      2.824      8.916
REMARK  9 active torsions:
REMARK  status: ('A' for Active; 'I' for Inactive)
REMARK    1  A    between atoms: N1_2  and  C2_4 
REMARK    2  A    between atoms: C2_4  and  C3_5 
REMARK    3  A    between atoms: C3_5  and  N2_6 
REMARK    4  A    between atoms: C6_11  and  N4_12 
REMARK    5  A    between atoms: N4_12  and  N5_14 
REMARK       I    between atoms: C7_16  and  N7_18 
REMARK    6  A    between atoms: N7_18  and  C8_20 
REMARK    7  A    between atoms: N11_25  and  N12_26 
REMARK    8  A    between atoms: C9_31  and  N14_32 
REMARK    9  A    between atoms: N14_32  and  O1_34 
ROOT
HETATM    1  N2  UNL     1       6.232   5.755  25.384  1.00  0.00    -0.325 N 
HETATM    2  C4  UNL     1       6.459   5.718  24.060  1.00  0.00     0.185 A 
HETATM    3  N3  UNL     1       5.716   6.648  23.441  1.00  0.00    -0.346 N 
ATOM      4  H3  UNL     1       5.700   6.829  22.438  1.00  0.00     0.167 HD
HETATM    5  C5  UNL     1       5.004   7.291  24.361  1.00  0.00     0.124 A 
HETATM    6  C6  UNL     1       4.088   8.321  24.297  1.00  0.00     0.166 A 
HETATM    7  N13 UNL     1       3.549   8.732  25.456  1.00  0.00    -0.171 N 
ATOM      8  H13 UNL     1       2.870   9.493  25.433  1.00  0.00     0.186 HD
HETATM    9  C9  UNL     1       3.862   8.188  26.647  1.00  0.00     0.705 A 
HETATM   10  N15 UNL     1       4.752   7.184  26.730  1.00  0.00    -0.172 N 
ATOM     11  H15 UNL     1       4.990   6.771  27.632  1.00  0.00     0.186 HD
HETATM   12  C10 UNL     1       5.324   6.734  25.588  1.00  0.00     0.155 A 
ENDROOT
BRANCH   6  13
HETATM   13  N4  UNL     1       3.783   8.843  23.163  1.00  0.00    -0.281 N 
ATOM     14  H4  UNL     1       3.387   8.234  22.447  1.00  0.00     0.188 HD
BRANCH  13  15
HETATM   15  N5  UNL     1       3.960  10.176  22.855  1.00  0.00    -0.271 N 
HETATM   16  C7  UNL     1       2.998  10.989  22.592  1.00  0.00     0.221 C 
HETATM   17  N6  UNL     1       1.655  10.526  22.612  1.00  0.00    -0.061 NA
HETATM   18  N7  UNL     1       3.250  12.344  22.278  1.00  0.00    -0.158 N 
ATOM     19  H7  UNL     1       4.108  12.776  22.623  1.00  0.00     0.187 HD
ATOM     20  H5  UNL     1       4.913  10.539  22.834  1.00  0.00     0.189 HD
BRANCH  18  21
HETATM   21  C8  UNL     1       2.434  13.059  21.570  1.00  0.00     0.731 A 
HETATM   22  N8  UNL     1       1.458  13.862  22.030  1.00  0.00    -0.115 N 
HETATM   23  N9  UNL     1       0.855  14.407  20.976  1.00  0.00     0.008 NA
ATOM     24  H8  UNL     1       1.222  14.023  23.010  1.00  0.00     0.203 HD
HETATM   25  N10 UNL     1       1.416  13.974  19.860  1.00  0.00     0.030 NA
HETATM   26  N11 UNL     1       2.395  13.139  20.236  1.00  0.00    -0.012 N 
BRANCH  26  27
HETATM   27  N12 UNL     1       3.245  12.455  19.362  1.00  0.00    -0.311 N 
ATOM     28 2H12 UNL     1       4.026  11.863  19.648  1.00  0.00     0.179 HD
ATOM     29 1H12 UNL     1       3.180  12.471  18.345  1.00  0.00     0.179 HD
ENDBRANCH  26  27
ENDBRANCH  18  21
ENDBRANCH  13  15
ENDBRANCH   6  13
BRANCH   9  30
HETATM   30  N14 UNL     1       3.293   8.647  27.727  1.00  0.00    -0.098 N 
ATOM     31  H14 UNL     1       3.268   9.652  27.901  1.00  0.00     0.213 HD
BRANCH  30  32
HETATM   32  O1  UNL     1       2.730   7.786  28.625  1.00  0.00    -0.276 OA
ATOM     33  H1  UNL     1       2.143   8.113  29.296  1.00  0.00     0.245 HD
ENDBRANCH  30  32
ENDBRANCH   9  30
BRANCH   1  34
HETATM   34  C3  UNL     1       6.826   4.923  26.438  1.00  0.00     0.150 C 
BRANCH  34  35
HETATM   35  C2  UNL     1       8.298   4.700  26.157  1.00  0.00     0.133 C 
BRANCH  35  36
HETATM   36  N1  UNL     1       8.666   3.324  26.169  1.00  0.00    -0.424 N 
HETATM   37  C1  UNL     1       7.616   2.390  25.928  1.00  0.00     0.139 C 
ATOM     38  H1  UNL     1       9.627   3.024  26.340  1.00  0.00     0.152 HD
ENDBRANCH  35  36
ENDBRANCH  34  35
ENDBRANCH   1  34
TORSDOF 9
ENDMDL
MODEL 5
REMARK VINA RESULT: -8.828456892      2.271      8.511
REMARK  9 active torsions:
REMARK  status: ('A' for Active; 'I' for Inactive)
REMARK    1  A    between atoms: N1_2  and  C2_4 
REMARK    2  A    between atoms: C2_4  and  C3_5 
REMARK    3  A    between atoms: C3_5  and  N2_6 
REMARK    4  A    between atoms: C6_11  and  N4_12 
REMARK    5  A    between atoms: N4_12  and  N5_14 
REMARK       I    between atoms: C7_16  and  N7_18 
REMARK    6  A    between atoms: N7_18  and  C8_20 
REMARK    7  A    between atoms: N11_25  and  N12_26 
REMARK    8  A    between atoms: C9_31  and  N14_32 
REMARK    9  A    between atoms: N14_32  and  O1_34 
ROOT
HETATM    1  N2  UNL     1       5.521   6.142  25.953  1.00  0.00    -0.325 N 
HETATM    2  C4  UNL     1       5.126   6.901  26.989  1.00  0.00     0.185 A 
HETATM    3  N3  UNL     1       4.417   7.950  26.545  1.00  0.00    -0.346 N 
ATOM      4  H3  UNL     1       4.002   8.679  27.125  1.00  0.00     0.167 HD
HETATM    5  C5  UNL     1       4.350   7.876  25.220  1.00  0.00     0.124 A 
HETATM    6  C6  UNL     1       3.760   8.670  24.258  1.00  0.00     0.166 A 
HETATM    7  N13 UNL     1       3.896   8.284  22.979  1.00  0.00    -0.171 N 
ATOM      8  H13 UNL     1       3.468   8.854  22.251  1.00  0.00     0.186 HD
HETATM    9  C9  UNL     1       4.571   7.178  22.613  1.00  0.00     0.705 A 
HETATM   10  N15 UNL     1       5.153   6.392  23.534  1.00  0.00    -0.172 N 
ATOM     11  H15 UNL     1       5.664   5.554  23.258  1.00  0.00     0.186 HD
HETATM   12  C10 UNL     1       5.043   6.740  24.839  1.00  0.00     0.155 A 
ENDROOT
BRANCH   6  13
HETATM   13  N4  UNL     1       3.116   9.727  24.601  1.00  0.00    -0.281 N 
ATOM     14  H4  UNL     1       2.378   9.632  25.299  1.00  0.00     0.188 HD
BRANCH  13  15
HETATM   15  N5  UNL     1       3.360  10.983  24.083  1.00  0.00    -0.271 N 
HETATM   16  C7  UNL     1       2.721  11.489  23.088  1.00  0.00     0.221 C 
HETATM   17  N6  UNL     1       1.691  10.742  22.455  1.00  0.00    -0.061 NA
HETATM   18  N7  UNL     1       3.026  12.782  22.604  1.00  0.00    -0.158 N 
ATOM     19  H7  UNL     1       3.453  13.456  23.239  1.00  0.00     0.187 HD
ATOM     20  H5  UNL     1       4.093  11.544  24.517  1.00  0.00     0.189 HD
BRANCH  18  21
HETATM   21  C8  UNL     1       2.783  13.144  21.383  1.00  0.00     0.731 A 
HETATM   22  N8  UNL     1       2.823  12.364  20.288  1.00  0.00    -0.115 N 
HETATM   23  N9  UNL     1       2.512  13.125  19.240  1.00  0.00     0.008 NA
ATOM     24  H8  UNL     1       3.050  11.370  20.264  1.00  0.00     0.203 HD
HETATM   25  N10 UNL     1       2.279  14.365  19.636  1.00  0.00     0.030 NA
HETATM   26  N11 UNL     1       2.448  14.369  20.966  1.00  0.00    -0.012 N 
BRANCH  26  27
HETATM   27  N12 UNL     1       2.297  15.488  21.791  1.00  0.00    -0.311 N 
ATOM     28 2H12 UNL     1       1.889  15.476  22.725  1.00  0.00     0.179 HD
ATOM     29 1H12 UNL     1       2.578  16.438  21.549  1.00  0.00     0.179 HD
ENDBRANCH  26  27
ENDBRANCH  18  21
ENDBRANCH  13  15
ENDBRANCH   6  13
BRANCH   9  30
HETATM   30  N14 UNL     1       4.656   6.873  21.348  1.00  0.00    -0.098 N 
ATOM     31  H14 UNL     1       5.562   6.900  20.878  1.00  0.00     0.213 HD
BRANCH  30  32
HETATM   32  O1  UNL     1       3.538   6.517  20.650  1.00  0.00    -0.276 OA
ATOM     33  H1  UNL     1       3.120   7.140  20.068  1.00  0.00     0.245 HD
ENDBRANCH  30  32
ENDBRANCH   9  30
BRANCH   1  34
HETATM   34  C3  UNL     1       6.312   4.905  25.974  1.00  0.00     0.150 C 
BRANCH  34  35
HETATM   35  C2  UNL     1       7.773   5.218  25.729  1.00  0.00     0.133 C 
BRANCH  35  36
HETATM   36  N1  UNL     1       8.638   4.131  26.046  1.00  0.00    -0.424 N 
HETATM   37  C1  UNL     1       8.001   2.912  26.423  1.00  0.00     0.139 C 
ATOM     38  H1  UNL     1       9.654   4.220  26.006  1.00  0.00     0.152 HD
ENDBRANCH  35  36
ENDBRANCH  34  35
ENDBRANCH   1  34
TORSDOF 9
ENDMDL
