MODEL 1
REMARK VINA RESULT: -9.252874637      0.000      0.000
REMARK  10 active torsions:
REMARK  status: ('A' for Active; 'I' for Inactive)
REMARK    1  A    between atoms: N1_1  and  N2_4 
REMARK    2  A    between atoms: C4_9  and  O2_10 
REMARK    3  A    between atoms: C6_16  and  O4_17 
REMARK    4  A    between atoms: O4_17  and  C7_18 
REMARK    5  A    between atoms: C7_18  and  C8_19 
REMARK    6  A    between atoms: C8_19  and  C9_21 
REMARK    7  A    between atoms: C9_21  and  O6_22 
REMARK    8  A    between atoms: C9_21  and  O7_24 
REMARK    9  A    between atoms: C10_26  and  N4_27 
REMARK   10  A    between atoms: C10_26  and  O8_31 
ROOT
HETATM    1  N2  UNL     1       3.839   8.139  22.010  1.00  0.00    -0.188 N 
HETATM    2  C1  UNL     1       2.965   9.200  21.633  1.00  0.00     0.283 C 
HETATM    3  O1  UNL     1       2.533   9.239  20.463  1.00  0.00    -0.265 OA
HETATM    4  C2  UNL     1       2.585  10.208  22.610  1.00  0.00     0.089 A 
HETATM    5  C3  UNL     1       3.069  10.128  23.895  1.00  0.00     0.084 A 
HETATM    6  C4  UNL     1       2.582  11.017  24.873  1.00  0.00     0.155 A 
HETATM    7  N3  UNL     1       1.672  11.906  24.545  1.00  0.00    -0.301 N 
ATOM      8  H3  UNL     1       1.337  12.534  25.276  1.00  0.00     0.171 HD
HETATM    9  C5  UNL     1       1.155  12.048  23.320  1.00  0.00     0.282 A 
HETATM   10  O3  UNL     1       0.281  12.911  23.080  1.00  0.00    -0.265 OA
HETATM   11  C6  UNL     1       1.601  11.203  22.306  1.00  0.00     0.159 A 
HETATM   12  C10 UNL     1       4.116   9.186  24.274  1.00  0.00     0.339 C 
HETATM   13  C11 UNL     1       4.302   8.112  23.339  1.00  0.00     0.314 C 
HETATM   14  O9  UNL     1       4.920   7.041  23.688  1.00  0.00    -0.265 OA
ENDROOT
BRANCH  11  15
HETATM   15  O4  UNL     1       1.153  11.283  21.030  1.00  0.00    -0.312 OA
BRANCH  15  16
HETATM   16  C7  UNL     1       1.241  12.225  20.075  1.00  0.00     0.198 C 
BRANCH  16  17
HETATM   17  C8  UNL     1       2.351  13.161  19.982  1.00  0.00     0.225 C 
HETATM   18  O5  UNL     1       3.410  13.118  19.441  1.00  0.00    -0.286 OA
BRANCH  17  19
HETATM   19  C9  UNL     1       2.136  14.497  20.730  1.00  0.00     0.331 C 
BRANCH  19  20
HETATM   20  O6  UNL     1       2.972  15.452  20.183  1.00  0.00    -0.365 OA
ATOM     21  H6  UNL     1       3.559  15.770  20.859  1.00  0.00     0.213 HD
ENDBRANCH  19  20
BRANCH  19  22
HETATM   22  O7  UNL     1       0.804  14.834  20.681  1.00  0.00    -0.365 OA
ATOM     23  H7  UNL     1       0.701  15.627  20.167  1.00  0.00     0.213 HD
ENDBRANCH  19  22
ENDBRANCH  17  19
ENDBRANCH  16  17
ENDBRANCH  15  16
ENDBRANCH  11  15
BRANCH   1  24
HETATM   24  N1  UNL     1       4.219   7.151  21.062  1.00  0.00    -0.333 N 
ATOM     25  H12 UNL     1       3.797   6.222  21.052  1.00  0.00     0.177 HD
ATOM     26  H11 UNL     1       4.933   7.356  20.364  1.00  0.00     0.177 HD
ENDBRANCH   1  24
BRANCH   6  27
HETATM   27  O2  UNL     1       3.115  10.877  26.138  1.00  0.00    -0.345 OA
ATOM     28  H2  UNL     1       2.765  11.457  26.806  1.00  0.00     0.219 HD
ENDBRANCH   6  27
BRANCH  12  29
HETATM   29  N4  UNL     1       3.979   8.677  25.618  1.00  0.00    -0.033 N 
ATOM     30  H43 UNL     1       4.349   9.344  26.295  1.00  0.00     0.279 HD
ATOM     31  H42 UNL     1       2.999   8.670  25.901  1.00  0.00     0.279 HD
ATOM     32  H41 UNL     1       4.399   7.758  25.752  1.00  0.00     0.279 HD
ENDBRANCH  12  29
BRANCH  12  33
HETATM   33  O8  UNL     1       5.325   9.942  24.284  1.00  0.00    -0.354 OA
ATOM     34  H8  UNL     1       5.963   9.397  24.729  1.00  0.00     0.213 HD
ENDBRANCH  12  33
TORSDOF 10
ENDMDL
MODEL 2
REMARK VINA RESULT: -8.845011467      2.505      6.587
REMARK  10 active torsions:
REMARK  status: ('A' for Active; 'I' for Inactive)
REMARK    1  A    between atoms: N1_1  and  N2_4 
REMARK    2  A    between atoms: C4_9  and  O2_10 
REMARK    3  A    between atoms: C6_16  and  O4_17 
REMARK    4  A    between atoms: O4_17  and  C7_18 
REMARK    5  A    between atoms: C7_18  and  C8_19 
REMARK    6  A    between atoms: C8_19  and  C9_21 
REMARK    7  A    between atoms: C9_21  and  O6_22 
REMARK    8  A    between atoms: C9_21  and  O7_24 
REMARK    9  A    between atoms: C10_26  and  N4_27 
REMARK   10  A    between atoms: C10_26  and  O8_31 
ROOT
HETATM    1  N2  UNL     1       1.970  11.057  22.478  1.00  0.00    -0.188 N 
HETATM    2  C1  UNL     1       2.991  10.652  23.385  1.00  0.00     0.283 C 
HETATM    3  O1  UNL     1       3.194  11.333  24.410  1.00  0.00    -0.265 OA
HETATM    4  C2  UNL     1       3.770   9.453  23.112  1.00  0.00     0.089 A 
HETATM    5  C3  UNL     1       3.512   8.717  21.979  1.00  0.00     0.084 A 
HETATM    6  C4  UNL     1       4.163   7.482  21.795  1.00  0.00     0.155 A 
HETATM    7  N3  UNL     1       5.004   7.050  22.707  1.00  0.00    -0.301 N 
ATOM      8  H3  UNL     1       5.457   6.151  22.547  1.00  0.00     0.171 HD
HETATM    9  C5  UNL     1       5.309   7.708  23.832  1.00  0.00     0.282 A 
HETATM   10  O3  UNL     1       6.112   7.231  24.665  1.00  0.00    -0.265 OA
HETATM   11  C6  UNL     1       4.703   8.939  24.068  1.00  0.00     0.159 A 
HETATM   12  C10 UNL     1       2.623   9.196  20.926  1.00  0.00     0.339 C 
HETATM   13  C11 UNL     1       1.754  10.264  21.336  1.00  0.00     0.314 C 
HETATM   14  O9  UNL     1       0.703  10.550  20.654  1.00  0.00    -0.265 OA
ENDROOT
BRANCH  11  15
HETATM   15  O4  UNL     1       4.963   9.689  25.167  1.00  0.00    -0.312 OA
BRANCH  15  16
HETATM   16  C7  UNL     1       4.914   9.444  26.488  1.00  0.00     0.198 C 
BRANCH  16  17
HETATM   17  C8  UNL     1       3.717   8.968  27.164  1.00  0.00     0.225 C 
HETATM   18  O5  UNL     1       2.610   9.394  27.258  1.00  0.00    -0.286 OA
BRANCH  17  19
HETATM   19  C9  UNL     1       3.891   7.634  27.926  1.00  0.00     0.331 C 
BRANCH  19  20
HETATM   20  O6  UNL     1       2.712   7.342  28.586  1.00  0.00    -0.365 OA
ATOM     21  H6  UNL     1       2.654   7.884  29.365  1.00  0.00     0.213 HD
ENDBRANCH  19  20
BRANCH  19  22
HETATM   22  O7  UNL     1       4.286   6.657  27.043  1.00  0.00    -0.365 OA
ATOM     23  H7  UNL     1       4.028   5.807  27.380  1.00  0.00     0.213 HD
ENDBRANCH  19  22
ENDBRANCH  17  19
ENDBRANCH  16  17
ENDBRANCH  15  16
ENDBRANCH  11  15
BRANCH   1  24
HETATM   24  N1  UNL     1       1.206  12.228  22.734  1.00  0.00    -0.333 N 
ATOM     25  H12 UNL     1       1.188  13.013  22.084  1.00  0.00     0.177 HD
ATOM     26  H11 UNL     1       0.654  12.305  23.588  1.00  0.00     0.177 HD
ENDBRANCH   1  24
BRANCH   6  27
HETATM   27  O2  UNL     1       3.855   6.801  20.635  1.00  0.00    -0.345 OA
ATOM     28  H2  UNL     1       3.803   7.325  19.844  1.00  0.00     0.219 HD
ENDBRANCH   6  27
BRANCH  12  29
HETATM   29  N4  UNL     1       1.875   8.147  20.277  1.00  0.00    -0.033 N 
ATOM     30  H43 UNL     1       2.429   7.714  19.538  1.00  0.00     0.279 HD
ATOM     31  H42 UNL     1       1.763   7.347  20.900  1.00  0.00     0.279 HD
ATOM     32  H41 UNL     1       0.970   8.451  19.917  1.00  0.00     0.279 HD
ENDBRANCH  12  29
BRANCH  12  33
HETATM   33  O8  UNL     1       3.479   9.723  19.914  1.00  0.00    -0.354 OA
ATOM     34  H8  UNL     1       3.245   9.263  19.117  1.00  0.00     0.213 HD
ENDBRANCH  12  33
TORSDOF 10
ENDMDL
MODEL 3
REMARK VINA RESULT: -8.806343406      2.272      3.445
REMARK  10 active torsions:
REMARK  status: ('A' for Active; 'I' for Inactive)
REMARK    1  A    between atoms: N1_1  and  N2_4 
REMARK    2  A    between atoms: C4_9  and  O2_10 
REMARK    3  A    between atoms: C6_16  and  O4_17 
REMARK    4  A    between atoms: O4_17  and  C7_18 
REMARK    5  A    between atoms: C7_18  and  C8_19 
REMARK    6  A    between atoms: C8_19  and  C9_21 
REMARK    7  A    between atoms: C9_21  and  O6_22 
REMARK    8  A    between atoms: C9_21  and  O7_24 
REMARK    9  A    between atoms: C10_26  and  N4_27 
REMARK   10  A    between atoms: C10_26  and  O8_31 
ROOT
HETATM    1  N2  UNL     1       5.046   7.349  23.618  1.00  0.00    -0.188 N 
HETATM    2  C1  UNL     1       4.208   8.142  22.781  1.00  0.00     0.283 C 
HETATM    3  O1  UNL     1       4.055   7.808  21.589  1.00  0.00    -0.265 OA
HETATM    4  C2  UNL     1       3.541   9.316  23.326  1.00  0.00     0.089 A 
HETATM    5  C3  UNL     1       3.722   9.649  24.647  1.00  0.00     0.084 A 
HETATM    6  C4  UNL     1       2.960  10.693  25.206  1.00  0.00     0.155 A 
HETATM    7  N3  UNL     1       2.088  11.332  24.459  1.00  0.00    -0.301 N 
ATOM      8  H3  UNL     1       1.549  12.081  24.893  1.00  0.00     0.171 HD
HETATM    9  C5  UNL     1       1.857  11.068  23.167  1.00  0.00     0.282 A 
HETATM   10  O3  UNL     1       1.001  11.709  22.518  1.00  0.00    -0.265 OA
HETATM   11  C6  UNL     1       2.584  10.050  22.555  1.00  0.00     0.159 A 
HETATM   12  C10 UNL     1       4.719   8.993  25.486  1.00  0.00     0.339 C 
HETATM   13  C11 UNL     1       5.192   7.743  24.961  1.00  0.00     0.314 C 
HETATM   14  O9  UNL     1       5.790   6.898  25.723  1.00  0.00    -0.265 OA
ENDROOT
BRANCH  11  15
HETATM   15  O4  UNL     1       2.436   9.724  21.248  1.00  0.00    -0.312 OA
BRANCH  15  16
HETATM   16  C7  UNL     1       1.370   9.605  20.438  1.00  0.00     0.198 C 
BRANCH  16  17
HETATM   17  C8  UNL     1       0.903   8.328  19.920  1.00  0.00     0.225 C 
HETATM   18  O5  UNL     1       1.435   7.279  19.740  1.00  0.00    -0.286 OA
BRANCH  17  19
HETATM   19  C9  UNL     1      -0.587   8.300  19.513  1.00  0.00     0.331 C 
BRANCH  19  20
HETATM   20  O6  UNL     1      -1.219   7.285  20.208  1.00  0.00    -0.365 OA
ATOM     21  H6  UNL     1      -0.572   6.637  20.460  1.00  0.00     0.213 HD
ENDBRANCH  19  20
BRANCH  19  22
HETATM   22  O7  UNL     1      -1.138   9.542  19.725  1.00  0.00    -0.365 OA
ATOM     23  H7  UNL     1      -1.700   9.764  18.992  1.00  0.00     0.213 HD
ENDBRANCH  19  22
ENDBRANCH  17  19
ENDBRANCH  16  17
ENDBRANCH  15  16
ENDBRANCH  11  15
BRANCH   1  24
HETATM   24  N1  UNL     1       5.704   6.204  23.094  1.00  0.00    -0.333 N 
ATOM     25  H12 UNL     1       5.873   5.373  23.661  1.00  0.00     0.177 HD
ATOM     26  H11 UNL     1       6.026   6.193  22.127  1.00  0.00     0.177 HD
ENDBRANCH   1  24
BRANCH   6  27
HETATM   27  O2  UNL     1       3.196  10.972  26.537  1.00  0.00    -0.345 OA
ATOM     28  H2  UNL     1       2.626  10.540  27.163  1.00  0.00     0.219 HD
ENDBRANCH   6  27
BRANCH  12  29
HETATM   29  N4  UNL     1       4.314   8.850  26.864  1.00  0.00    -0.033 N 
ATOM     30  H43 UNL     1       4.738   9.577  27.441  1.00  0.00     0.279 HD
ATOM     31  H42 UNL     1       3.330   9.093  26.977  1.00  0.00     0.279 HD
ATOM     32  H41 UNL     1       4.504   7.926  27.253  1.00  0.00     0.279 HD
ENDBRANCH  12  29
BRANCH  12  33
HETATM   33  O8  UNL     1       5.836   9.880  25.516  1.00  0.00    -0.354 OA
ATOM     34  H8  UNL     1       5.466  10.755  25.538  1.00  0.00     0.213 HD
ENDBRANCH  12  33
TORSDOF 10
ENDMDL
MODEL 4
REMARK VINA RESULT: -8.798121814      1.303      1.652
REMARK  10 active torsions:
REMARK  status: ('A' for Active; 'I' for Inactive)
REMARK    1  A    between atoms: N1_1  and  N2_4 
REMARK    2  A    between atoms: C4_9  and  O2_10 
REMARK    3  A    between atoms: C6_16  and  O4_17 
REMARK    4  A    between atoms: O4_17  and  C7_18 
REMARK    5  A    between atoms: C7_18  and  C8_19 
REMARK    6  A    between atoms: C8_19  and  C9_21 
REMARK    7  A    between atoms: C9_21  and  O6_22 
REMARK    8  A    between atoms: C9_21  and  O7_24 
REMARK    9  A    between atoms: C10_26  and  N4_27 
REMARK   10  A    between atoms: C10_26  and  O8_31 
ROOT
HETATM    1  N2  UNL     1       4.852   7.614  23.344  1.00  0.00    -0.188 N 
HETATM    2  C1  UNL     1       3.909   8.492  22.733  1.00  0.00     0.283 C 
HETATM    3  O1  UNL     1       3.578   8.292  21.547  1.00  0.00    -0.265 OA
HETATM    4  C2  UNL     1       3.344   9.594  23.498  1.00  0.00     0.089 A 
HETATM    5  C3  UNL     1       3.721   9.778  24.807  1.00  0.00     0.084 A 
HETATM    6  C4  UNL     1       3.063  10.750  25.585  1.00  0.00     0.155 A 
HETATM    7  N3  UNL     1       2.098  11.464  25.050  1.00  0.00    -0.301 N 
ATOM      8  H3  UNL     1       1.638  12.158  25.640  1.00  0.00     0.171 HD
HETATM    9  C5  UNL     1       1.676  11.346  23.786  1.00  0.00     0.282 A 
HETATM   10  O3  UNL     1       0.742  12.052  23.344  1.00  0.00    -0.265 OA
HETATM   11  C6  UNL     1       2.293  10.406  22.963  1.00  0.00     0.159 A 
HETATM   12  C10 UNL     1       4.823   9.037  25.411  1.00  0.00     0.339 C 
HETATM   13  C11 UNL     1       5.198   7.856  24.686  1.00  0.00     0.314 C 
HETATM   14  O9  UNL     1       5.891   6.933  25.253  1.00  0.00    -0.265 OA
ENDROOT
BRANCH  11  15
HETATM   15  O4  UNL     1       1.951  10.227  21.664  1.00  0.00    -0.312 OA
BRANCH  15  16
HETATM   16  C7  UNL     1       2.210  10.910  20.536  1.00  0.00     0.198 C 
BRANCH  16  17
HETATM   17  C8  UNL     1       1.676  12.237  20.269  1.00  0.00     0.225 C 
HETATM   18  O5  UNL     1       0.586  12.707  20.346  1.00  0.00    -0.286 OA
BRANCH  17  19
HETATM   19  C9  UNL     1       2.719  13.270  19.786  1.00  0.00     0.331 C 
BRANCH  19  20
HETATM   20  O6  UNL     1       3.665  12.620  19.015  1.00  0.00    -0.365 OA
ATOM     21  H6  UNL     1       4.530  12.905  19.286  1.00  0.00     0.213 HD
ENDBRANCH  19  20
BRANCH  19  22
HETATM   22  O7  UNL     1       2.075  14.290  19.127  1.00  0.00    -0.365 OA
ATOM     23  H7  UNL     1       2.474  14.412  18.273  1.00  0.00     0.213 HD
ENDBRANCH  19  22
ENDBRANCH  17  19
ENDBRANCH  16  17
ENDBRANCH  15  16
ENDBRANCH  11  15
BRANCH   1  24
HETATM   24  N1  UNL     1       5.412   6.537  22.605  1.00  0.00    -0.333 N 
ATOM     25  H12 UNL     1       5.906   6.686  21.725  1.00  0.00     0.177 HD
ATOM     26  H11 UNL     1       5.327   5.580  22.946  1.00  0.00     0.177 HD
ENDBRANCH   1  24
BRANCH   6  27
HETATM   27  O2  UNL     1       3.496  10.879  26.889  1.00  0.00    -0.345 OA
ATOM     28  H2  UNL     1       2.952  11.409  27.460  1.00  0.00     0.219 HD
ENDBRANCH   6  27
BRANCH  12  29
HETATM   29  N4  UNL     1       4.624   8.738  26.809  1.00  0.00    -0.033 N 
ATOM     30  H43 UNL     1       4.312   9.569  27.313  1.00  0.00     0.279 HD
ATOM     31  H42 UNL     1       3.806   8.143  26.936  1.00  0.00     0.279 HD
ATOM     32  H41 UNL     1       5.441   8.329  27.261  1.00  0.00     0.279 HD
ENDBRANCH  12  29
BRANCH  12  33
HETATM   33  O8  UNL     1       5.943   9.920  25.374  1.00  0.00    -0.354 OA
ATOM     34  H8  UNL     1       6.175  10.074  26.282  1.00  0.00     0.213 HD
ENDBRANCH  12  33
TORSDOF 10
ENDMDL
MODEL 5
REMARK VINA RESULT: -8.707259662      2.482      6.397
REMARK  10 active torsions:
REMARK  status: ('A' for Active; 'I' for Inactive)
REMARK    1  A    between atoms: N1_1  and  N2_4 
REMARK    2  A    between atoms: C4_9  and  O2_10 
REMARK    3  A    between atoms: C6_16  and  O4_17 
REMARK    4  A    between atoms: O4_17  and  C7_18 
REMARK    5  A    between atoms: C7_18  and  C8_19 
REMARK    6  A    between atoms: C8_19  and  C9_21 
REMARK    7  A    between atoms: C9_21  and  O6_22 
REMARK    8  A    between atoms: C9_21  and  O7_24 
REMARK    9  A    between atoms: C10_26  and  N4_27 
REMARK   10  A    between atoms: C10_26  and  O8_31 
ROOT
HETATM    1  N2  UNL     1       1.901  11.019  22.645  1.00  0.00    -0.188 N 
HETATM    2  C1  UNL     1       2.916  10.592  23.550  1.00  0.00     0.283 C 
HETATM    3  O1  UNL     1       3.090  11.231  24.607  1.00  0.00    -0.265 OA
HETATM    4  C2  UNL     1       3.721   9.422  23.236  1.00  0.00     0.089 A 
HETATM    5  C3  UNL     1       3.495   8.732  22.068  1.00  0.00     0.084 A 
HETATM    6  C4  UNL     1       4.172   7.518  21.840  1.00  0.00     0.155 A 
HETATM    7  N3  UNL     1       5.007   7.062  22.746  1.00  0.00    -0.301 N 
ATOM      8  H3  UNL     1       5.480   6.179  22.553  1.00  0.00     0.171 HD
HETATM    9  C5  UNL     1       5.282   7.674  23.904  1.00  0.00     0.282 A 
HETATM   10  O3  UNL     1       6.081   7.176  24.727  1.00  0.00    -0.265 OA
HETATM   11  C6  UNL     1       4.649   8.883  24.184  1.00  0.00     0.159 A 
HETATM   12  C10 UNL     1       2.613   9.241  21.023  1.00  0.00     0.339 C 
HETATM   13  C11 UNL     1       1.718  10.273  21.466  1.00  0.00     0.314 C 
HETATM   14  O9  UNL     1       0.672  10.570  20.780  1.00  0.00    -0.265 OA
ENDROOT
BRANCH  11  15
HETATM   15  O4  UNL     1       4.878   9.588  25.319  1.00  0.00    -0.312 OA
BRANCH  15  16
HETATM   16  C7  UNL     1       4.970   9.249  26.617  1.00  0.00     0.198 C 
BRANCH  16  17
HETATM   17  C8  UNL     1       3.913   8.550  27.332  1.00  0.00     0.225 C 
HETATM   18  O5  UNL     1       3.588   7.407  27.392  1.00  0.00    -0.286 OA
BRANCH  17  19
HETATM   19  C9  UNL     1       3.013   9.455  28.204  1.00  0.00     0.331 C 
BRANCH  19  20
HETATM   20  O6  UNL     1       2.341  10.340  27.380  1.00  0.00    -0.365 OA
ATOM     21  H6  UNL     1       1.957  11.025  27.915  1.00  0.00     0.213 HD
ENDBRANCH  19  20
BRANCH  19  22
HETATM   22  O7  UNL     1       2.180   8.668  28.964  1.00  0.00    -0.365 OA
ATOM     23  H7  UNL     1       1.427   8.415  28.443  1.00  0.00     0.213 HD
ENDBRANCH  19  22
ENDBRANCH  17  19
ENDBRANCH  16  17
ENDBRANCH  15  16
ENDBRANCH  11  15
BRANCH   1  24
HETATM   24  N1  UNL     1       1.111  12.163  22.941  1.00  0.00    -0.333 N 
ATOM     25  H12 UNL     1       0.094  12.150  22.864  1.00  0.00     0.177 HD
ATOM     26  H11 UNL     1       1.555  13.031  23.239  1.00  0.00     0.177 HD
ENDBRANCH   1  24
BRANCH   6  27
HETATM   27  O2  UNL     1       3.895   6.884  20.646  1.00  0.00    -0.345 OA
ATOM     28  H2  UNL     1       4.644   6.669  20.103  1.00  0.00     0.219 HD
ENDBRANCH   6  27
BRANCH  12  29
HETATM   29  N4  UNL     1       1.895   8.208  20.317  1.00  0.00    -0.033 N 
ATOM     30  H43 UNL     1       2.375   7.312  20.404  1.00  0.00     0.279 HD
ATOM     31  H42 UNL     1       1.024   7.984  20.797  1.00  0.00     0.279 HD
ATOM     32  H41 UNL     1       1.719   8.428  19.337  1.00  0.00     0.279 HD
ENDBRANCH  12  29
BRANCH  12  33
HETATM   33  O8  UNL     1       3.475   9.828  20.050  1.00  0.00    -0.354 OA
ATOM     34  H8  UNL     1       2.916  10.380  19.515  1.00  0.00     0.213 HD
ENDBRANCH  12  33
TORSDOF 10
ENDMDL
