MODEL 1
REMARK VINA RESULT: -7.830788644      0.000      0.000
REMARK  9 active torsions:
REMARK  status: ('A' for Active; 'I' for Inactive)
REMARK    1  A    between atoms: S1_2  and  N1_5 
REMARK    2  A    between atoms: N1_5  and  C2_7 
REMARK    3  A    between atoms: C3_8  and  C4_9 
REMARK    4  A    between atoms: C4_9  and  O3_10 
REMARK    5  A    between atoms: C4_9  and  C5_12 
REMARK    6  A    between atoms: C5_12  and  N2_13 
REMARK    7  A    between atoms: C5_12  and  O4_17 
REMARK    8  A    between atoms: C6_20  and  O5_21 
REMARK    9  A    between atoms: C7_26  and  O6_27 
ROOT
HETATM    1  C2  UNL     1       4.501   7.330  23.376  1.00  0.00     0.117 C 
HETATM    2  C3  UNL     1       3.972   8.426  23.968  1.00  0.00     0.077 C 
HETATM    3  N3  UNL     1       3.636   9.332  22.943  1.00  0.00    -0.302 N 
HETATM    4  C6  UNL     1       2.724  10.487  22.885  1.00  0.00     0.436 C 
HETATM    5  N4  UNL     1       1.743  10.049  21.871  1.00  0.00     0.013 N 
ATOM      6  H41 UNL     1       0.892  10.612  21.857  1.00  0.00     0.287 HD
ATOM      7  H42 UNL     1       1.297   9.159  22.092  1.00  0.00     0.287 HD
HETATM    8  C7  UNL     1       2.452  10.044  20.617  1.00  0.00     0.429 C 
HETATM    9  N5  UNL     1       3.634   9.285  20.541  1.00  0.00    -0.347 N 
ATOM     10  H5  UNL     1       3.979   8.963  19.637  1.00  0.00     0.160 HD
HETATM   11  C8  UNL     1       4.343   8.970  21.730  1.00  0.00     0.265 C 
HETATM   12  C9  UNL     1       4.526   7.510  21.936  1.00  0.00     0.220 C 
HETATM   13  O7  UNL     1       4.666   6.687  21.003  1.00  0.00    -0.286 OA
ENDROOT
BRANCH   2  14
HETATM   14  C4  UNL     1       3.807   8.582  25.426  1.00  0.00     0.226 C 
BRANCH  14  15
HETATM   15  O3  UNL     1       3.963   7.345  26.083  1.00  0.00    -0.385 OA
ATOM     16  H3  UNL     1       3.234   7.179  26.669  1.00  0.00     0.210 HD
ENDBRANCH  14  15
BRANCH  14  17
HETATM   17  C5  UNL     1       4.831   9.566  25.961  1.00  0.00     0.351 C 
BRANCH  17  18
HETATM   18  N2  UNL     1       5.315   9.074  27.219  1.00  0.00    -0.050 N 
ATOM     19  H23 UNL     1       5.810   9.787  27.755  1.00  0.00     0.277 HD
ATOM     20  H22 UNL     1       4.565   8.894  27.886  1.00  0.00     0.277 HD
ATOM     21  H21 UNL     1       5.888   8.249  27.040  1.00  0.00     0.277 HD
ENDBRANCH  17  18
BRANCH  17  22
HETATM   22  O4  UNL     1       5.940   9.590  25.085  1.00  0.00    -0.368 OA
ATOM     23  H4  UNL     1       5.904  10.386  24.568  1.00  0.00     0.212 HD
ENDBRANCH  17  22
ENDBRANCH  14  17
ENDBRANCH   2  14
BRANCH   1  24
HETATM   24  N1  UNL     1       4.966   6.183  24.068  1.00  0.00    -0.279 N 
ATOM     25  H1  UNL     1       4.309   5.417  24.214  1.00  0.00     0.179 HD
BRANCH  24  26
HETATM   26  S1  UNL     1       6.550   5.999  24.673  1.00  0.00     0.227 S 
HETATM   27  C1  UNL     1       6.811   4.235  24.911  1.00  0.00     0.186 C 
HETATM   28  O1  UNL     1       7.624   6.487  23.787  1.00  0.00    -0.206 OA
HETATM   29  O2  UNL     1       6.704   6.606  26.046  1.00  0.00    -0.206 OA
ENDBRANCH  24  26
ENDBRANCH   1  24
BRANCH   4  30
HETATM   30  O5  UNL     1       3.359  11.642  22.455  1.00  0.00    -0.354 OA
ATOM     31  H5  UNL     1       2.906  12.058  21.731  1.00  0.00     0.214 HD
ENDBRANCH   4  30
BRANCH   8  32
HETATM   32  O6  UNL     1       2.587  11.364  20.177  1.00  0.00    -0.355 OA
ATOM     33  H6  UNL     1       3.118  11.366  19.390  1.00  0.00     0.213 HD
ENDBRANCH   8  32
TORSDOF 9
ENDMDL
MODEL 2
REMARK VINA RESULT: -7.822335724      3.457      5.923
REMARK  9 active torsions:
REMARK  status: ('A' for Active; 'I' for Inactive)
REMARK    1  A    between atoms: S1_2  and  N1_5 
REMARK    2  A    between atoms: N1_5  and  C2_7 
REMARK    3  A    between atoms: C3_8  and  C4_9 
REMARK    4  A    between atoms: C4_9  and  O3_10 
REMARK    5  A    between atoms: C4_9  and  C5_12 
REMARK    6  A    between atoms: C5_12  and  N2_13 
REMARK    7  A    between atoms: C5_12  and  O4_17 
REMARK    8  A    between atoms: C6_20  and  O5_21 
REMARK    9  A    between atoms: C7_26  and  O6_27 
ROOT
HETATM    1  C2  UNL     1       1.877  11.518  22.941  1.00  0.00     0.117 C 
HETATM    2  C3  UNL     1       1.633  11.976  21.691  1.00  0.00     0.077 C 
HETATM    3  N3  UNL     1       1.349  13.351  21.798  1.00  0.00    -0.302 N 
HETATM    4  C6  UNL     1       1.372  14.459  20.829  1.00  0.00     0.436 C 
HETATM    5  N4  UNL     1       2.415  15.338  21.397  1.00  0.00     0.013 N 
ATOM      6  H41 UNL     1       2.750  16.048  20.745  1.00  0.00     0.287 HD
ATOM      7  H42 UNL     1       3.310  14.871  21.539  1.00  0.00     0.287 HD
HETATM    8  C7  UNL     1       1.851  15.884  22.604  1.00  0.00     0.429 C 
HETATM    9  N5  UNL     1       1.372  14.978  23.567  1.00  0.00    -0.347 N 
ATOM     10  H5  UNL     1       1.290  15.261  24.543  1.00  0.00     0.160 HD
HETATM   11  C8  UNL     1       1.002  13.665  23.172  1.00  0.00     0.265 C 
HETATM   12  C9  UNL     1       1.743  12.601  23.898  1.00  0.00     0.220 C 
HETATM   13  O7  UNL     1       2.129  12.707  25.085  1.00  0.00    -0.286 OA
ENDROOT
BRANCH   2  14
HETATM   14  C4  UNL     1       1.674  11.136  20.478  1.00  0.00     0.226 C 
BRANCH  14  15
HETATM   15  O3  UNL     1       3.005  10.829  20.127  1.00  0.00    -0.385 OA
ATOM     16  H3  UNL     1       3.109  10.813  19.183  1.00  0.00     0.210 HD
ENDBRANCH  14  15
BRANCH  14  17
HETATM   17  C5  UNL     1       0.909   9.847  20.714  1.00  0.00     0.351 C 
BRANCH  17  18
HETATM   18  N2  UNL     1      -0.176   9.788  19.776  1.00  0.00    -0.050 N 
ATOM     19  H23 UNL     1      -0.345   8.843  19.432  1.00  0.00     0.277 HD
ATOM     20  H22 UNL     1      -1.083   9.940  20.215  1.00  0.00     0.277 HD
ATOM     21  H21 UNL     1       0.014  10.452  19.025  1.00  0.00     0.277 HD
ENDBRANCH  17  18
BRANCH  17  22
HETATM   22  O4  UNL     1       1.755   8.754  20.418  1.00  0.00    -0.368 OA
ATOM     23  H4  UNL     1       1.875   8.238  21.207  1.00  0.00     0.212 HD
ENDBRANCH  17  22
ENDBRANCH  14  17
ENDBRANCH   2  14
BRANCH   1  24
HETATM   24  N1  UNL     1       2.205  10.176  23.261  1.00  0.00    -0.279 N 
ATOM     25  H1  UNL     1       1.438   9.536  23.467  1.00  0.00     0.179 HD
BRANCH  24  26
HETATM   26  S1  UNL     1       3.793   9.561  23.324  1.00  0.00     0.227 S 
HETATM   27  C1  UNL     1       3.843   8.395  24.694  1.00  0.00     0.186 C 
HETATM   28  O1  UNL     1       4.239   8.840  22.117  1.00  0.00    -0.206 OA
HETATM   29  O2  UNL     1       4.798  10.628  23.683  1.00  0.00    -0.206 OA
ENDBRANCH  24  26
ENDBRANCH   1  24
BRANCH   4  30
HETATM   30  O5  UNL     1       0.165  15.139  20.772  1.00  0.00    -0.354 OA
ATOM     31  H5  UNL     1      -0.435  14.870  21.458  1.00  0.00     0.214 HD
ENDBRANCH   4  30
BRANCH   8  32
HETATM   32  O6  UNL     1       0.942  16.887  22.256  1.00  0.00    -0.355 OA
ATOM     33  H6  UNL     1       0.461  17.141  23.035  1.00  0.00     0.213 HD
ENDBRANCH   8  32
TORSDOF 9
ENDMDL
MODEL 3
REMARK VINA RESULT: -7.572015491      3.018      6.380
REMARK  9 active torsions:
REMARK  status: ('A' for Active; 'I' for Inactive)
REMARK    1  A    between atoms: S1_2  and  N1_5 
REMARK    2  A    between atoms: N1_5  and  C2_7 
REMARK    3  A    between atoms: C3_8  and  C4_9 
REMARK    4  A    between atoms: C4_9  and  O3_10 
REMARK    5  A    between atoms: C4_9  and  C5_12 
REMARK    6  A    between atoms: C5_12  and  N2_13 
REMARK    7  A    between atoms: C5_12  and  O4_17 
REMARK    8  A    between atoms: C6_20  and  O5_21 
REMARK    9  A    between atoms: C7_26  and  O6_27 
ROOT
HETATM    1  C2  UNL     1       4.749   7.471  27.061  1.00  0.00     0.117 C 
HETATM    2  C3  UNL     1       5.167   7.287  25.786  1.00  0.00     0.077 C 
HETATM    3  N3  UNL     1       6.204   6.335  25.821  1.00  0.00    -0.302 N 
HETATM    4  C6  UNL     1       6.796   5.458  24.796  1.00  0.00     0.436 C 
HETATM    5  N4  UNL     1       6.483   4.115  25.328  1.00  0.00     0.013 N 
ATOM      6  H41 UNL     1       6.601   3.368  24.644  1.00  0.00     0.287 HD
ATOM      7  H42 UNL     1       5.490   3.966  25.502  1.00  0.00     0.287 HD
HETATM    8  C7  UNL     1       7.305   3.959  26.501  1.00  0.00     0.429 C 
HETATM    9  N5  UNL     1       7.201   4.939  27.503  1.00  0.00    -0.347 N 
ATOM     10  H5  UNL     1       7.469   4.722  28.463  1.00  0.00     0.160 HD
HETATM   11  C8  UNL     1       6.720   6.234  27.173  1.00  0.00     0.265 C 
HETATM   12  C9  UNL     1       5.526   6.636  27.960  1.00  0.00     0.220 C 
HETATM   13  O7  UNL     1       5.319   6.282  29.143  1.00  0.00    -0.286 OA
ENDROOT
BRANCH   2  14
HETATM   14  C4  UNL     1       4.598   7.988  24.618  1.00  0.00     0.226 C 
BRANCH  14  15
HETATM   15  O3  UNL     1       3.349   8.559  24.937  1.00  0.00    -0.385 OA
ATOM     16  H3  UNL     1       3.017   8.209  25.756  1.00  0.00     0.210 HD
ENDBRANCH  14  15
BRANCH  14  17
HETATM   17  C5  UNL     1       5.545   9.079  24.157  1.00  0.00     0.351 C 
BRANCH  17  18
HETATM   18  N2  UNL     1       4.861   9.893  23.193  1.00  0.00    -0.050 N 
ATOM     19  H23 UNL     1       4.001   9.461  22.855  1.00  0.00     0.277 HD
ATOM     20  H22 UNL     1       4.442  10.725  23.609  1.00  0.00     0.277 HD
ATOM     21  H21 UNL     1       5.512  10.114  22.441  1.00  0.00     0.277 HD
ENDBRANCH  17  18
BRANCH  17  22
HETATM   22  O4  UNL     1       5.839   9.921  25.256  1.00  0.00    -0.368 OA
ATOM     23  H4  UNL     1       6.773  10.095  25.265  1.00  0.00     0.212 HD
ENDBRANCH  17  22
ENDBRANCH  14  17
ENDBRANCH   2  14
BRANCH   1  24
HETATM   24  N1  UNL     1       3.712   8.356  27.452  1.00  0.00    -0.279 N 
ATOM     25  H1  UNL     1       2.756   7.999  27.447  1.00  0.00     0.179 HD
BRANCH  24  26
HETATM   26  S1  UNL     1       3.956   9.974  27.929  1.00  0.00     0.227 S 
HETATM   27  C1  UNL     1       2.853  10.275  29.319  1.00  0.00     0.186 C 
HETATM   28  O1  UNL     1       5.323  10.302  28.372  1.00  0.00    -0.206 OA
HETATM   29  O2  UNL     1       3.515  10.949  26.863  1.00  0.00    -0.206 OA
ENDBRANCH  24  26
ENDBRANCH   1  24
BRANCH   4  30
HETATM   30  O5  UNL     1       8.168   5.615  24.693  1.00  0.00    -0.354 OA
ATOM     31  H5  UNL     1       8.443   5.841  23.811  1.00  0.00     0.214 HD
ENDBRANCH   4  30
BRANCH   8  32
HETATM   32  O6  UNL     1       8.614   3.690  26.093  1.00  0.00    -0.355 OA
ATOM     33  H6  UNL     1       8.718   2.749  26.014  1.00  0.00     0.213 HD
ENDBRANCH   8  32
TORSDOF 9
ENDMDL
MODEL 4
REMARK VINA RESULT: -7.548509591      3.600      7.456
REMARK  9 active torsions:
REMARK  status: ('A' for Active; 'I' for Inactive)
REMARK    1  A    between atoms: S1_2  and  N1_5 
REMARK    2  A    between atoms: N1_5  and  C2_7 
REMARK    3  A    between atoms: C3_8  and  C4_9 
REMARK    4  A    between atoms: C4_9  and  O3_10 
REMARK    5  A    between atoms: C4_9  and  C5_12 
REMARK    6  A    between atoms: C5_12  and  N2_13 
REMARK    7  A    between atoms: C5_12  and  O4_17 
REMARK    8  A    between atoms: C6_20  and  O5_21 
REMARK    9  A    between atoms: C7_26  and  O6_27 
ROOT
HETATM    1  C2  UNL     1       5.020   7.025  27.077  1.00  0.00     0.117 C 
HETATM    2  C3  UNL     1       5.909   6.209  26.463  1.00  0.00     0.077 C 
HETATM    3  N3  UNL     1       6.611   5.523  27.473  1.00  0.00    -0.302 N 
HETATM    4  C6  UNL     1       7.403   4.281  27.479  1.00  0.00     0.436 C 
HETATM    5  N4  UNL     1       6.626   3.429  28.403  1.00  0.00     0.013 N 
ATOM      6  H41 UNL     1       6.880   2.442  28.359  1.00  0.00     0.287 HD
ATOM      7  H42 UNL     1       5.650   3.316  28.132  1.00  0.00     0.287 HD
HETATM    8  C7  UNL     1       6.799   4.011  29.710  1.00  0.00     0.429 C 
HETATM    9  N5  UNL     1       6.464   5.368  29.867  1.00  0.00    -0.347 N 
ATOM     10  H5  UNL     1       6.234   5.736  30.790  1.00  0.00     0.160 HD
HETATM   11  C8  UNL     1       6.448   6.223  28.734  1.00  0.00     0.265 C 
HETATM   12  C9  UNL     1       5.137   6.889  28.517  1.00  0.00     0.220 C 
HETATM   13  O7  UNL     1       4.366   7.225  29.444  1.00  0.00    -0.286 OA
ENDROOT
BRANCH   2  14
HETATM   14  C4  UNL     1       6.065   6.103  25.000  1.00  0.00     0.226 C 
BRANCH  14  15
HETATM   15  O3  UNL     1       6.089   7.382  24.406  1.00  0.00    -0.385 OA
ATOM     16  H3  UNL     1       6.735   7.418  23.709  1.00  0.00     0.210 HD
ENDBRANCH  14  15
BRANCH  14  17
HETATM   17  C5  UNL     1       7.351   5.371  24.667  1.00  0.00     0.351 C 
BRANCH  17  18
HETATM   18  N2  UNL     1       7.015   4.156  23.983  1.00  0.00    -0.050 N 
ATOM     19  H23 UNL     1       7.649   3.389  24.210  1.00  0.00     0.277 HD
ATOM     20  H22 UNL     1       6.156   3.733  24.333  1.00  0.00     0.277 HD
ATOM     21  H21 UNL     1       6.978   4.351  22.982  1.00  0.00     0.277 HD
ENDBRANCH  17  18
BRANCH  17  22
HETATM   22  O4  UNL     1       8.096   6.153  23.753  1.00  0.00    -0.368 OA
ATOM     23  H4  UNL     1       7.667   6.995  23.651  1.00  0.00     0.212 HD
ENDBRANCH  17  22
ENDBRANCH  14  17
ENDBRANCH   2  14
BRANCH   1  24
HETATM   24  N1  UNL     1       4.118   7.888  26.404  1.00  0.00    -0.279 N 
ATOM     25  H1  UNL     1       3.291   7.471  25.978  1.00  0.00     0.179 HD
BRANCH  24  26
HETATM   26  S1  UNL     1       4.324   9.574  26.261  1.00  0.00     0.227 S 
HETATM   27  C1  UNL     1       2.696  10.268  25.933  1.00  0.00     0.186 C 
HETATM   28  O1  UNL     1       4.857  10.249  27.460  1.00  0.00    -0.206 OA
HETATM   29  O2  UNL     1       5.155   9.941  25.056  1.00  0.00    -0.206 OA
ENDBRANCH  24  26
ENDBRANCH   1  24
BRANCH   4  30
HETATM   30  O5  UNL     1       8.682   4.470  27.978  1.00  0.00    -0.354 OA
ATOM     31  H5  UNL     1       8.748   4.251  28.900  1.00  0.00     0.214 HD
ENDBRANCH   4  30
BRANCH   8  32
HETATM   32  O6  UNL     1       8.071   3.674  30.181  1.00  0.00    -0.355 OA
ATOM     33  H6  UNL     1       8.403   4.401  30.695  1.00  0.00     0.213 HD
ENDBRANCH   8  32
TORSDOF 9
ENDMDL
MODEL 5
REMARK VINA RESULT: -7.548183721      4.738      8.362
REMARK  9 active torsions:
REMARK  status: ('A' for Active; 'I' for Inactive)
REMARK    1  A    between atoms: S1_2  and  N1_5 
REMARK    2  A    between atoms: N1_5  and  C2_7 
REMARK    3  A    between atoms: C3_8  and  C4_9 
REMARK    4  A    between atoms: C4_9  and  O3_10 
REMARK    5  A    between atoms: C4_9  and  C5_12 
REMARK    6  A    between atoms: C5_12  and  N2_13 
REMARK    7  A    between atoms: C5_12  and  O4_17 
REMARK    8  A    between atoms: C6_20  and  O5_21 
REMARK    9  A    between atoms: C7_26  and  O6_27 
ROOT
HETATM    1  C2  UNL     1       6.677   6.070  28.395  1.00  0.00     0.117 C 
HETATM    2  C3  UNL     1       6.760   5.282  27.297  1.00  0.00     0.077 C 
HETATM    3  N3  UNL     1       7.493   4.135  27.662  1.00  0.00    -0.302 N 
HETATM    4  C6  UNL     1       7.608   2.789  27.075  1.00  0.00     0.436 C 
HETATM    5  N4  UNL     1       7.067   1.939  28.157  1.00  0.00     0.013 N 
ATOM      6  H41 UNL     1       6.840   0.991  27.856  1.00  0.00     0.287 HD
ATOM      7  H42 UNL     1       6.127   2.202  28.452  1.00  0.00     0.287 HD
HETATM    8  C7  UNL     1       8.041   1.990  29.217  1.00  0.00     0.429 C 
HETATM    9  N5  UNL     1       8.408   3.258  29.703  1.00  0.00    -0.347 N 
ATOM     10  H5  UNL     1       8.800   3.354  30.640  1.00  0.00     0.160 HD
HETATM   11  C8  UNL     1       8.230   4.403  28.883  1.00  0.00     0.265 C 
HETATM   12  C9  UNL     1       7.372   5.445  29.505  1.00  0.00     0.220 C 
HETATM   13  O7  UNL     1       7.326   5.665  30.737  1.00  0.00    -0.286 OA
ENDROOT
BRANCH   2  14
HETATM   14  C4  UNL     1       6.170   5.619  25.988  1.00  0.00     0.226 C 
BRANCH  14  15
HETATM   15  O3  UNL     1       6.039   7.016  25.843  1.00  0.00    -0.385 OA
ATOM     16  H3  UNL     1       6.877   7.414  25.637  1.00  0.00     0.210 HD
ENDBRANCH  14  15
BRANCH  14  17
HETATM   17  C5  UNL     1       7.045   5.080  24.871  1.00  0.00     0.351 C 
BRANCH  17  18
HETATM   18  N2  UNL     1       6.449   5.443  23.617  1.00  0.00    -0.050 N 
ATOM     19  H23 UNL     1       6.624   6.416  23.366  1.00  0.00     0.277 HD
ATOM     20  H22 UNL     1       6.917   5.010  22.820  1.00  0.00     0.277 HD
ATOM     21  H21 UNL     1       5.455   5.221  23.658  1.00  0.00     0.277 HD
ENDBRANCH  17  18
BRANCH  17  22
HETATM   22  O4  UNL     1       8.300   5.730  24.922  1.00  0.00    -0.368 OA
ATOM     23  H4  UNL     1       8.568   5.804  25.831  1.00  0.00     0.212 HD
ENDBRANCH  17  22
ENDBRANCH  14  17
ENDBRANCH   2  14
BRANCH   1  24
HETATM   24  N1  UNL     1       6.014   7.322  28.441  1.00  0.00    -0.279 N 
ATOM     25  H1  UNL     1       6.551   8.153  28.191  1.00  0.00     0.179 HD
BRANCH  24  26
HETATM   26  S1  UNL     1       4.382   7.534  28.887  1.00  0.00     0.227 S 
HETATM   27  C1  UNL     1       4.184   9.269  29.319  1.00  0.00     0.186 C 
HETATM   28  O1  UNL     1       3.396   7.226  27.835  1.00  0.00    -0.206 OA
HETATM   29  O2  UNL     1       4.039   6.777  30.148  1.00  0.00    -0.206 OA
ENDBRANCH  24  26
ENDBRANCH   1  24
BRANCH   4  30
HETATM   30  O5  UNL     1       8.922   2.436  26.813  1.00  0.00    -0.354 OA
ATOM     31  H5  UNL     1       9.530   2.808  27.441  1.00  0.00     0.214 HD
ENDBRANCH   4  30
BRANCH   8  32
HETATM   32  O6  UNL     1       9.120   1.173  28.869  1.00  0.00    -0.355 OA
ATOM     33  H6  UNL     1       9.315   0.602  29.604  1.00  0.00     0.213 HD
ENDBRANCH   8  32
TORSDOF 9
ENDMDL
