MODEL 1
REMARK VINA RESULT: -7.603716592      0.000      0.000
REMARK  8 active torsions:
REMARK  status: ('A' for Active; 'I' for Inactive)
REMARK    1  A    between atoms: C2_2  and  C7_28 
REMARK    2  A    between atoms: N1_3  and  N2_5 
REMARK    3  A    between atoms: N2_5  and  C3_7 
REMARK    4  A    between atoms: C4_10  and  N4_11 
REMARK    5  A    between atoms: N4_11  and  N5_12 
REMARK       I    between atoms: N4_11  and  C5_15 
REMARK    6  A    between atoms: C6_22  and  N9_23 
REMARK    7  A    between atoms: C7_28  and  N11_29 
REMARK    8  A    between atoms: C7_28  and  N12_33 
ROOT
HETATM    1  C3  UNL     1       5.380  -0.637  12.977  1.00  0.00     0.726 A 
HETATM    2  N3  UNL     1       4.492  -1.611  12.855  1.00  0.00    -0.018 N 
ATOM      3  H3  UNL     1       3.500  -1.405  12.971  1.00  0.00     0.203 HD
HETATM    4  C4  UNL     1       4.881  -2.873  12.578  1.00  0.00     0.734 A 
HETATM    5  N8  UNL     1       6.187  -3.131  12.427  1.00  0.00    -0.020 N 
ATOM      6  H8  UNL     1       6.491  -4.082  12.217  1.00  0.00     0.203 HD
HETATM    7  C6  UNL     1       7.100  -2.154  12.548  1.00  0.00     0.705 A 
HETATM    8  N10 UNL     1       6.683  -0.907  12.824  1.00  0.00    -0.020 N 
ATOM      9  H10 UNL     1       7.368  -0.156  12.918  1.00  0.00     0.203 HD
ENDROOT
BRANCH   1  10
HETATM   10  N2  UNL     1       4.956   0.556  13.243  1.00  0.00    -0.131 N 
ATOM     11  H2  UNL     1       5.498   1.182  13.839  1.00  0.00     0.205 HD
BRANCH  10  12
HETATM   12  N1  UNL     1       3.757   0.962  12.703  1.00  0.00    -0.291 N 
HETATM   13  C2  UNL     1       3.666   1.855  11.815  1.00  0.00     0.057 C 
HETATM   14  C1  UNL     1       2.276   2.181  11.332  1.00  0.00     0.069 C 
ATOM     15  H1  UNL     1       2.900   0.519  13.036  1.00  0.00     0.187 HD
BRANCH  13  16
HETATM   16  C7  UNL     1       4.775   2.585  11.225  1.00  0.00     0.424 C 
BRANCH  16  17
HETATM   17  N11 UNL     1       4.217   3.662  10.424  1.00  0.00    -0.045 N 
ATOM     18 3H11 UNL     1       4.597   3.690   9.478  1.00  0.00     0.277 HD
ATOM     19 2H11 UNL     1       3.242   3.506  10.173  1.00  0.00     0.277 HD
ATOM     20 1H11 UNL     1       4.360   4.534  10.935  1.00  0.00     0.277 HD
ENDBRANCH  16  17
BRANCH  16  21
HETATM   21  N12 UNL     1       5.695   1.774  10.507  1.00  0.00    -0.045 N 
ATOM     22 3H12 UNL     1       6.150   1.110  11.134  1.00  0.00     0.277 HD
ATOM     23 2H12 UNL     1       5.198   1.124   9.897  1.00  0.00     0.277 HD
ATOM     24 1H12 UNL     1       6.393   2.296   9.977  1.00  0.00     0.277 HD
ENDBRANCH  16  21
ENDBRANCH  13  16
ENDBRANCH  10  12
ENDBRANCH   1  10
BRANCH   4  25
HETATM   25  N4  UNL     1       3.897  -3.888  12.455  1.00  0.00    -0.062 N 
HETATM   26  C5  UNL     1       4.322  -5.223  12.180  1.00  0.00     0.224 C 
HETATM   27  N6  UNL     1       4.296  -6.070  13.133  1.00  0.00    -0.372 N 
HETATM   28  N7  UNL     1       4.760  -5.600  10.891  1.00  0.00    -0.061 NA
ATOM     29  H62 UNL     1       3.979  -5.798  14.063  1.00  0.00     0.158 HD
ATOM     30  H61 UNL     1       4.600  -7.024  12.936  1.00  0.00     0.158 HD
BRANCH  25  31
HETATM   31  N5  UNL     1       2.553  -3.613  12.595  1.00  0.00    -0.322 N 
ATOM     32  H52 UNL     1       1.865  -4.196  12.121  1.00  0.00     0.178 HD
ATOM     33  H51 UNL     1       2.224  -2.834  13.166  1.00  0.00     0.178 HD
ENDBRANCH  25  31
ENDBRANCH   4  25
BRANCH   7  34
HETATM   34  N9  UNL     1       8.382  -2.399  12.401  1.00  0.00    -0.234 N 
ATOM     35  H92 UNL     1       8.813  -3.175  12.905  1.00  0.00     0.174 HD
ATOM     36  H91 UNL     1       8.962  -1.825  11.790  1.00  0.00     0.174 HD
ENDBRANCH   7  34
TORSDOF 8
ENDMDL
MODEL 2
REMARK VINA RESULT: -7.540992106      1.922      6.122
REMARK  8 active torsions:
REMARK  status: ('A' for Active; 'I' for Inactive)
REMARK    1  A    between atoms: C2_2  and  C7_28 
REMARK    2  A    between atoms: N1_3  and  N2_5 
REMARK    3  A    between atoms: N2_5  and  C3_7 
REMARK    4  A    between atoms: C4_10  and  N4_11 
REMARK    5  A    between atoms: N4_11  and  N5_12 
REMARK       I    between atoms: N4_11  and  C5_15 
REMARK    6  A    between atoms: C6_22  and  N9_23 
REMARK    7  A    between atoms: C7_28  and  N11_29 
REMARK    8  A    between atoms: C7_28  and  N12_33 
ROOT
HETATM    1  C3  UNL     1       6.111  -1.583  12.564  1.00  0.00     0.726 A 
HETATM    2  N3  UNL     1       7.426  -1.424  12.537  1.00  0.00    -0.018 N 
ATOM      3  H3  UNL     1       8.027  -2.138  12.947  1.00  0.00     0.203 HD
HETATM    4  C4  UNL     1       7.980  -0.331  11.973  1.00  0.00     0.734 A 
HETATM    5  N8  UNL     1       7.180   0.600  11.437  1.00  0.00    -0.020 N 
ATOM      6  H8  UNL     1       7.589   1.430  11.008  1.00  0.00     0.203 HD
HETATM    7  C6  UNL     1       5.844   0.454  11.458  1.00  0.00     0.705 A 
HETATM    8  N10 UNL     1       5.321  -0.645  12.026  1.00  0.00    -0.020 N 
ATOM      9  H10 UNL     1       4.308  -0.767  12.046  1.00  0.00     0.203 HD
ENDROOT
BRANCH   1  10
HETATM   10  N2  UNL     1       5.629  -2.649  13.116  1.00  0.00    -0.131 N 
ATOM     11  H2  UNL     1       6.188  -3.197  13.769  1.00  0.00     0.205 HD
BRANCH  10  12
HETATM   12  N1  UNL     1       4.343  -3.026  12.801  1.00  0.00    -0.291 N 
HETATM   13  C2  UNL     1       4.025  -4.209  12.497  1.00  0.00     0.057 C 
HETATM   14  C1  UNL     1       2.572  -4.452  12.178  1.00  0.00     0.069 C 
ATOM     15  H1  UNL     1       3.612  -2.315  12.813  1.00  0.00     0.187 HD
BRANCH  13  16
HETATM   16  C7  UNL     1       4.930  -5.344  12.433  1.00  0.00     0.424 C 
BRANCH  16  17
HETATM   17  N11 UNL     1       4.604  -6.102  11.236  1.00  0.00    -0.045 N 
ATOM     18 3H11 UNL     1       4.210  -5.522  10.495  1.00  0.00     0.277 HD
ATOM     19 2H11 UNL     1       5.431  -6.421  10.732  1.00  0.00     0.277 HD
ATOM     20 1H11 UNL     1       3.987  -6.866  11.512  1.00  0.00     0.277 HD
ENDBRANCH  16  17
BRANCH  16  21
HETATM   21  N12 UNL     1       4.956  -6.142  13.609  1.00  0.00    -0.045 N 
ATOM     22 3H12 UNL     1       4.114  -5.985  14.164  1.00  0.00     0.277 HD
ATOM     23 2H12 UNL     1       4.829  -7.126  13.375  1.00  0.00     0.277 HD
ATOM     24 1H12 UNL     1       5.789  -6.017  14.185  1.00  0.00     0.277 HD
ENDBRANCH  16  21
ENDBRANCH  13  16
ENDBRANCH  10  12
ENDBRANCH   1  10
BRANCH   4  25
HETATM   25  N4  UNL     1       9.393  -0.200  11.965  1.00  0.00    -0.062 N 
HETATM   26  C5  UNL     1      10.186  -1.311  12.383  1.00  0.00     0.224 C 
HETATM   27  N6  UNL     1      10.788  -1.990  11.487  1.00  0.00    -0.372 N 
HETATM   28  N7  UNL     1      10.304  -1.652  13.749  1.00  0.00    -0.061 NA
ATOM     29  H62 UNL     1      10.702  -1.743  10.501  1.00  0.00     0.158 HD
ATOM     30  H61 UNL     1      11.354  -2.784  11.786  1.00  0.00     0.158 HD
BRANCH  25  31
HETATM   31  N5  UNL     1      10.008   0.968  11.564  1.00  0.00    -0.322 N 
ATOM     32  H52 UNL     1       9.890   1.300  10.607  1.00  0.00     0.178 HD
ATOM     33  H51 UNL     1      10.583   1.516  12.204  1.00  0.00     0.178 HD
ENDBRANCH  25  31
ENDBRANCH   4  25
BRANCH   7  34
HETATM   34  N9  UNL     1       5.053   1.362  10.935  1.00  0.00    -0.234 N 
ATOM     35  H92 UNL     1       4.858   2.223  11.446  1.00  0.00     0.174 HD
ATOM     36  H91 UNL     1       4.624   1.224  10.020  1.00  0.00     0.174 HD
ENDBRANCH   7  34
TORSDOF 8
ENDMDL
MODEL 3
REMARK VINA RESULT: -7.436749163      1.255      1.902
REMARK  8 active torsions:
REMARK  status: ('A' for Active; 'I' for Inactive)
REMARK    1  A    between atoms: C2_2  and  C7_28 
REMARK    2  A    between atoms: N1_3  and  N2_5 
REMARK    3  A    between atoms: N2_5  and  C3_7 
REMARK    4  A    between atoms: C4_10  and  N4_11 
REMARK    5  A    between atoms: N4_11  and  N5_12 
REMARK       I    between atoms: N4_11  and  C5_15 
REMARK    6  A    between atoms: C6_22  and  N9_23 
REMARK    7  A    between atoms: C7_28  and  N11_29 
REMARK    8  A    between atoms: C7_28  and  N12_33 
ROOT
HETATM    1  C3  UNL     1       6.211  -0.728  11.855  1.00  0.00     0.726 A 
HETATM    2  N3  UNL     1       5.411  -1.722  12.210  1.00  0.00    -0.018 N 
ATOM      3  H3  UNL     1       4.414  -1.662  12.007  1.00  0.00     0.203 HD
HETATM    4  C4  UNL     1       5.898  -2.813  12.836  1.00  0.00     0.734 A 
HETATM    5  N8  UNL     1       7.211  -2.881  13.096  1.00  0.00    -0.020 N 
ATOM      6  H8  UNL     1       7.589  -3.702  13.568  1.00  0.00     0.203 HD
HETATM    7  C6  UNL     1       8.035  -1.881  12.743  1.00  0.00     0.705 A 
HETATM    8  N10 UNL     1       7.521  -0.807  12.121  1.00  0.00    -0.020 N 
ATOM      9  H10 UNL     1       8.138  -0.041  11.847  1.00  0.00     0.203 HD
ENDROOT
BRANCH   1  10
HETATM   10  N2  UNL     1       5.695   0.297  11.257  1.00  0.00    -0.131 N 
ATOM     11  H2  UNL     1       6.134   0.691  10.425  1.00  0.00     0.205 HD
BRANCH  10  12
HETATM   12  N1  UNL     1       4.540   0.842  11.769  1.00  0.00    -0.291 N 
HETATM   13  C2  UNL     1       4.096   1.971  11.420  1.00  0.00     0.057 C 
HETATM   14  C1  UNL     1       2.817   2.422  12.079  1.00  0.00     0.069 C 
ATOM     15  H1  UNL     1       4.017   0.309  12.464  1.00  0.00     0.187 HD
BRANCH  13  16
HETATM   16  C7  UNL     1       4.703   2.862  10.446  1.00  0.00     0.424 C 
BRANCH  16  17
HETATM   17  N11 UNL     1       6.096   3.040  10.820  1.00  0.00    -0.045 N 
ATOM     18 3H11 UNL     1       6.743   2.645  10.137  1.00  0.00     0.277 HD
ATOM     19 2H11 UNL     1       6.404   4.010  10.750  1.00  0.00     0.277 HD
ATOM     20 1H11 UNL     1       6.219   2.651  11.755  1.00  0.00     0.277 HD
ENDBRANCH  16  17
BRANCH  16  21
HETATM   21  N12 UNL     1       4.012   4.090  10.262  1.00  0.00    -0.045 N 
ATOM     22 3H12 UNL     1       3.111   3.928   9.811  1.00  0.00     0.277 HD
ATOM     23 2H12 UNL     1       3.694   4.458  11.159  1.00  0.00     0.277 HD
ATOM     24 1H12 UNL     1       4.541   4.799   9.754  1.00  0.00     0.277 HD
ENDBRANCH  16  21
ENDBRANCH  13  16
ENDBRANCH  10  12
ENDBRANCH   1  10
BRANCH   4  25
HETATM   25  N4  UNL     1       5.007  -3.856  13.199  1.00  0.00    -0.062 N 
HETATM   26  C5  UNL     1       3.656  -3.791  12.743  1.00  0.00     0.224 C 
HETATM   27  N6  UNL     1       3.306  -4.562  11.789  1.00  0.00    -0.372 N 
HETATM   28  N7  UNL     1       2.729  -2.900  13.329  1.00  0.00    -0.061 NA
ATOM     29  H62 UNL     1       3.976  -5.205  11.367  1.00  0.00     0.158 HD
ATOM     30  H61 UNL     1       2.341  -4.515  11.463  1.00  0.00     0.158 HD
BRANCH  25  31
HETATM   31  N5  UNL     1       5.418  -4.920  13.974  1.00  0.00    -0.322 N 
ATOM     32  H52 UNL     1       6.222  -4.816  14.593  1.00  0.00     0.178 HD
ATOM     33  H51 UNL     1       4.935  -5.818  13.949  1.00  0.00     0.178 HD
ENDBRANCH  25  31
ENDBRANCH   4  25
BRANCH   7  34
HETATM   34  N9  UNL     1       9.322  -1.939  12.994  1.00  0.00    -0.234 N 
ATOM     35  H92 UNL     1       9.743  -2.820  13.292  1.00  0.00     0.174 HD
ATOM     36  H91 UNL     1       9.917  -1.117  12.898  1.00  0.00     0.174 HD
ENDBRANCH   7  34
TORSDOF 8
ENDMDL
MODEL 4
REMARK VINA RESULT: -7.285844050      1.209      2.039
REMARK  8 active torsions:
REMARK  status: ('A' for Active; 'I' for Inactive)
REMARK    1  A    between atoms: C2_2  and  C7_28 
REMARK    2  A    between atoms: N1_3  and  N2_5 
REMARK    3  A    between atoms: N2_5  and  C3_7 
REMARK    4  A    between atoms: C4_10  and  N4_11 
REMARK    5  A    between atoms: N4_11  and  N5_12 
REMARK       I    between atoms: N4_11  and  C5_15 
REMARK    6  A    between atoms: C6_22  and  N9_23 
REMARK    7  A    between atoms: C7_28  and  N11_29 
REMARK    8  A    between atoms: C7_28  and  N12_33 
ROOT
HETATM    1  C3  UNL     1       5.185  -1.238  12.340  1.00  0.00     0.726 A 
HETATM    2  N3  UNL     1       4.712  -2.466  12.486  1.00  0.00    -0.018 N 
ATOM      3  H3  UNL     1       3.723  -2.647  12.313  1.00  0.00     0.203 HD
HETATM    4  C4  UNL     1       5.519  -3.481  12.858  1.00  0.00     0.734 A 
HETATM    5  N8  UNL     1       6.816  -3.230  13.080  1.00  0.00    -0.020 N 
ATOM      6  H8  UNL     1       7.435  -3.990  13.361  1.00  0.00     0.203 HD
HETATM    7  C6  UNL     1       7.311  -1.989  12.938  1.00  0.00     0.705 A 
HETATM    8  N10 UNL     1       6.483  -0.999  12.566  1.00  0.00    -0.020 N 
ATOM      9  H10 UNL     1       6.849  -0.053  12.454  1.00  0.00     0.203 HD
ENDROOT
BRANCH   1  10
HETATM   10  N2  UNL     1       4.370  -0.300  11.982  1.00  0.00    -0.131 N 
ATOM     11  H2  UNL     1       3.366  -0.396  12.130  1.00  0.00     0.205 HD
BRANCH  10  12
HETATM   12  N1  UNL     1       4.890   0.832  11.395  1.00  0.00    -0.291 N 
HETATM   13  C2  UNL     1       4.335   1.964  11.467  1.00  0.00     0.057 C 
HETATM   14  C1  UNL     1       5.037   3.099  10.767  1.00  0.00     0.069 C 
ATOM     15  H1  UNL     1       5.766   0.752  10.878  1.00  0.00     0.187 HD
BRANCH  13  16
HETATM   16  C7  UNL     1       3.094   2.262  12.160  1.00  0.00     0.424 C 
BRANCH  16  17
HETATM   17  N11 UNL     1       2.931   1.278  13.217  1.00  0.00    -0.045 N 
ATOM     18 3H11 UNL     1       2.074   0.734  13.123  1.00  0.00     0.277 HD
ATOM     19 2H11 UNL     1       3.591   0.503  13.143  1.00  0.00     0.277 HD
ATOM     20 1H11 UNL     1       2.994   1.768  14.110  1.00  0.00     0.277 HD
ENDBRANCH  16  17
BRANCH  16  21
HETATM   21  N12 UNL     1       1.958   2.364  11.312  1.00  0.00    -0.045 N 
ATOM     22 3H12 UNL     1       2.246   2.547  10.351  1.00  0.00     0.277 HD
ATOM     23 2H12 UNL     1       1.520   1.451  11.192  1.00  0.00     0.277 HD
ATOM     24 1H12 UNL     1       1.268   3.053  11.613  1.00  0.00     0.277 HD
ENDBRANCH  16  21
ENDBRANCH  13  16
ENDBRANCH  10  12
ENDBRANCH   1  10
BRANCH   4  25
HETATM   25  N4  UNL     1       4.971  -4.782  13.002  1.00  0.00    -0.062 N 
HETATM   26  C5  UNL     1       4.098  -5.272  11.985  1.00  0.00     0.224 C 
HETATM   27  N6  UNL     1       4.551  -6.144  11.172  1.00  0.00    -0.372 N 
HETATM   28  N7  UNL     1       2.767  -4.809  11.878  1.00  0.00    -0.061 NA
ATOM     29  H62 UNL     1       5.512  -6.479  11.250  1.00  0.00     0.158 HD
ATOM     30  H61 UNL     1       3.927  -6.494  10.446  1.00  0.00     0.158 HD
BRANCH  25  31
HETATM   31  N5  UNL     1       5.264  -5.573  14.092  1.00  0.00    -0.322 N 
ATOM     32  H52 UNL     1       6.143  -6.090  14.122  1.00  0.00     0.178 HD
ATOM     33  H51 UNL     1       4.622  -5.657  14.880  1.00  0.00     0.178 HD
ENDBRANCH  25  31
ENDBRANCH   4  25
BRANCH   7  34
HETATM   34  N9  UNL     1       8.581  -1.736  13.154  1.00  0.00    -0.234 N 
ATOM     35  H92 UNL     1       9.249  -2.504  13.227  1.00  0.00     0.174 HD
ATOM     36  H91 UNL     1       8.919  -0.779  13.253  1.00  0.00     0.174 HD
ENDBRANCH   7  34
TORSDOF 8
ENDMDL
MODEL 5
REMARK VINA RESULT: -7.244021908      1.907      5.626
REMARK  8 active torsions:
REMARK  status: ('A' for Active; 'I' for Inactive)
REMARK    1  A    between atoms: C2_2  and  C7_28 
REMARK    2  A    between atoms: N1_3  and  N2_5 
REMARK    3  A    between atoms: N2_5  and  C3_7 
REMARK    4  A    between atoms: C4_10  and  N4_11 
REMARK    5  A    between atoms: N4_11  and  N5_12 
REMARK       I    between atoms: N4_11  and  C5_15 
REMARK    6  A    between atoms: C6_22  and  N9_23 
REMARK    7  A    between atoms: C7_28  and  N11_29 
REMARK    8  A    between atoms: C7_28  and  N12_33 
ROOT
HETATM    1  C3  UNL     1       5.714  -1.658  12.203  1.00  0.00     0.726 A 
HETATM    2  N3  UNL     1       5.177  -0.456  12.342  1.00  0.00    -0.018 N 
ATOM      3  H3  UNL     1       5.775   0.370  12.297  1.00  0.00     0.203 HD
HETATM    4  C4  UNL     1       3.851  -0.307  12.541  1.00  0.00     0.734 A 
HETATM    5  N8  UNL     1       3.077  -1.399  12.596  1.00  0.00    -0.020 N 
ATOM      6  H8  UNL     1       2.073  -1.297  12.745  1.00  0.00     0.203 HD
HETATM    7  C6  UNL     1       3.606  -2.626  12.458  1.00  0.00     0.705 A 
HETATM    8  N10 UNL     1       4.929  -2.743  12.262  1.00  0.00    -0.020 N 
ATOM      9  H10 UNL     1       5.343  -3.670  12.154  1.00  0.00     0.203 HD
ENDROOT
BRANCH   1  10
HETATM   10  N2  UNL     1       6.990  -1.748  12.014  1.00  0.00    -0.131 N 
ATOM     11  H2  UNL     1       7.453  -2.657  11.998  1.00  0.00     0.205 HD
BRANCH  10  12
HETATM   12  N1  UNL     1       7.710  -0.588  11.836  1.00  0.00    -0.291 N 
HETATM   13  C2  UNL     1       8.951  -0.506  12.050  1.00  0.00     0.057 C 
HETATM   14  C1  UNL     1       9.586   0.839  11.807  1.00  0.00     0.069 C 
ATOM     15  H1  UNL     1       7.216   0.245  11.516  1.00  0.00     0.187 HD
BRANCH  13  16
HETATM   16  C7  UNL     1       9.811  -1.586  12.504  1.00  0.00     0.424 C 
BRANCH  16  17
HETATM   17  N11 UNL     1      10.337  -1.214  13.807  1.00  0.00    -0.045 N 
ATOM     18 3H11 UNL     1       9.728  -0.569  14.311  1.00  0.00     0.277 HD
ATOM     19 2H11 UNL     1      10.308  -1.980  14.480  1.00  0.00     0.277 HD
ATOM     20 1H11 UNL     1      11.278  -0.844  13.667  1.00  0.00     0.277 HD
ENDBRANCH  16  17
BRANCH  16  21
HETATM   21  N12 UNL     1      10.823  -1.959  11.578  1.00  0.00    -0.045 N 
ATOM     22 3H12 UNL     1      10.794  -1.356  10.757  1.00  0.00     0.277 HD
ATOM     23 2H12 UNL     1      11.744  -1.716  11.941  1.00  0.00     0.277 HD
ATOM     24 1H12 UNL     1      10.798  -2.940  11.300  1.00  0.00     0.277 HD
ENDBRANCH  16  21
ENDBRANCH  13  16
ENDBRANCH  10  12
ENDBRANCH   1  10
BRANCH   4  25
HETATM   25  N4  UNL     1       3.317   0.999  12.684  1.00  0.00    -0.062 N 
HETATM   26  C5  UNL     1       3.686   1.998  11.733  1.00  0.00     0.224 C 
HETATM   27  N6  UNL     1       2.830   2.333  10.850  1.00  0.00    -0.372 N 
HETATM   28  N7  UNL     1       4.964   2.601  11.765  1.00  0.00    -0.061 NA
ATOM     29  H62 UNL     1       1.908   1.897  10.827  1.00  0.00     0.158 HD
ATOM     30  H61 UNL     1       3.094   3.046  10.170  1.00  0.00     0.158 HD
BRANCH  25  31
HETATM   31  N5  UNL     1       2.456   1.319  13.713  1.00  0.00    -0.322 N 
ATOM     32  H52 UNL     1       1.969   2.215  13.705  1.00  0.00     0.178 HD
ATOM     33  H51 UNL     1       2.290   0.679  14.489  1.00  0.00     0.178 HD
ENDBRANCH  25  31
ENDBRANCH   4  25
BRANCH   7  34
HETATM   34  N9  UNL     1       2.854  -3.700  12.512  1.00  0.00    -0.234 N 
ATOM     35  H92 UNL     1       2.644  -4.218  11.658  1.00  0.00     0.174 HD
ATOM     36  H91 UNL     1       2.470  -4.032  13.396  1.00  0.00     0.174 HD
ENDBRANCH   7  34
TORSDOF 8
ENDMDL
