MODEL 1
REMARK VINA RESULT: -8.534548829      0.000      0.000
REMARK  6 active torsions:
REMARK  status: ('A' for Active; 'I' for Inactive)
REMARK    1  A    between atoms: N1_1  and  N2_4 
REMARK    2  A    between atoms: N2_4  and  C1_6 
REMARK    3  A    between atoms: N6_13  and  C2_14 
REMARK    4  A    between atoms: C4_19  and  N9_20 
REMARK    5  A    between atoms: N9_20  and  S1_22 
REMARK    6  A    between atoms: S1_22  and  N10_23 
ROOT
HETATM    1  C2  UNL     1       6.126  -0.346  12.054  1.00  0.00     0.723 A 
HETATM    2  N7  UNL     1       7.442  -0.610  12.028  1.00  0.00    -0.172 N 
ATOM      3  H7  UNL     1       8.151   0.013  11.642  1.00  0.00     0.185 HD
HETATM    4  C3  UNL     1       7.695  -1.811  12.580  1.00  0.00     0.177 A 
HETATM    5  N8  UNL     1       8.918  -2.489  12.765  1.00  0.00    -0.078 NA
HETATM    6  C4  UNL     1       6.476  -2.325  12.974  1.00  0.00     0.173 A 
HETATM    7  N11 UNL     1       5.551  -1.407  12.636  1.00  0.00    -0.170 N 
ATOM      8  H11 UNL     1       4.550  -1.505  12.801  1.00  0.00     0.186 HD
ENDROOT
BRANCH   1   9
HETATM    9  N6  UNL     1       5.474   0.836  11.557  1.00  0.00     0.109 N 
HETATM   10  C1  UNL     1       4.307   1.306  12.010  1.00  0.00     0.749 A 
HETATM   11  N3  UNL     1       4.019   2.416  11.311  1.00  0.00    -0.113 N 
HETATM   12  N4  UNL     1       5.004   2.585  10.467  1.00  0.00    -0.212 N 
ATOM     13  H3  UNL     1       3.196   3.010  11.417  1.00  0.00     0.207 HD
HETATM   14  N5  UNL     1       5.882   1.639  10.609  1.00  0.00    -0.191 N 
ATOM     15  H4  UNL     1       5.072   3.349   9.794  1.00  0.00     0.210 HD
ATOM     16  H5  UNL     1       6.744   1.539  10.072  1.00  0.00     0.211 HD
BRANCH  10  17
HETATM   17  N2  UNL     1       3.557   0.819  12.946  1.00  0.00    -0.135 N 
ATOM     18  H2  UNL     1       3.797  -0.096  13.328  1.00  0.00     0.205 HD
BRANCH  17  19
HETATM   19  N1  UNL     1       2.451   1.467  13.456  1.00  0.00    -0.331 N 
ATOM     20  H12 UNL     1       2.526   2.474  13.593  1.00  0.00     0.177 HD
ATOM     21  H11 UNL     1       1.580   0.996  13.697  1.00  0.00     0.177 HD
ENDBRANCH  17  19
ENDBRANCH  10  17
ENDBRANCH   1   9
BRANCH   6  22
HETATM   22  N9  UNL     1       6.248  -3.595  13.616  1.00  0.00    -0.250 N 
ATOM     23  H9  UNL     1       6.822  -3.886  14.408  1.00  0.00     0.182 HD
BRANCH  22  24
HETATM   24  S1  UNL     1       4.994  -4.611  13.027  1.00  0.00     0.318 S 
HETATM   25  O1  UNL     1       5.140  -4.820  11.549  1.00  0.00    -0.183 OA
HETATM   26  O2  UNL     1       3.678  -3.949  13.281  1.00  0.00    -0.183 OA
BRANCH  24  27
HETATM   27  N10 UNL     1       5.034  -6.101  13.893  1.00  0.00    -0.311 N 
ATOM     28 2H10 UNL     1       4.898  -7.021  13.474  1.00  0.00     0.170 HD
ATOM     29 1H10 UNL     1       5.215  -5.904  14.877  1.00  0.00     0.170 HD
ENDBRANCH  24  27
ENDBRANCH  22  24
ENDBRANCH   6  22
TORSDOF 6
ENDMDL
MODEL 2
REMARK VINA RESULT: -8.457120809      0.873      1.011
REMARK  6 active torsions:
REMARK  status: ('A' for Active; 'I' for Inactive)
REMARK    1  A    between atoms: N1_1  and  N2_4 
REMARK    2  A    between atoms: N2_4  and  C1_6 
REMARK    3  A    between atoms: N6_13  and  C2_14 
REMARK    4  A    between atoms: C4_19  and  N9_20 
REMARK    5  A    between atoms: N9_20  and  S1_22 
REMARK    6  A    between atoms: S1_22  and  N10_23 
ROOT
HETATM    1  C2  UNL     1       6.235  -0.399  12.010  1.00  0.00     0.723 A 
HETATM    2  N7  UNL     1       7.555  -0.639  11.999  1.00  0.00    -0.172 N 
ATOM      3  H7  UNL     1       8.260   0.011  11.650  1.00  0.00     0.185 HD
HETATM    4  C3  UNL     1       7.821  -1.854  12.511  1.00  0.00     0.177 A 
HETATM    5  N8  UNL     1       9.052  -2.517  12.695  1.00  0.00    -0.078 NA
HETATM    6  C4  UNL     1       6.604  -2.404  12.863  1.00  0.00     0.173 A 
HETATM    7  N11 UNL     1       5.669  -1.491  12.542  1.00  0.00    -0.170 N 
ATOM      8  H11 UNL     1       4.667  -1.613  12.684  1.00  0.00     0.186 HD
ENDROOT
BRANCH   1   9
HETATM    9  N6  UNL     1       5.571   0.789  11.544  1.00  0.00     0.109 N 
HETATM   10  C1  UNL     1       4.394   1.228  12.002  1.00  0.00     0.749 A 
HETATM   11  N3  UNL     1       4.095   2.356  11.336  1.00  0.00    -0.113 N 
HETATM   12  N4  UNL     1       5.084   2.564  10.505  1.00  0.00    -0.212 N 
ATOM     13  H3  UNL     1       3.264   2.935  11.454  1.00  0.00     0.207 HD
HETATM   14  N5  UNL     1       5.975   1.626  10.625  1.00  0.00    -0.191 N 
ATOM     15  H4  UNL     1       5.147   3.349   9.857  1.00  0.00     0.210 HD
ATOM     16  H5  UNL     1       6.842   1.554  10.092  1.00  0.00     0.211 HD
BRANCH  10  17
HETATM   17  N2  UNL     1       3.643   0.703  12.917  1.00  0.00    -0.135 N 
ATOM     18  H2  UNL     1       3.858  -0.244  13.230  1.00  0.00     0.205 HD
BRANCH  17  19
HETATM   19  N1  UNL     1       2.569   1.350  13.492  1.00  0.00    -0.331 N 
ATOM     20  H12 UNL     1       2.132   2.095  12.950  1.00  0.00     0.177 HD
ATOM     21  H11 UNL     1       2.199   1.124  14.414  1.00  0.00     0.177 HD
ENDBRANCH  17  19
ENDBRANCH  10  17
ENDBRANCH   1   9
BRANCH   6  22
HETATM   22  N9  UNL     1       6.388  -3.701  13.454  1.00  0.00    -0.250 N 
ATOM     23  H9  UNL     1       7.103  -4.129  14.043  1.00  0.00     0.182 HD
BRANCH  22  24
HETATM   24  S1  UNL     1       4.906  -4.515  13.151  1.00  0.00     0.318 S 
HETATM   25  O1  UNL     1       3.745  -3.592  13.373  1.00  0.00    -0.183 OA
HETATM   26  O2  UNL     1       4.783  -5.663  14.099  1.00  0.00    -0.183 OA
BRANCH  24  27
HETATM   27  N10 UNL     1       4.932  -5.134  11.542  1.00  0.00    -0.311 N 
ATOM     28 2H10 UNL     1       5.149  -4.585  10.710  1.00  0.00     0.170 HD
ATOM     29 1H10 UNL     1       4.698  -6.126  11.568  1.00  0.00     0.170 HD
ENDBRANCH  24  27
ENDBRANCH  22  24
ENDBRANCH   6  22
TORSDOF 6
ENDMDL
MODEL 3
REMARK VINA RESULT: -8.397436229      1.134      2.159
REMARK  6 active torsions:
REMARK  status: ('A' for Active; 'I' for Inactive)
REMARK    1  A    between atoms: N1_1  and  N2_4 
REMARK    2  A    between atoms: N2_4  and  C1_6 
REMARK    3  A    between atoms: N6_13  and  C2_14 
REMARK    4  A    between atoms: C4_19  and  N9_20 
REMARK    5  A    between atoms: N9_20  and  S1_22 
REMARK    6  A    between atoms: S1_22  and  N10_23 
ROOT
HETATM    1  C2  UNL     1       4.954  -0.839  12.530  1.00  0.00     0.723 A 
HETATM    2  N7  UNL     1       6.243  -0.905  12.899  1.00  0.00    -0.172 N 
ATOM      3  H7  UNL     1       6.762  -0.141  13.332  1.00  0.00     0.185 HD
HETATM    4  C3  UNL     1       6.755  -2.117  12.618  1.00  0.00     0.177 A 
HETATM    5  N8  UNL     1       8.052  -2.629  12.828  1.00  0.00    -0.078 NA
HETATM    6  C4  UNL     1       5.735  -2.849  12.045  1.00  0.00     0.173 A 
HETATM    7  N11 UNL     1       4.661  -2.038  12.009  1.00  0.00    -0.170 N 
ATOM      8  H11 UNL     1       3.748  -2.301  11.637  1.00  0.00     0.186 HD
ENDROOT
BRANCH   1   9
HETATM    9  N6  UNL     1       4.074   0.291  12.668  1.00  0.00     0.109 N 
HETATM   10  C1  UNL     1       4.155   1.407  11.937  1.00  0.00     0.749 A 
HETATM   11  N3  UNL     1       3.175   2.231  12.348  1.00  0.00    -0.113 N 
HETATM   12  N4  UNL     1       2.540   1.600  13.301  1.00  0.00    -0.212 N 
ATOM     13  H3  UNL     1       2.968   3.163  11.987  1.00  0.00     0.207 HD
HETATM   14  N5  UNL     1       3.075   0.433  13.499  1.00  0.00    -0.191 N 
ATOM     15  H4  UNL     1       1.741   1.970  13.815  1.00  0.00     0.210 HD
ATOM     16  H5  UNL     1       2.768  -0.256  14.187  1.00  0.00     0.211 HD
BRANCH  10  17
HETATM   17  N2  UNL     1       4.998   1.691  10.998  1.00  0.00    -0.135 N 
ATOM     18  H2  UNL     1       5.615   0.949  10.665  1.00  0.00     0.205 HD
BRANCH  17  19
HETATM   19  N1  UNL     1       5.112   2.939  10.421  1.00  0.00    -0.331 N 
ATOM     20  H12 UNL     1       5.056   2.987   9.404  1.00  0.00     0.177 HD
ATOM     21  H11 UNL     1       5.247   3.798  10.952  1.00  0.00     0.177 HD
ENDBRANCH  17  19
ENDBRANCH  10  17
ENDBRANCH   1   9
BRANCH   6  22
HETATM   22  N9  UNL     1       5.813  -4.211  11.579  1.00  0.00    -0.250 N 
ATOM     23  H9  UNL     1       6.537  -4.492  10.917  1.00  0.00     0.182 HD
BRANCH  22  24
HETATM   24  S1  UNL     1       4.667  -5.354  12.155  1.00  0.00     0.318 S 
HETATM   25  O1  UNL     1       4.621  -6.551  11.254  1.00  0.00    -0.183 OA
HETATM   26  O2  UNL     1       3.314  -4.718  12.164  1.00  0.00    -0.183 OA
BRANCH  24  27
HETATM   27  N10 UNL     1       5.080  -5.786  13.773  1.00  0.00    -0.311 N 
ATOM     28 2H10 UNL     1       5.804  -5.333  14.329  1.00  0.00     0.170 HD
ATOM     29 1H10 UNL     1       4.483  -6.558  14.068  1.00  0.00     0.170 HD
ENDBRANCH  24  27
ENDBRANCH  22  24
ENDBRANCH   6  22
TORSDOF 6
ENDMDL
MODEL 4
REMARK VINA RESULT: -8.304936313      2.847      3.547
REMARK  6 active torsions:
REMARK  status: ('A' for Active; 'I' for Inactive)
REMARK    1  A    between atoms: N1_1  and  N2_4 
REMARK    2  A    between atoms: N2_4  and  C1_6 
REMARK    3  A    between atoms: N6_13  and  C2_14 
REMARK    4  A    between atoms: C4_19  and  N9_20 
REMARK    5  A    between atoms: N9_20  and  S1_22 
REMARK    6  A    between atoms: S1_22  and  N10_23 
ROOT
HETATM    1  C2  UNL     1       5.681  -0.052  11.702  1.00  0.00     0.723 A 
HETATM    2  N7  UNL     1       5.033  -1.222  11.817  1.00  0.00    -0.172 N 
ATOM      3  H7  UNL     1       4.033  -1.349  11.664  1.00  0.00     0.185 HD
HETATM    4  C3  UNL     1       5.886  -2.203  12.161  1.00  0.00     0.177 A 
HETATM    5  N8  UNL     1       5.653  -3.576  12.388  1.00  0.00    -0.078 NA
HETATM    6  C4  UNL     1       7.133  -1.619  12.266  1.00  0.00     0.173 A 
HETATM    7  N11 UNL     1       6.964  -0.314  11.981  1.00  0.00    -0.170 N 
ATOM      8  H11 UNL     1       7.711   0.379  11.978  1.00  0.00     0.186 HD
ENDROOT
BRANCH   1   9
HETATM    9  N6  UNL     1       5.106   1.220  11.352  1.00  0.00     0.109 N 
HETATM   10  C1  UNL     1       3.937   1.676  11.813  1.00  0.00     0.749 A 
HETATM   11  N3  UNL     1       3.733   2.888  11.270  1.00  0.00    -0.113 N 
HETATM   12  N4  UNL     1       4.768   3.127  10.507  1.00  0.00    -0.212 N 
ATOM     13  H3  UNL     1       2.931   3.500  11.422  1.00  0.00     0.207 HD
HETATM   14  N5  UNL     1       5.598   2.129  10.551  1.00  0.00    -0.191 N 
ATOM     15  H4  UNL     1       4.904   3.976   9.957  1.00  0.00     0.210 HD
ATOM     16  H5  UNL     1       6.482   2.065  10.047  1.00  0.00     0.211 HD
BRANCH  10  17
HETATM   17  N2  UNL     1       3.118   1.098  12.631  1.00  0.00    -0.135 N 
ATOM     18  H2  UNL     1       2.137   1.026  12.359  1.00  0.00     0.205 HD
BRANCH  17  19
HETATM   19  N1  UNL     1       3.495   0.573  13.850  1.00  0.00    -0.331 N 
ATOM     20  H12 UNL     1       3.879   1.223  14.535  1.00  0.00     0.177 HD
ATOM     21  H11 UNL     1       3.410  -0.413  14.093  1.00  0.00     0.177 HD
ENDBRANCH  17  19
ENDBRANCH  10  17
ENDBRANCH   1   9
BRANCH   6  22
HETATM   22  N9  UNL     1       8.364  -2.282  12.615  1.00  0.00    -0.250 N 
ATOM     23  H9  UNL     1       8.372  -3.276  12.844  1.00  0.00     0.182 HD
BRANCH  22  24
HETATM   24  S1  UNL     1       9.821  -1.371  12.637  1.00  0.00     0.318 S 
HETATM   25  O1  UNL     1      10.503  -1.505  13.965  1.00  0.00    -0.183 OA
HETATM   26  O2  UNL     1       9.491   0.071  12.420  1.00  0.00    -0.183 OA
BRANCH  24  27
HETATM   27  N10 UNL     1      10.828  -1.903  11.343  1.00  0.00    -0.311 N 
ATOM     28 2H10 UNL     1      10.520  -2.491  10.569  1.00  0.00     0.170 HD
ATOM     29 1H10 UNL     1      11.767  -1.532  11.484  1.00  0.00     0.170 HD
ENDBRANCH  24  27
ENDBRANCH  22  24
ENDBRANCH   6  22
TORSDOF 6
ENDMDL
MODEL 5
REMARK VINA RESULT: -8.257587041      1.377      2.416
REMARK  6 active torsions:
REMARK  status: ('A' for Active; 'I' for Inactive)
REMARK    1  A    between atoms: N1_1  and  N2_4 
REMARK    2  A    between atoms: N2_4  and  C1_6 
REMARK    3  A    between atoms: N6_13  and  C2_14 
REMARK    4  A    between atoms: C4_19  and  N9_20 
REMARK    5  A    between atoms: N9_20  and  S1_22 
REMARK    6  A    between atoms: S1_22  and  N10_23 
ROOT
HETATM    1  C2  UNL     1       4.894  -0.796  12.537  1.00  0.00     0.723 A 
HETATM    2  N7  UNL     1       6.189  -0.871  12.881  1.00  0.00    -0.172 N 
ATOM      3  H7  UNL     1       6.728  -0.104  13.284  1.00  0.00     0.185 HD
HETATM    4  C3  UNL     1       6.678  -2.097  12.622  1.00  0.00     0.177 A 
HETATM    5  N8  UNL     1       7.972  -2.623  12.820  1.00  0.00    -0.078 NA
HETATM    6  C4  UNL     1       5.636  -2.829  12.088  1.00  0.00     0.173 A 
HETATM    7  N11 UNL     1       4.573  -2.003  12.053  1.00  0.00    -0.170 N 
ATOM      8  H11 UNL     1       3.650  -2.261  11.705  1.00  0.00     0.186 HD
ENDROOT
BRANCH   1   9
HETATM    9  N6  UNL     1       4.034   0.351  12.663  1.00  0.00     0.109 N 
HETATM   10  C1  UNL     1       4.139   1.461  11.926  1.00  0.00     0.749 A 
HETATM   11  N3  UNL     1       3.171   2.305  12.325  1.00  0.00    -0.113 N 
HETATM   12  N4  UNL     1       2.520   1.690  13.279  1.00  0.00    -0.212 N 
ATOM     13  H3  UNL     1       2.983   3.238  11.958  1.00  0.00     0.207 HD
HETATM   14  N5  UNL     1       3.033   0.515  13.487  1.00  0.00    -0.191 N 
ATOM     15  H4  UNL     1       1.724   2.078  13.785  1.00  0.00     0.210 HD
ATOM     16  H5  UNL     1       2.709  -0.164  14.176  1.00  0.00     0.211 HD
BRANCH  10  17
HETATM   17  N2  UNL     1       4.993   1.724  10.990  1.00  0.00    -0.135 N 
ATOM     18  H2  UNL     1       5.588   0.967  10.656  1.00  0.00     0.205 HD
BRANCH  17  19
HETATM   19  N1  UNL     1       5.144   2.971  10.418  1.00  0.00    -0.331 N 
ATOM     20  H12 UNL     1       4.569   3.725  10.793  1.00  0.00     0.177 HD
ATOM     21  H11 UNL     1       5.790   3.169   9.655  1.00  0.00     0.177 HD
ENDBRANCH  17  19
ENDBRANCH  10  17
ENDBRANCH   1   9
BRANCH   6  22
HETATM   22  N9  UNL     1       5.685  -4.203  11.656  1.00  0.00    -0.250 N 
ATOM     23  H9  UNL     1       6.363  -4.502  10.955  1.00  0.00     0.182 HD
BRANCH  22  24
HETATM   24  S1  UNL     1       4.583  -5.329  12.341  1.00  0.00     0.318 S 
HETATM   25  O1  UNL     1       4.818  -5.461  13.816  1.00  0.00    -0.183 OA
HETATM   26  O2  UNL     1       4.803  -6.665  11.707  1.00  0.00    -0.183 OA
BRANCH  24  27
HETATM   27  N10 UNL     1       2.975  -4.814  11.991  1.00  0.00    -0.311 N 
ATOM     28 2H10 UNL     1       2.131  -5.254  12.357  1.00  0.00     0.170 HD
ATOM     29 1H10 UNL     1       3.017  -4.009  11.368  1.00  0.00     0.170 HD
ENDBRANCH  24  27
ENDBRANCH  22  24
ENDBRANCH   6  22
TORSDOF 6
ENDMDL
