MODEL 1
REMARK VINA RESULT: -8.505500957      0.000      0.000
REMARK  8 active torsions:
REMARK  status: ('A' for Active; 'I' for Inactive)
REMARK    1  A    between atoms: N1_1  and  C1_5 
REMARK    2  A    between atoms: C4_8  and  N2_9 
REMARK    3  A    between atoms: N2_9  and  S1_11 
REMARK    4  A    between atoms: S1_11  and  C5_14 
REMARK    5  A    between atoms: C9_21  and  N3_22 
REMARK    6  A    between atoms: C12_27  and  N5_28 
REMARK    7  A    between atoms: N5_28  and  C13_30 
REMARK    8  A    between atoms: C13_30  and  C14_31 
ROOT
HETATM    1  C1  UNL     1       3.813  27.711  57.000  1.00  0.00     0.208 C 
HETATM    2  C2  UNL     1       2.891  28.266  58.071  1.00  0.00     0.037 C 
HETATM    3  C3  UNL     1       3.497  29.557  58.567  1.00  0.00     0.030 C 
HETATM    4  C4  UNL     1       4.908  29.529  57.898  1.00  0.00     0.118 C 
HETATM    5  C9  UNL     1       4.540  29.004  56.572  1.00  0.00     0.146 C 
ENDROOT
BRANCH   5   6
HETATM    6  N3  UNL     1       5.560  28.751  55.618  1.00  0.00    -0.318 N 
HETATM    7  C10 UNL     1       5.501  29.023  54.306  1.00  0.00     0.185 A 
HETATM    8  N4  UNL     1       6.658  28.645  53.738  1.00  0.00    -0.346 N 
HETATM    9  C11 UNL     1       7.451  28.135  54.677  1.00  0.00     0.122 A 
ATOM     10  H4  UNL     1       6.890  28.734  52.749  1.00  0.00     0.167 HD
HETATM   11  C12 UNL     1       8.718  27.603  54.672  1.00  0.00     0.133 A 
HETATM   12  C16 UNL     1       6.764  28.200  55.853  1.00  0.00     0.141 A 
HETATM   13  N6  UNL     1       9.279  27.152  55.809  1.00  0.00    -0.337 N 
HETATM   14  C15 UNL     1       8.591  27.223  56.959  1.00  0.00     0.183 A 
ATOM     15  H6  UNL     1      10.221  26.759  55.797  1.00  0.00     0.168 HD
HETATM   16  N7  UNL     1       7.369  27.733  56.977  1.00  0.00    -0.336 N 
ATOM     17  H7  UNL     1       6.865  27.777  57.863  1.00  0.00     0.168 HD
BRANCH  11  18
HETATM   18  N5  UNL     1       9.396  27.530  53.552  1.00  0.00    -0.369 N 
ATOM     19  H5  UNL     1       8.934  27.709  52.660  1.00  0.00     0.161 HD
BRANCH  18  20
HETATM   20  C13 UNL     1      10.792  27.199  53.586  1.00  0.00     0.192 C 
BRANCH  20  21
HETATM   21  C14 UNL     1      11.499  27.950  52.470  1.00  0.00     0.370 C 
HETATM   22  F1  UNL     1      12.750  28.371  52.876  1.00  0.00    -0.213 F 
HETATM   23  F2  UNL     1      10.770  29.062  52.118  1.00  0.00    -0.213 F 
ENDBRANCH  20  21
ENDBRANCH  18  20
ENDBRANCH  11  18
ENDBRANCH   5   6
BRANCH   1  24
HETATM   24  N1  UNL     1       3.110  27.118  55.904  1.00  0.00    -0.073 N 
ATOM     25  H13 UNL     1       2.106  27.099  56.085  1.00  0.00     0.274 HD
ATOM     26  H12 UNL     1       3.122  27.732  55.090  1.00  0.00     0.274 HD
ATOM     27  H11 UNL     1       3.453  26.189  55.664  1.00  0.00     0.274 HD
ENDBRANCH   1  24
BRANCH   4  28
HETATM   28  N2  UNL     1       5.552  30.754  58.031  1.00  0.00    -0.308 N 
ATOM     29  H2  UNL     1       5.011  31.600  57.850  1.00  0.00     0.172 HD
BRANCH  28  30
HETATM   30  S1  UNL     1       7.134  30.924  58.462  1.00  0.00     0.265 S 
HETATM   31  O1  UNL     1       8.121  30.872  57.313  1.00  0.00    -0.200 OA
HETATM   32  O2  UNL     1       7.532  29.713  59.325  1.00  0.00    -0.200 OA
BRANCH  30  33
HETATM   33  C5  UNL     1       7.591  32.309  59.410  1.00  0.00     0.123 A 
HETATM   34  C6  UNL     1       8.774  32.959  59.570  1.00  0.00     0.059 A 
HETATM   35  C7  UNL     1       8.811  34.015  60.394  1.00  0.00     0.064 A 
HETATM   36 CL1  UNL     1      10.294  34.962  60.698  1.00  0.00    -0.082 Cl
HETATM   37  C8  UNL     1       7.651  34.370  61.023  1.00  0.00     0.097 A 
HETATM   38 CL2  UNL     1       7.392  35.709  62.159  1.00  0.00    -0.074 Cl
HETATM   39  S2  UNL     1       6.537  33.213  60.443  1.00  0.00    -0.063 SA
ENDBRANCH  30  33
ENDBRANCH  28  30
ENDBRANCH   4  28
TORSDOF 8
ENDMDL
MODEL 2
REMARK VINA RESULT: -8.452211330      1.517      2.320
REMARK  8 active torsions:
REMARK  status: ('A' for Active; 'I' for Inactive)
REMARK    1  A    between atoms: N1_1  and  C1_5 
REMARK    2  A    between atoms: C4_8  and  N2_9 
REMARK    3  A    between atoms: N2_9  and  S1_11 
REMARK    4  A    between atoms: S1_11  and  C5_14 
REMARK    5  A    between atoms: C9_21  and  N3_22 
REMARK    6  A    between atoms: C12_27  and  N5_28 
REMARK    7  A    between atoms: N5_28  and  C13_30 
REMARK    8  A    between atoms: C13_30  and  C14_31 
ROOT
HETATM    1  C1  UNL     1       5.808  28.263  59.722  1.00  0.00     0.208 C 
HETATM    2  C2  UNL     1       4.671  28.912  60.492  1.00  0.00     0.037 C 
HETATM    3  C3  UNL     1       4.434  30.276  59.887  1.00  0.00     0.030 C 
HETATM    4  C4  UNL     1       5.663  30.424  58.935  1.00  0.00     0.118 C 
HETATM    5  C9  UNL     1       5.724  29.055  58.399  1.00  0.00     0.146 C 
ENDROOT
BRANCH   5   6
HETATM    6  N3  UNL     1       6.768  28.705  57.503  1.00  0.00    -0.318 N 
HETATM    7  C10 UNL     1       8.020  28.362  57.842  1.00  0.00     0.185 A 
HETATM    8  N4  UNL     1       8.710  28.097  56.721  1.00  0.00    -0.346 N 
HETATM    9  C11 UNL     1       7.909  28.268  55.673  1.00  0.00     0.122 A 
ATOM     10  H4  UNL     1       9.688  27.811  56.680  1.00  0.00     0.167 HD
HETATM   11  C12 UNL     1       8.073  28.141  54.315  1.00  0.00     0.133 A 
HETATM   12  C16 UNL     1       6.694  28.649  56.161  1.00  0.00     0.141 A 
HETATM   13  N6  UNL     1       7.052  28.389  53.472  1.00  0.00    -0.337 N 
HETATM   14  C15 UNL     1       5.863  28.763  53.969  1.00  0.00     0.183 A 
ATOM     15  H6  UNL     1       7.182  28.293  52.465  1.00  0.00     0.168 HD
HETATM   16  N7  UNL     1       5.691  28.889  55.276  1.00  0.00    -0.336 N 
ATOM     17  H7  UNL     1       4.778  29.175  55.629  1.00  0.00     0.168 HD
BRANCH  11  18
HETATM   18  N5  UNL     1       9.232  27.776  53.823  1.00  0.00    -0.369 N 
ATOM     19  H5  UNL     1       9.822  27.118  54.334  1.00  0.00     0.161 HD
BRANCH  18  20
HETATM   20  C13 UNL     1       9.668  28.305  52.562  1.00  0.00     0.192 C 
BRANCH  20  21
HETATM   21  C14 UNL     1      11.113  27.891  52.333  1.00  0.00     0.370 C 
HETATM   22  F1  UNL     1      11.804  27.840  53.528  1.00  0.00    -0.213 F 
HETATM   23  F2  UNL     1      11.740  28.804  51.519  1.00  0.00    -0.213 F 
ENDBRANCH  20  21
ENDBRANCH  18  20
ENDBRANCH  11  18
ENDBRANCH   5   6
BRANCH   1  24
HETATM   24  N1  UNL     1       5.614  26.862  59.508  1.00  0.00    -0.073 N 
ATOM     25  H13 UNL     1       6.406  26.458  59.009  1.00  0.00     0.274 HD
ATOM     26  H12 UNL     1       5.687  26.347  60.385  1.00  0.00     0.274 HD
ATOM     27  H11 UNL     1       4.737  26.648  59.034  1.00  0.00     0.274 HD
ENDBRANCH   1  24
BRANCH   4  28
HETATM   28  N2  UNL     1       5.515  31.519  58.091  1.00  0.00    -0.308 N 
ATOM     29  H2  UNL     1       4.619  31.641  57.619  1.00  0.00     0.172 HD
BRANCH  28  30
HETATM   30  S1  UNL     1       6.698  32.631  57.805  1.00  0.00     0.265 S 
HETATM   31  O1  UNL     1       6.437  33.559  56.635  1.00  0.00    -0.200 OA
HETATM   32  O2  UNL     1       7.974  31.881  57.383  1.00  0.00    -0.200 OA
BRANCH  30  33
HETATM   33  C5  UNL     1       7.204  33.659  59.114  1.00  0.00     0.123 A 
HETATM   34  C6  UNL     1       8.402  34.220  59.426  1.00  0.00     0.059 A 
HETATM   35  C7  UNL     1       8.479  34.976  60.531  1.00  0.00     0.064 A 
HETATM   36 CL1  UNL     1       9.986  35.774  61.061  1.00  0.00    -0.082 Cl
HETATM   37  C8  UNL     1       7.342  35.133  61.272  1.00  0.00     0.097 A 
HETATM   38 CL2  UNL     1       7.137  36.067  62.768  1.00  0.00    -0.074 Cl
HETATM   39  S2  UNL     1       6.194  34.216  60.404  1.00  0.00    -0.063 SA
ENDBRANCH  30  33
ENDBRANCH  28  30
ENDBRANCH   4  28
TORSDOF 8
ENDMDL
MODEL 3
REMARK VINA RESULT: -8.154163184      1.477      1.703
REMARK  8 active torsions:
REMARK  status: ('A' for Active; 'I' for Inactive)
REMARK    1  A    between atoms: N1_1  and  C1_5 
REMARK    2  A    between atoms: C4_8  and  N2_9 
REMARK    3  A    between atoms: N2_9  and  S1_11 
REMARK    4  A    between atoms: S1_11  and  C5_14 
REMARK    5  A    between atoms: C9_21  and  N3_22 
REMARK    6  A    between atoms: C12_27  and  N5_28 
REMARK    7  A    between atoms: N5_28  and  C13_30 
REMARK    8  A    between atoms: C13_30  and  C14_31 
ROOT
HETATM    1  C1  UNL     1       5.355  28.195  59.468  1.00  0.00     0.208 C 
HETATM    2  C2  UNL     1       4.510  28.871  60.533  1.00  0.00     0.037 C 
HETATM    3  C3  UNL     1       4.396  30.331  60.164  1.00  0.00     0.030 C 
HETATM    4  C4  UNL     1       5.430  30.450  59.000  1.00  0.00     0.118 C 
HETATM    5  C9  UNL     1       5.157  29.184  58.299  1.00  0.00     0.146 C 
ENDROOT
BRANCH   5   6
HETATM    6  N3  UNL     1       5.939  28.834  57.168  1.00  0.00    -0.318 N 
HETATM    7  C10 UNL     1       5.583  28.981  55.883  1.00  0.00     0.185 A 
HETATM    8  N4  UNL     1       6.587  28.542  55.107  1.00  0.00    -0.346 N 
HETATM    9  C11 UNL     1       7.578  28.116  55.886  1.00  0.00     0.122 A 
ATOM     10  H4  UNL     1       6.590  28.536  54.087  1.00  0.00     0.167 HD
HETATM   11  C12 UNL     1       8.818  27.576  55.646  1.00  0.00     0.133 A 
HETATM   12  C16 UNL     1       7.173  28.298  57.175  1.00  0.00     0.141 A 
HETATM   13  N6  UNL     1       9.627  27.230  56.665  1.00  0.00    -0.337 N 
HETATM   14  C15 UNL     1       9.214  27.415  57.928  1.00  0.00     0.183 A 
ATOM     15  H6  UNL     1      10.547  26.830  56.477  1.00  0.00     0.168 HD
HETATM   16  N7  UNL     1       8.021  27.934  58.173  1.00  0.00    -0.336 N 
ATOM     17  H7  UNL     1       7.729  28.065  59.142  1.00  0.00     0.168 HD
BRANCH  11  18
HETATM   18  N5  UNL     1       9.228  27.393  54.414  1.00  0.00    -0.369 N 
ATOM     19  H5  UNL     1       8.582  27.521  53.634  1.00  0.00     0.161 HD
BRANCH  18  20
HETATM   20  C13 UNL     1      10.590  27.012  54.167  1.00  0.00     0.192 C 
BRANCH  20  21
HETATM   21  C14 UNL     1      11.033  27.617  52.844  1.00  0.00     0.370 C 
HETATM   22  F1  UNL     1      12.313  28.124  52.941  1.00  0.00    -0.213 F 
HETATM   23  F2  UNL     1      10.192  28.648  52.495  1.00  0.00    -0.213 F 
ENDBRANCH  20  21
ENDBRANCH  18  20
ENDBRANCH  11  18
ENDBRANCH   5   6
BRANCH   1  24
HETATM   24  N1  UNL     1       4.890  26.885  59.130  1.00  0.00    -0.073 N 
ATOM     25  H13 UNL     1       5.568  26.176  59.409  1.00  0.00     0.274 HD
ATOM     26  H12 UNL     1       4.108  26.612  59.725  1.00  0.00     0.274 HD
ATOM     27  H11 UNL     1       4.647  26.788  58.145  1.00  0.00     0.274 HD
ENDBRANCH   1  24
BRANCH   4  28
HETATM   28  N2  UNL     1       5.312  31.671  58.346  1.00  0.00    -0.308 N 
ATOM     29  H2  UNL     1       4.379  31.979  58.072  1.00  0.00     0.172 HD
BRANCH  28  30
HETATM   30  S1  UNL     1       6.586  32.652  57.985  1.00  0.00     0.265 S 
HETATM   31  O1  UNL     1       6.399  33.524  56.759  1.00  0.00    -0.200 OA
HETATM   32  O2  UNL     1       7.787  31.766  57.607  1.00  0.00    -0.200 OA
BRANCH  30  33
HETATM   33  C5  UNL     1       7.195  33.712  59.223  1.00  0.00     0.123 A 
HETATM   34  C6  UNL     1       8.425  34.245  59.449  1.00  0.00     0.059 A 
HETATM   35  C7  UNL     1       8.585  35.039  60.517  1.00  0.00     0.064 A 
HETATM   36 CL1  UNL     1      10.143  35.807  60.934  1.00  0.00    -0.082 Cl
HETATM   37  C8  UNL     1       7.497  35.260  61.312  1.00  0.00     0.097 A 
HETATM   38 CL2  UNL     1       7.403  36.256  62.779  1.00  0.00    -0.074 Cl
HETATM   39  S2  UNL     1       6.275  34.349  60.543  1.00  0.00    -0.063 SA
ENDBRANCH  30  33
ENDBRANCH  28  30
ENDBRANCH   4  28
TORSDOF 8
ENDMDL
MODEL 4
REMARK VINA RESULT: -8.082144422      1.650      2.586
REMARK  8 active torsions:
REMARK  status: ('A' for Active; 'I' for Inactive)
REMARK    1  A    between atoms: N1_1  and  C1_5 
REMARK    2  A    between atoms: C4_8  and  N2_9 
REMARK    3  A    between atoms: N2_9  and  S1_11 
REMARK    4  A    between atoms: S1_11  and  C5_14 
REMARK    5  A    between atoms: C9_21  and  N3_22 
REMARK    6  A    between atoms: C12_27  and  N5_28 
REMARK    7  A    between atoms: N5_28  and  C13_30 
REMARK    8  A    between atoms: C13_30  and  C14_31 
ROOT
HETATM    1  C1  UNL     1       5.742  28.214  59.705  1.00  0.00     0.208 C 
HETATM    2  C2  UNL     1       4.586  28.837  60.468  1.00  0.00     0.037 C 
HETATM    3  C3  UNL     1       4.336  30.204  59.877  1.00  0.00     0.030 C 
HETATM    4  C4  UNL     1       5.574  30.382  58.942  1.00  0.00     0.118 C 
HETATM    5  C9  UNL     1       5.663  29.020  58.391  1.00  0.00     0.146 C 
ENDROOT
BRANCH   5   6
HETATM    6  N3  UNL     1       6.723  28.697  57.505  1.00  0.00    -0.318 N 
HETATM    7  C10 UNL     1       7.977  28.376  57.855  1.00  0.00     0.185 A 
HETATM    8  N4  UNL     1       8.685  28.131  56.740  1.00  0.00    -0.346 N 
HETATM    9  C11 UNL     1       7.893  28.294  55.684  1.00  0.00     0.122 A 
ATOM     10  H4  UNL     1       9.669  27.864  56.709  1.00  0.00     0.167 HD
HETATM   11  C12 UNL     1       8.074  28.180  54.327  1.00  0.00     0.133 A 
HETATM   12  C16 UNL     1       6.666  28.648  56.161  1.00  0.00     0.141 A 
HETATM   13  N6  UNL     1       7.058  28.414  53.475  1.00  0.00    -0.337 N 
HETATM   14  C15 UNL     1       5.856  28.762  53.961  1.00  0.00     0.183 A 
ATOM     15  H6  UNL     1       7.201  28.327  52.469  1.00  0.00     0.168 HD
HETATM   16  N7  UNL     1       5.668  28.875  55.266  1.00  0.00    -0.336 N 
ATOM     17  H7  UNL     1       4.745  29.141  55.611  1.00  0.00     0.168 HD
BRANCH  11  18
HETATM   18  N5  UNL     1       9.246  27.841  53.846  1.00  0.00    -0.369 N 
ATOM     19  H5  UNL     1       9.877  27.258  54.397  1.00  0.00     0.161 HD
BRANCH  18  20
HETATM   20  C13 UNL     1       9.637  28.293  52.541  1.00  0.00     0.192 C 
BRANCH  20  21
HETATM   21  C14 UNL     1      11.104  27.957  52.329  1.00  0.00     0.370 C 
HETATM   22  F1  UNL     1      11.752  27.803  53.538  1.00  0.00    -0.213 F 
HETATM   23  F2  UNL     1      11.723  28.974  51.641  1.00  0.00    -0.213 F 
ENDBRANCH  20  21
ENDBRANCH  18  20
ENDBRANCH  11  18
ENDBRANCH   5   6
BRANCH   1  24
HETATM   24  N1  UNL     1       5.571  26.813  59.473  1.00  0.00    -0.073 N 
ATOM     25  H13 UNL     1       5.713  26.589  58.487  1.00  0.00     0.274 HD
ATOM     26  H12 UNL     1       6.341  26.281  59.878  1.00  0.00     0.274 HD
ATOM     27  H11 UNL     1       4.673  26.459  59.801  1.00  0.00     0.274 HD
ENDBRANCH   1  24
BRANCH   4  28
HETATM   28  N2  UNL     1       5.421  31.484  58.109  1.00  0.00    -0.308 N 
ATOM     29  H2  UNL     1       4.549  31.572  57.587  1.00  0.00     0.172 HD
BRANCH  28  30
HETATM   30  S1  UNL     1       6.560  32.659  57.912  1.00  0.00     0.265 S 
HETATM   31  O1  UNL     1       6.321  33.597  56.746  1.00  0.00    -0.200 OA
HETATM   32  O2  UNL     1       7.895  31.982  57.552  1.00  0.00    -0.200 OA
BRANCH  30  33
HETATM   33  C5  UNL     1       6.938  33.684  59.267  1.00  0.00     0.123 A 
HETATM   34  C6  UNL     1       6.169  34.230  60.245  1.00  0.00     0.059 A 
HETATM   35  C7  UNL     1       6.766  34.998  61.167  1.00  0.00     0.064 A 
HETATM   36 CL1  UNL     1       5.880  35.778  62.506  1.00  0.00    -0.082 Cl
HETATM   37  C8  UNL     1       8.116  35.182  61.061  1.00  0.00     0.097 A 
HETATM   38 CL2  UNL     1       9.171  36.136  62.122  1.00  0.00    -0.074 Cl
HETATM   39  S2  UNL     1       8.514  34.274  59.672  1.00  0.00    -0.063 SA
ENDBRANCH  30  33
ENDBRANCH  28  30
ENDBRANCH   4  28
TORSDOF 8
ENDMDL
MODEL 5
REMARK VINA RESULT: -7.998655159      5.436      7.056
REMARK  8 active torsions:
REMARK  status: ('A' for Active; 'I' for Inactive)
REMARK    1  A    between atoms: N1_1  and  C1_5 
REMARK    2  A    between atoms: C4_8  and  N2_9 
REMARK    3  A    between atoms: N2_9  and  S1_11 
REMARK    4  A    between atoms: S1_11  and  C5_14 
REMARK    5  A    between atoms: C9_21  and  N3_22 
REMARK    6  A    between atoms: C12_27  and  N5_28 
REMARK    7  A    between atoms: N5_28  and  C13_30 
REMARK    8  A    between atoms: C13_30  and  C14_31 
ROOT
HETATM    1  C1  UNL     1       4.414  30.204  56.189  1.00  0.00     0.208 C 
HETATM    2  C2  UNL     1       3.205  30.101  57.103  1.00  0.00     0.037 C 
HETATM    3  C3  UNL     1       2.654  28.702  56.970  1.00  0.00     0.030 C 
HETATM    4  C4  UNL     1       3.465  28.149  55.756  1.00  0.00     0.118 C 
HETATM    5  C9  UNL     1       4.789  28.711  56.070  1.00  0.00     0.146 C 
ENDROOT
BRANCH   5   6
HETATM    6  N3  UNL     1       5.864  28.504  55.166  1.00  0.00    -0.318 N 
HETATM    7  C10 UNL     1       5.849  28.753  53.848  1.00  0.00     0.185 A 
HETATM    8  N4  UNL     1       7.050  28.435  53.338  1.00  0.00    -0.346 N 
HETATM    9  C11 UNL     1       7.828  27.987  54.320  1.00  0.00     0.122 A 
ATOM     10  H4  UNL     1       7.321  28.524  52.359  1.00  0.00     0.167 HD
HETATM   11  C12 UNL     1       9.123  27.531  54.380  1.00  0.00     0.133 A 
HETATM   12  C16 UNL     1       7.087  28.029  55.463  1.00  0.00     0.141 A 
HETATM   13  N6  UNL     1       9.658  27.131  55.548  1.00  0.00    -0.337 N 
HETATM   14  C15 UNL     1       8.915  27.178  56.665  1.00  0.00     0.183 A 
ATOM     15  H6  UNL     1      10.620  26.794  55.584  1.00  0.00     0.168 HD
HETATM   16  N7  UNL     1       7.666  27.615  56.621  1.00  0.00    -0.336 N 
ATOM     17  H7  UNL     1       7.122  27.642  57.483  1.00  0.00     0.168 HD
BRANCH  11  18
HETATM   18  N5  UNL     1       9.854  27.482  53.292  1.00  0.00    -0.369 N 
ATOM     19  H5  UNL     1       9.410  27.378  52.380  1.00  0.00     0.161 HD
BRANCH  18  20
HETATM   20  C13 UNL     1      11.283  27.576  53.391  1.00  0.00     0.192 C 
BRANCH  20  21
HETATM   21  C14 UNL     1      11.814  28.263  52.144  1.00  0.00     0.370 C 
HETATM   22  F1  UNL     1      13.107  28.707  52.341  1.00  0.00    -0.213 F 
HETATM   23  F2  UNL     1      11.032  29.353  51.841  1.00  0.00    -0.213 F 
ENDBRANCH  20  21
ENDBRANCH  18  20
ENDBRANCH  11  18
ENDBRANCH   5   6
BRANCH   1  24
HETATM   24  N1  UNL     1       5.482  30.970  56.755  1.00  0.00    -0.073 N 
ATOM     25  H13 UNL     1       5.138  31.857  57.124  1.00  0.00     0.274 HD
ATOM     26  H12 UNL     1       5.814  30.546  57.621  1.00  0.00     0.274 HD
ATOM     27  H11 UNL     1       6.254  31.121  56.106  1.00  0.00     0.274 HD
ENDBRANCH   1  24
BRANCH   4  28
HETATM   28  N2  UNL     1       3.284  26.778  55.612  1.00  0.00    -0.308 N 
ATOM     29  H2  UNL     1       3.668  26.167  56.333  1.00  0.00     0.172 HD
BRANCH  28  30
HETATM   30  S1  UNL     1       2.488  26.080  54.349  1.00  0.00     0.265 S 
HETATM   31  O1  UNL     1       2.222  24.596  54.499  1.00  0.00    -0.200 OA
HETATM   32  O2  UNL     1       3.395  26.151  53.107  1.00  0.00    -0.200 OA
BRANCH  30  33
HETATM   33  C5  UNL     1       0.980  26.776  53.831  1.00  0.00     0.123 A 
HETATM   34  C6  UNL     1       0.594  28.059  53.602  1.00  0.00     0.059 A 
HETATM   35  C7  UNL     1      -0.668  28.281  53.208  1.00  0.00     0.064 A 
HETATM   36 CL1  UNL     1      -1.309  29.913  52.871  1.00  0.00    -0.082 Cl
HETATM   37  C8  UNL     1      -1.486  27.197  53.062  1.00  0.00     0.097 A 
HETATM   38 CL2  UNL     1      -3.188  27.178  52.558  1.00  0.00    -0.074 Cl
HETATM   39  S2  UNL     1      -0.468  25.893  53.482  1.00  0.00    -0.063 SA
ENDBRANCH  30  33
ENDBRANCH  28  30
ENDBRANCH   4  28
TORSDOF 8
ENDMDL
