MODEL 1
REMARK VINA RESULT: -8.224519511      0.000      0.000
REMARK  10 active torsions:
REMARK  status: ('A' for Active; 'I' for Inactive)
REMARK    1  A    between atoms: C2_2  and  O1_4 
REMARK    2  A    between atoms: O1_4  and  C4_5 
REMARK    3  A    between atoms: N1_9  and  C7_11 
REMARK    4  A    between atoms: C7_11  and  C8_12 
REMARK    5  A    between atoms: C10_18  and  C11_19 
REMARK    6  A    between atoms: C11_19  and  O3_20 
REMARK    7  A    between atoms: C11_19  and  C12_22 
REMARK    8  A    between atoms: C13_24  and  C14_25 
REMARK    9  A    between atoms: C17_28  and  O5_29 
REMARK   10  A    between atoms: C23_37  and  O7_38 
ROOT
HETATM    1  C4  UNL     1       3.955  30.697  55.911  1.00  0.00     0.177 C 
HETATM    2  C5  UNL     1       4.968  29.778  55.266  1.00  0.00     0.161 C 
HETATM    3 CL1  UNL     1       4.199  28.490  54.335  1.00  0.00    -0.116 Cl
HETATM    4  C6  UNL     1       5.876  29.143  56.259  1.00  0.00     0.035 C 
HETATM    5  N1  UNL     1       6.988  28.923  55.687  1.00  0.00    -0.384 N 
ATOM      6  H1  UNL     1       7.038  29.210  54.709  1.00  0.00     0.159 HD
HETATM    7  C9  UNL     1       5.874  28.701  57.679  1.00  0.00     0.197 C 
HETATM    8  O2  UNL     1       6.579  29.537  58.512  1.00  0.00    -0.367 OA
HETATM    9  C10 UNL     1       5.928  30.680  58.891  1.00  0.00     0.185 C 
HETATM   10  C20 UNL     1       4.545  30.846  58.350  1.00  0.00     0.185 C 
HETATM   11  O6  UNL     1       3.779  29.709  58.358  1.00  0.00    -0.373 OA
HETATM   12  C21 UNL     1       4.424  28.544  58.084  1.00  0.00     0.152 C 
HETATM   13  C22 UNL     1       4.348  27.536  59.224  1.00  0.00     0.042 C 
HETATM   14  C23 UNL     1       4.635  31.518  57.014  1.00  0.00     0.180 C 
ENDROOT
BRANCH   9  15
HETATM   15  C11 UNL     1       5.905  30.878  60.395  1.00  0.00     0.181 C 
BRANCH  15  16
HETATM   16  O3  UNL     1       4.601  30.854  60.848  1.00  0.00    -0.390 OA
ATOM     17  H3  UNL     1       4.586  30.629  61.771  1.00  0.00     0.210 HD
ENDBRANCH  15  16
BRANCH  15  18
HETATM   18  C12 UNL     1       6.517  32.249  60.708  1.00  0.00     0.187 A 
HETATM   19  O4  UNL     1       6.715  32.941  59.413  1.00  0.00    -0.368 OA
HETATM   20  C13 UNL     1       7.821  32.533  60.354  1.00  0.00     0.186 A 
BRANCH  20  21
HETATM   21  C14 UNL     1       8.506  33.767  60.786  1.00  0.00    -0.027 A 
HETATM   22  C15 UNL     1       7.986  34.571  61.794  1.00  0.00     0.012 A 
HETATM   23  C16 UNL     1       8.648  35.718  62.178  1.00  0.00     0.037 A 
HETATM   24  C17 UNL     1       9.835  36.116  61.590  1.00  0.00     0.065 A 
HETATM   25  C18 UNL     1      10.352  35.318  60.586  1.00  0.00     0.037 A 
HETATM   26  C19 UNL     1       9.690  34.181  60.211  1.00  0.00     0.012 A 
BRANCH  24  27
HETATM   27  O5  UNL     1      10.498  37.282  61.985  1.00  0.00    -0.361 OA
ATOM     28  H5  UNL     1      11.440  37.306  62.106  1.00  0.00     0.217 HD
ENDBRANCH  24  27
ENDBRANCH  20  21
ENDBRANCH  15  18
ENDBRANCH   9  15
BRANCH  14  29
HETATM   29  O7  UNL     1       4.128  32.817  57.021  1.00  0.00    -0.390 OA
ATOM     30  H7  UNL     1       4.643  33.369  56.444  1.00  0.00     0.210 HD
ENDBRANCH  14  29
BRANCH   1  31
HETATM   31  O1  UNL     1       3.573  31.613  54.954  1.00  0.00    -0.377 OA
BRANCH  31  32
HETATM   32  C2  UNL     1       2.231  31.612  54.658  1.00  0.00     0.114 C 
HETATM   33  C1  UNL     1       1.545  32.920  54.837  1.00  0.00     0.039 C 
HETATM   34  C3  UNL     1       1.452  30.543  55.394  1.00  0.00     0.039 C 
ENDBRANCH  31  32
ENDBRANCH   1  31
BRANCH   5  35
HETATM   35  C7  UNL     1       8.157  28.345  56.199  1.00  0.00     0.236 C 
BRANCH  35  36
HETATM   36  C8  UNL     1       8.607  27.253  55.218  1.00  0.00     0.403 C 
HETATM   37  F1  UNL     1       8.580  26.009  55.819  1.00  0.00    -0.169 F 
HETATM   38  F2  UNL     1       9.891  27.494  54.770  1.00  0.00    -0.169 F 
HETATM   39  F3  UNL     1       7.772  27.206  54.127  1.00  0.00    -0.169 F 
ENDBRANCH  35  36
ENDBRANCH   5  35
TORSDOF 10
ENDMDL
MODEL 2
REMARK VINA RESULT: -8.017070960      2.157      2.586
REMARK  10 active torsions:
REMARK  status: ('A' for Active; 'I' for Inactive)
REMARK    1  A    between atoms: C2_2  and  O1_4 
REMARK    2  A    between atoms: O1_4  and  C4_5 
REMARK    3  A    between atoms: N1_9  and  C7_11 
REMARK    4  A    between atoms: C7_11  and  C8_12 
REMARK    5  A    between atoms: C10_18  and  C11_19 
REMARK    6  A    between atoms: C11_19  and  O3_20 
REMARK    7  A    between atoms: C11_19  and  C12_22 
REMARK    8  A    between atoms: C13_24  and  C14_25 
REMARK    9  A    between atoms: C17_28  and  O5_29 
REMARK   10  A    between atoms: C23_37  and  O7_38 
ROOT
HETATM    1  C4  UNL     1       3.846  32.801  56.248  1.00  0.00     0.177 C 
HETATM    2  C5  UNL     1       3.641  31.634  55.310  1.00  0.00     0.161 C 
HETATM    3 CL1  UNL     1       1.932  31.251  55.087  1.00  0.00    -0.116 Cl
HETATM    4  C6  UNL     1       4.328  30.399  55.775  1.00  0.00     0.035 C 
HETATM    5  N1  UNL     1       4.638  29.714  54.751  1.00  0.00    -0.384 N 
ATOM      6  H1  UNL     1       4.368  30.123  53.857  1.00  0.00     0.159 HD
HETATM    7  C9  UNL     1       4.750  29.744  57.042  1.00  0.00     0.197 C 
HETATM    8  O2  UNL     1       6.102  29.825  57.275  1.00  0.00    -0.367 OA
HETATM    9  C10 UNL     1       6.545  31.021  57.773  1.00  0.00     0.185 C 
HETATM   10  C20 UNL     1       5.491  32.057  57.998  1.00  0.00     0.185 C 
HETATM   11  O6  UNL     1       4.327  31.591  58.551  1.00  0.00    -0.373 OA
HETATM   12  C21 UNL     1       3.918  30.357  58.147  1.00  0.00     0.152 C 
HETATM   13  C22 UNL     1       3.821  29.356  59.291  1.00  0.00     0.042 C 
HETATM   14  C23 UNL     1       5.303  32.827  56.726  1.00  0.00     0.180 C 
ENDROOT
BRANCH   9  15
HETATM   15  C11 UNL     1       7.373  30.867  59.035  1.00  0.00     0.181 C 
BRANCH  15  16
HETATM   16  O3  UNL     1       6.711  30.049  59.930  1.00  0.00    -0.390 OA
ATOM     17  H3  UNL     1       6.574  30.512  60.748  1.00  0.00     0.210 HD
ENDBRANCH  15  16
BRANCH  15  18
HETATM   18  C12 UNL     1       7.550  32.254  59.665  1.00  0.00     0.187 A 
HETATM   19  O4  UNL     1       8.073  33.148  58.604  1.00  0.00    -0.368 OA
HETATM   20  C13 UNL     1       8.812  32.778  59.865  1.00  0.00     0.186 A 
BRANCH  20  21
HETATM   21  C14 UNL     1       9.039  34.025  60.622  1.00  0.00    -0.027 A 
HETATM   22  C15 UNL     1       8.159  34.442  61.615  1.00  0.00     0.012 A 
HETATM   23  C16 UNL     1       8.397  35.611  62.306  1.00  0.00     0.037 A 
HETATM   24  C17 UNL     1       9.497  36.409  62.049  1.00  0.00     0.065 A 
HETATM   25  C18 UNL     1      10.371  35.995  61.061  1.00  0.00     0.037 A 
HETATM   26  C19 UNL     1      10.130  34.834  60.380  1.00  0.00     0.012 A 
BRANCH  24  27
HETATM   27  O5  UNL     1       9.728  37.594  62.755  1.00  0.00    -0.361 OA
ATOM     28  H5  UNL     1       9.756  38.438  62.320  1.00  0.00     0.217 HD
ENDBRANCH  24  27
ENDBRANCH  20  21
ENDBRANCH  15  18
ENDBRANCH   9  15
BRANCH  14  29
HETATM   29  O7  UNL     1       5.752  34.144  56.813  1.00  0.00    -0.390 OA
ATOM     30  H7  UNL     1       6.569  34.240  56.339  1.00  0.00     0.210 HD
ENDBRANCH  14  29
BRANCH   1  31
HETATM   31  O1  UNL     1       3.682  33.951  55.507  1.00  0.00    -0.377 OA
BRANCH  31  32
HETATM   32  C2  UNL     1       2.660  34.767  55.926  1.00  0.00     0.114 C 
HETATM   33  C1  UNL     1       2.982  36.220  55.949  1.00  0.00     0.039 C 
HETATM   34  C3  UNL     1       2.082  34.369  57.268  1.00  0.00     0.039 C 
ENDBRANCH  31  32
ENDBRANCH   1  31
BRANCH   5  35
HETATM   35  C7  UNL     1       5.294  28.479  54.668  1.00  0.00     0.236 C 
BRANCH  35  36
HETATM   36  C8  UNL     1       4.358  27.499  53.945  1.00  0.00     0.403 C 
HETATM   37  F1  UNL     1       3.592  26.791  54.850  1.00  0.00    -0.169 F 
HETATM   38  F2  UNL     1       5.081  26.601  53.186  1.00  0.00    -0.169 F 
HETATM   39  F3  UNL     1       3.498  28.175  53.112  1.00  0.00    -0.169 F 
ENDBRANCH  35  36
ENDBRANCH   5  35
TORSDOF 10
ENDMDL
MODEL 3
REMARK VINA RESULT: -8.013154137      2.152      2.773
REMARK  10 active torsions:
REMARK  status: ('A' for Active; 'I' for Inactive)
REMARK    1  A    between atoms: C2_2  and  O1_4 
REMARK    2  A    between atoms: O1_4  and  C4_5 
REMARK    3  A    between atoms: N1_9  and  C7_11 
REMARK    4  A    between atoms: C7_11  and  C8_12 
REMARK    5  A    between atoms: C10_18  and  C11_19 
REMARK    6  A    between atoms: C11_19  and  O3_20 
REMARK    7  A    between atoms: C11_19  and  C12_22 
REMARK    8  A    between atoms: C13_24  and  C14_25 
REMARK    9  A    between atoms: C17_28  and  O5_29 
REMARK   10  A    between atoms: C23_37  and  O7_38 
ROOT
HETATM    1  C4  UNL     1       3.859  32.823  56.283  1.00  0.00     0.177 C 
HETATM    2  C5  UNL     1       3.649  31.648  55.355  1.00  0.00     0.161 C 
HETATM    3 CL1  UNL     1       1.938  31.267  55.139  1.00  0.00    -0.116 Cl
HETATM    4  C6  UNL     1       4.334  30.416  55.830  1.00  0.00     0.035 C 
HETATM    5  N1  UNL     1       4.640  29.720  54.812  1.00  0.00    -0.384 N 
ATOM      6  H1  UNL     1       4.369  30.122  53.914  1.00  0.00     0.159 HD
HETATM    7  C9  UNL     1       4.757  29.771  57.102  1.00  0.00     0.197 C 
HETATM    8  O2  UNL     1       6.110  29.851  57.331  1.00  0.00    -0.367 OA
HETATM    9  C10 UNL     1       6.556  31.050  57.817  1.00  0.00     0.185 C 
HETATM   10  C20 UNL     1       5.506  32.091  58.035  1.00  0.00     0.185 C 
HETATM   11  O6  UNL     1       4.341  31.632  58.595  1.00  0.00    -0.373 OA
HETATM   12  C21 UNL     1       3.929  30.396  58.203  1.00  0.00     0.152 C 
HETATM   13  C22 UNL     1       3.832  29.406  59.356  1.00  0.00     0.042 C 
HETATM   14  C23 UNL     1       5.317  32.849  56.756  1.00  0.00     0.180 C 
ENDROOT
BRANCH   9  15
HETATM   15  C11 UNL     1       7.387  30.905  59.079  1.00  0.00     0.181 C 
BRANCH  15  16
HETATM   16  O3  UNL     1       6.723  30.100  59.984  1.00  0.00    -0.390 OA
ATOM     17  H3  UNL     1       5.799  30.322  59.993  1.00  0.00     0.210 HD
ENDBRANCH  15  16
BRANCH  15  18
HETATM   18  C12 UNL     1       7.573  32.298  59.693  1.00  0.00     0.187 A 
HETATM   19  O4  UNL     1       8.103  33.176  58.623  1.00  0.00    -0.368 OA
HETATM   20  C13 UNL     1       8.838  32.815  59.889  1.00  0.00     0.186 A 
BRANCH  20  21
HETATM   21  C14 UNL     1       9.073  34.069  60.632  1.00  0.00    -0.027 A 
HETATM   22  C15 UNL     1      10.192  34.858  60.389  1.00  0.00     0.012 A 
HETATM   23  C16 UNL     1      10.385  36.025  61.098  1.00  0.00     0.037 A 
HETATM   24  C17 UNL     1       9.495  36.456  62.064  1.00  0.00     0.065 A 
HETATM   25  C18 UNL     1       8.384  35.672  62.307  1.00  0.00     0.037 A 
HETATM   26  C19 UNL     1       8.197  34.515  61.601  1.00  0.00     0.012 A 
BRANCH  24  27
HETATM   27  O5  UNL     1       9.701  37.641  62.779  1.00  0.00    -0.361 OA
ATOM     28  H5  UNL     1       9.088  38.365  62.735  1.00  0.00     0.217 HD
ENDBRANCH  24  27
ENDBRANCH  20  21
ENDBRANCH  15  18
ENDBRANCH   9  15
BRANCH  14  29
HETATM   29  O7  UNL     1       5.769  34.166  56.831  1.00  0.00    -0.390 OA
ATOM     30  H7  UNL     1       6.642  34.188  57.205  1.00  0.00     0.210 HD
ENDBRANCH  14  29
BRANCH   1  31
HETATM   31  O1  UNL     1       3.696  33.967  55.531  1.00  0.00    -0.377 OA
BRANCH  31  32
HETATM   32  C2  UNL     1       2.678  34.790  55.946  1.00  0.00     0.114 C 
HETATM   33  C1  UNL     1       3.006  36.242  55.958  1.00  0.00     0.039 C 
HETATM   34  C3  UNL     1       2.102  34.405  57.293  1.00  0.00     0.039 C 
ENDBRANCH  31  32
ENDBRANCH   1  31
BRANCH   5  35
HETATM   35  C7  UNL     1       5.293  28.483  54.738  1.00  0.00     0.236 C 
BRANCH  35  36
HETATM   36  C8  UNL     1       4.373  27.513  53.983  1.00  0.00     0.403 C 
HETATM   37  F1  UNL     1       3.542  28.195  53.116  1.00  0.00    -0.169 F 
HETATM   38  F2  UNL     1       3.590  26.793  54.864  1.00  0.00    -0.169 F 
HETATM   39  F3  UNL     1       5.112  26.624  53.238  1.00  0.00    -0.169 F 
ENDBRANCH  35  36
ENDBRANCH   5  35
TORSDOF 10
ENDMDL
MODEL 4
REMARK VINA RESULT: -7.992076018      0.408      1.218
REMARK  10 active torsions:
REMARK  status: ('A' for Active; 'I' for Inactive)
REMARK    1  A    between atoms: C2_2  and  O1_4 
REMARK    2  A    between atoms: O1_4  and  C4_5 
REMARK    3  A    between atoms: N1_9  and  C7_11 
REMARK    4  A    between atoms: C7_11  and  C8_12 
REMARK    5  A    between atoms: C10_18  and  C11_19 
REMARK    6  A    between atoms: C11_19  and  O3_20 
REMARK    7  A    between atoms: C11_19  and  C12_22 
REMARK    8  A    between atoms: C13_24  and  C14_25 
REMARK    9  A    between atoms: C17_28  and  O5_29 
REMARK   10  A    between atoms: C23_37  and  O7_38 
ROOT
HETATM    1  C4  UNL     1       3.734  30.387  56.198  1.00  0.00     0.177 C 
HETATM    2  C5  UNL     1       4.804  29.573  55.506  1.00  0.00     0.161 C 
HETATM    3 CL1  UNL     1       4.128  28.204  54.620  1.00  0.00    -0.116 Cl
HETATM    4  C6  UNL     1       5.823  29.046  56.452  1.00  0.00     0.035 C 
HETATM    5  N1  UNL     1       6.922  28.938  55.824  1.00  0.00    -0.384 N 
ATOM      6  H1  UNL     1       6.891  29.219  54.844  1.00  0.00     0.159 HD
HETATM    7  C9  UNL     1       5.939  28.618  57.872  1.00  0.00     0.197 C 
HETATM    8  O2  UNL     1       6.595  29.531  58.664  1.00  0.00    -0.367 OA
HETATM    9  C10 UNL     1       5.848  30.603  59.072  1.00  0.00     0.185 C 
HETATM   10  C20 UNL     1       4.429  30.618  58.603  1.00  0.00     0.185 C 
HETATM   11  O6  UNL     1       3.787  29.408  58.655  1.00  0.00    -0.373 OA
HETATM   12  C21 UNL     1       4.537  28.314  58.352  1.00  0.00     0.152 C 
HETATM   13  C22 UNL     1       4.625  27.314  59.498  1.00  0.00     0.042 C 
HETATM   14  C23 UNL     1       4.380  31.284  57.262  1.00  0.00     0.180 C 
ENDROOT
BRANCH   9  15
HETATM   15  C11 UNL     1       5.881  30.810  60.575  1.00  0.00     0.181 C 
BRANCH  15  16
HETATM   16  O3  UNL     1       4.595  30.792  61.076  1.00  0.00    -0.390 OA
ATOM     17  H3  UNL     1       3.971  30.766  60.360  1.00  0.00     0.210 HD
ENDBRANCH  15  16
BRANCH  15  18
HETATM   18  C12 UNL     1       6.506  32.182  60.857  1.00  0.00     0.187 A 
HETATM   19  O4  UNL     1       6.594  32.893  59.559  1.00  0.00    -0.368 OA
HETATM   20  C13 UNL     1       7.775  32.482  60.401  1.00  0.00     0.186 A 
BRANCH  20  21
HETATM   21  C14 UNL     1       8.484  33.716  60.793  1.00  0.00    -0.027 A 
HETATM   22  C15 UNL     1       9.660  34.108  60.164  1.00  0.00     0.012 A 
HETATM   23  C16 UNL     1      10.301  35.266  60.551  1.00  0.00     0.037 A 
HETATM   24  C17 UNL     1       9.816  36.074  61.562  1.00  0.00     0.065 A 
HETATM   25  C18 UNL     1       8.648  35.684  62.190  1.00  0.00     0.037 A 
HETATM   26  C19 UNL     1       8.016  34.534  61.801  1.00  0.00     0.012 A 
BRANCH  24  27
HETATM   27  O5  UNL     1      10.475  37.247  61.948  1.00  0.00    -0.361 OA
ATOM     28  H5  UNL     1       9.998  38.017  62.236  1.00  0.00     0.217 HD
ENDBRANCH  24  27
ENDBRANCH  20  21
ENDBRANCH  15  18
ENDBRANCH   9  15
BRANCH  14  29
HETATM   29  O7  UNL     1       3.741  32.523  57.290  1.00  0.00    -0.390 OA
ATOM     30  H7  UNL     1       2.920  32.475  56.814  1.00  0.00     0.210 HD
ENDBRANCH  14  29
BRANCH   1  31
HETATM   31  O1  UNL     1       3.210  31.250  55.259  1.00  0.00    -0.377 OA
BRANCH  31  32
HETATM   32  C2  UNL     1       1.857  31.128  55.057  1.00  0.00     0.114 C 
HETATM   33  C1  UNL     1       1.467  30.289  53.891  1.00  0.00     0.039 C 
HETATM   34  C3  UNL     1       1.138  32.458  54.968  1.00  0.00     0.039 C 
ENDBRANCH  31  32
ENDBRANCH   1  31
BRANCH   5  35
HETATM   35  C7  UNL     1       8.169  28.490  56.278  1.00  0.00     0.236 C 
BRANCH  35  36
HETATM   36  C8  UNL     1       8.612  27.337  55.364  1.00  0.00     0.403 C 
HETATM   37  F1  UNL     1       7.779  27.230  54.267  1.00  0.00    -0.169 F 
HETATM   38  F2  UNL     1       8.596  26.137  56.045  1.00  0.00    -0.169 F 
HETATM   39  F3  UNL     1       9.888  27.552  54.897  1.00  0.00    -0.169 F 
ENDBRANCH  35  36
ENDBRANCH   5  35
TORSDOF 10
ENDMDL
MODEL 5
REMARK VINA RESULT: -7.912789386      3.988      7.362
REMARK  10 active torsions:
REMARK  status: ('A' for Active; 'I' for Inactive)
REMARK    1  A    between atoms: C2_2  and  O1_4 
REMARK    2  A    between atoms: O1_4  and  C4_5 
REMARK    3  A    between atoms: N1_9  and  C7_11 
REMARK    4  A    between atoms: C7_11  and  C8_12 
REMARK    5  A    between atoms: C10_18  and  C11_19 
REMARK    6  A    between atoms: C11_19  and  O3_20 
REMARK    7  A    between atoms: C11_19  and  C12_22 
REMARK    8  A    between atoms: C13_24  and  C14_25 
REMARK    9  A    between atoms: C17_28  and  O5_29 
REMARK   10  A    between atoms: C23_37  and  O7_38 
ROOT
HETATM    1  C4  UNL     1       4.615  29.171  60.256  1.00  0.00     0.177 C 
HETATM    2  C5  UNL     1       4.977  30.625  60.054  1.00  0.00     0.161 C 
HETATM    3 CL1  UNL     1       3.581  31.600  59.587  1.00  0.00    -0.116 Cl
HETATM    4  C6  UNL     1       6.031  30.813  59.021  1.00  0.00     0.035 C 
HETATM    5  N1  UNL     1       6.689  31.858  59.318  1.00  0.00    -0.384 N 
ATOM      6  H1  UNL     1       6.381  32.339  60.164  1.00  0.00     0.159 HD
HETATM    7  C9  UNL     1       6.532  30.164  57.780  1.00  0.00     0.197 C 
HETATM    8  O2  UNL     1       7.715  29.488  57.957  1.00  0.00    -0.367 OA
HETATM    9  C10 UNL     1       7.608  28.251  58.533  1.00  0.00     0.185 C 
HETATM   10  C20 UNL     1       6.220  27.815  58.875  1.00  0.00     0.185 C 
HETATM   11  O6  UNL     1       5.271  28.102  57.928  1.00  0.00    -0.373 OA
HETATM   12  C21 UNL     1       5.414  29.282  57.268  1.00  0.00     0.152 C 
HETATM   13  C22 UNL     1       5.585  29.110  55.764  1.00  0.00     0.042 C 
HETATM   14  C23 UNL     1       5.890  28.319  60.248  1.00  0.00     0.180 C 
ENDROOT
BRANCH   9  15
HETATM   15  C11 UNL     1       8.290  27.161  57.726  1.00  0.00     0.181 C 
BRANCH  15  16
HETATM   16  O3  UNL     1       9.468  26.792  58.344  1.00  0.00    -0.390 OA
ATOM     17  H3  UNL     1      10.152  26.683  57.693  1.00  0.00     0.210 HD
ENDBRANCH  15  16
BRANCH  15  18
HETATM   18  C12 UNL     1       8.611  27.724  56.336  1.00  0.00     0.187 A 
HETATM   19  O4  UNL     1       7.774  26.980  55.364  1.00  0.00    -0.368 OA
HETATM   20  C13 UNL     1       9.282  26.955  55.405  1.00  0.00     0.186 A 
BRANCH  20  21
HETATM   21  C14 UNL     1       9.765  27.507  54.124  1.00  0.00    -0.027 A 
HETATM   22  C15 UNL     1       8.910  28.173  53.253  1.00  0.00     0.012 A 
HETATM   23  C16 UNL     1       9.389  28.679  52.063  1.00  0.00     0.037 A 
HETATM   24  C17 UNL     1      10.714  28.550  51.687  1.00  0.00     0.065 A 
HETATM   25  C18 UNL     1      11.564  27.886  52.552  1.00  0.00     0.037 A 
HETATM   26  C19 UNL     1      11.082  27.387  53.732  1.00  0.00     0.012 A 
BRANCH  24  27
HETATM   27  O5  UNL     1      11.190  29.066  50.477  1.00  0.00    -0.361 OA
ATOM     28  H5  UNL     1      10.604  29.431  49.824  1.00  0.00     0.217 HD
ENDBRANCH  24  27
ENDBRANCH  20  21
ENDBRANCH  15  18
ENDBRANCH   9  15
BRANCH  14  29
HETATM   29  O7  UNL     1       5.786  27.299  61.193  1.00  0.00    -0.390 OA
ATOM     30  H7  UNL     1       5.785  27.667  62.068  1.00  0.00     0.210 HD
ENDBRANCH  14  29
BRANCH   1  31
HETATM   31  O1  UNL     1       4.104  29.054  61.531  1.00  0.00    -0.377 OA
BRANCH  31  32
HETATM   32  C2  UNL     1       2.786  28.671  61.591  1.00  0.00     0.114 C 
HETATM   33  C1  UNL     1       2.185  28.275  60.288  1.00  0.00     0.039 C 
HETATM   34  C3  UNL     1       1.889  29.695  62.255  1.00  0.00     0.039 C 
ENDBRANCH  31  32
ENDBRANCH   1  31
BRANCH   5  35
HETATM   35  C7  UNL     1       7.774  32.449  58.657  1.00  0.00     0.236 C 
BRANCH  35  36
HETATM   36  C8  UNL     1       8.450  33.416  59.640  1.00  0.00     0.403 C 
HETATM   37  F1  UNL     1       7.772  33.449  60.844  1.00  0.00    -0.169 F 
HETATM   38  F2  UNL     1       8.486  34.695  59.123  1.00  0.00    -0.169 F 
HETATM   39  F3  UNL     1       9.740  33.018  59.901  1.00  0.00    -0.169 F 
ENDBRANCH  35  36
ENDBRANCH   5  35
TORSDOF 10
ENDMDL
