MODEL 1
REMARK VINA RESULT: -7.576484623      0.000      0.000
REMARK  9 active torsions:
REMARK  status: ('A' for Active; 'I' for Inactive)
REMARK    1  A    between atoms: C4_4  and  C5_5 
REMARK    2  A    between atoms: C5_5  and  N1_7 
REMARK    3  A    between atoms: N1_7  and  C7_9 
REMARK    4  A    between atoms: C8_12  and  N3_13 
REMARK    5  A    between atoms: C13_19  and  C14_20 
REMARK    6  A    between atoms: C17_29  and  C18_30 
REMARK    7  A    between atoms: C18_30  and  N5_31 
REMARK    8  A    between atoms: C21_34  and  O1_35 
REMARK    9  A    between atoms: C22_37  and  O2_38 
ROOT
HETATM    1  N1  UNL     1       8.028  35.482  61.710  1.00  0.00    -0.217 N 
ATOM      2  H1  UNL     1       7.932  36.433  61.353  1.00  0.00     0.178 HD
ENDROOT
BRANCH   1   3
HETATM    3  C5  UNL     1       9.007  34.613  61.139  1.00  0.00     0.135 C 
HETATM    4  C6  UNL     1      10.118  35.448  60.545  1.00  0.00     0.038 C 
BRANCH   3   5
HETATM    5  C4  UNL     1       8.345  33.825  60.030  1.00  0.00     0.006 A 
HETATM    6  C3  UNL     1       7.587  34.320  59.002  1.00  0.00     0.024 A 
HETATM    7  C2  UNL     1       7.089  33.437  58.119  1.00  0.00    -0.046 A 
HETATM    8  C1  UNL     1       6.230  33.846  56.929  1.00  0.00     0.049 C 
HETATM    9  C17 UNL     1       7.384  32.118  58.328  1.00  0.00     0.017 A 
HETATM   10  S1  UNL     1       8.340  32.151  59.738  1.00  0.00    -0.095 SA
BRANCH   9  11
HETATM   11  C18 UNL     1       6.948  30.962  57.467  1.00  0.00     0.319 C 
BRANCH  11  12
HETATM   12  N5  UNL     1       7.877  29.847  57.623  1.00  0.00     0.095 N 
HETATM   13  C19 UNL     1       7.683  29.017  56.460  1.00  0.00     0.275 C 
HETATM   14  C20 UNL     1       8.220  27.638  56.558  1.00  0.00     0.064 C 
HETATM   15  C21 UNL     1       8.374  27.093  57.941  1.00  0.00     0.150 C 
HETATM   16  C22 UNL     1       7.311  27.755  58.792  1.00  0.00     0.175 C 
HETATM   17  C23 UNL     1       7.655  29.227  58.877  1.00  0.00     0.306 C 
BRANCH  15  18
HETATM   18  O1  UNL     1       9.632  27.392  58.468  1.00  0.00    -0.393 OA
ATOM     19  H1  UNL     1      10.157  26.608  58.574  1.00  0.00     0.210 HD
ENDBRANCH  15  18
BRANCH  16  20
HETATM   20  O2  UNL     1       6.088  27.608  58.168  1.00  0.00    -0.391 OA
ATOM     21  H2  UNL     1       6.126  26.853  57.594  1.00  0.00     0.210 HD
ENDBRANCH  16  20
ENDBRANCH  11  12
ENDBRANCH   9  11
ENDBRANCH   3   5
ENDBRANCH   1   3
BRANCH   1  22
HETATM   22  C7  UNL     1       7.263  35.083  62.669  1.00  0.00     0.680 A 
HETATM   23  N2  UNL     1       6.805  33.821  62.760  1.00  0.00    -0.174 N 
HETATM   24  C8  UNL     1       6.001  33.400  63.767  1.00  0.00     0.160 A 
ATOM     25  H2  UNL     1       7.074  33.152  62.039  1.00  0.00     0.186 HD
HETATM   26  C15 UNL     1       5.641  34.309  64.735  1.00  0.00     0.176 A 
HETATM   27  F3  UNL     1       4.839  33.888  65.737  1.00  0.00    -0.201 F 
HETATM   28  C16 UNL     1       6.094  35.609  64.668  1.00  0.00     0.152 A 
HETATM   29  N4  UNL     1       6.892  35.962  63.638  1.00  0.00    -0.199 N 
ATOM     30  H4  UNL     1       7.230  36.924  63.585  1.00  0.00     0.183 HD
BRANCH  24  31
HETATM   31  N3  UNL     1       5.530  32.084  63.853  1.00  0.00    -0.352 N 
HETATM   32  C9  UNL     1       6.105  31.067  64.738  1.00  0.00     0.131 C 
HETATM   33  C10 UNL     1       5.920  29.747  64.032  1.00  0.00     0.020 C 
HETATM   34  C11 UNL     1       5.741  28.594  64.992  1.00  0.00     0.013 C 
HETATM   35  C12 UNL     1       4.749  29.958  63.130  1.00  0.00     0.115 C 
HETATM   36 CL1  UNL     1       5.122  29.395  61.479  1.00  0.00    -0.122 Cl
HETATM   37  C13 UNL     1       4.447  31.448  63.150  1.00  0.00     0.169 C 
BRANCH  37  38
HETATM   38  C14 UNL     1       3.114  31.604  63.875  1.00  0.00     0.377 C 
HETATM   39  F1  UNL     1       2.171  30.734  63.365  1.00  0.00    -0.212 F 
HETATM   40  F2  UNL     1       2.658  32.885  63.590  1.00  0.00    -0.212 F 
ENDBRANCH  37  38
ENDBRANCH  24  31
ENDBRANCH   1  22
TORSDOF 9
ENDMDL
MODEL 2
REMARK VINA RESULT: -7.553402000      5.113      9.072
REMARK  9 active torsions:
REMARK  status: ('A' for Active; 'I' for Inactive)
REMARK    1  A    between atoms: C4_4  and  C5_5 
REMARK    2  A    between atoms: C5_5  and  N1_7 
REMARK    3  A    between atoms: N1_7  and  C7_9 
REMARK    4  A    between atoms: C8_12  and  N3_13 
REMARK    5  A    between atoms: C13_19  and  C14_20 
REMARK    6  A    between atoms: C17_29  and  C18_30 
REMARK    7  A    between atoms: C18_30  and  N5_31 
REMARK    8  A    between atoms: C21_34  and  O1_35 
REMARK    9  A    between atoms: C22_37  and  O2_38 
ROOT
HETATM    1  N1  UNL     1       6.704  30.921  58.016  1.00  0.00    -0.217 N 
ATOM      2  H1  UNL     1       6.376  31.861  57.793  1.00  0.00     0.178 HD
ENDROOT
BRANCH   1   3
HETATM    3  C5  UNL     1       7.220  30.649  59.320  1.00  0.00     0.135 C 
HETATM    4  C6  UNL     1       6.187  29.875  60.105  1.00  0.00     0.038 C 
BRANCH   3   5
HETATM    5  C4  UNL     1       7.466  31.972  60.013  1.00  0.00     0.006 A 
HETATM    6  C3  UNL     1       8.519  32.826  59.814  1.00  0.00     0.024 A 
HETATM    7  C2  UNL     1       8.544  33.956  60.542  1.00  0.00    -0.046 A 
HETATM    8  C1  UNL     1       9.653  34.995  60.425  1.00  0.00     0.049 C 
HETATM    9  C17 UNL     1       7.513  34.152  61.418  1.00  0.00     0.017 A 
HETATM   10  S1  UNL     1       6.548  32.766  61.202  1.00  0.00    -0.095 SA
BRANCH   9  11
HETATM   11  C18 UNL     1       7.327  35.344  62.320  1.00  0.00     0.319 C 
BRANCH  11  12
HETATM   12  N5  UNL     1       6.074  35.220  63.057  1.00  0.00     0.095 N 
HETATM   13  C19 UNL     1       5.394  36.479  62.878  1.00  0.00     0.275 C 
HETATM   14  C20 UNL     1       4.289  36.753  63.828  1.00  0.00     0.064 C 
HETATM   15  C21 UNL     1       4.359  36.035  65.138  1.00  0.00     0.150 C 
HETATM   16  C22 UNL     1       5.826  35.811  65.435  1.00  0.00     0.175 C 
HETATM   17  C23 UNL     1       6.354  34.846  64.395  1.00  0.00     0.306 C 
BRANCH  15  18
HETATM   18  O1  UNL     1       3.712  34.799  65.074  1.00  0.00    -0.393 OA
ATOM     19  H1  UNL     1       3.773  34.335  65.901  1.00  0.00     0.210 HD
ENDBRANCH  15  18
BRANCH  16  20
HETATM   20  O2  UNL     1       6.492  37.015  65.318  1.00  0.00    -0.391 OA
ATOM     21  H2  UNL     1       7.389  36.897  65.608  1.00  0.00     0.210 HD
ENDBRANCH  16  20
ENDBRANCH  11  12
ENDBRANCH   9  11
ENDBRANCH   3   5
ENDBRANCH   1   3
BRANCH   1  22
HETATM   22  C7  UNL     1       6.647  29.998  57.117  1.00  0.00     0.680 A 
HETATM   23  N2  UNL     1       5.487  29.547  56.608  1.00  0.00    -0.174 N 
HETATM   24  C8  UNL     1       5.424  28.577  55.663  1.00  0.00     0.160 A 
ATOM     25  H2  UNL     1       4.615  29.953  56.947  1.00  0.00     0.186 HD
HETATM   26  C15 UNL     1       6.605  28.032  55.211  1.00  0.00     0.176 A 
HETATM   27  F3  UNL     1       6.541  27.066  54.271  1.00  0.00    -0.201 F 
HETATM   28  C16 UNL     1       7.809  28.474  55.715  1.00  0.00     0.152 A 
HETATM   29  N4  UNL     1       7.800  29.444  56.654  1.00  0.00    -0.199 N 
ATOM     30  H4  UNL     1       8.690  29.773  57.029  1.00  0.00     0.183 HD
BRANCH  24  31
HETATM   31  N3  UNL     1       4.211  28.114  55.139  1.00  0.00    -0.352 N 
HETATM   32  C9  UNL     1       3.245  27.315  55.898  1.00  0.00     0.131 C 
HETATM   33  C10 UNL     1       2.569  26.414  54.895  1.00  0.00     0.020 C 
HETATM   34  C11 UNL     1       1.140  26.096  55.270  1.00  0.00     0.013 C 
HETATM   35  C12 UNL     1       2.698  27.128  53.592  1.00  0.00     0.115 C 
HETATM   36 CL1  UNL     1       3.315  26.026  52.332  1.00  0.00    -0.122 Cl
HETATM   37  C13 UNL     1       3.652  28.290  53.824  1.00  0.00     0.169 C 
BRANCH  37  38
HETATM   38  C14 UNL     1       2.813  29.559  53.717  1.00  0.00     0.377 C 
HETATM   39  F1  UNL     1       2.764  30.221  54.927  1.00  0.00    -0.212 F 
HETATM   40  F2  UNL     1       1.513  29.151  53.443  1.00  0.00    -0.212 F 
ENDBRANCH  37  38
ENDBRANCH  24  31
ENDBRANCH   1  22
TORSDOF 9
ENDMDL
MODEL 3
REMARK VINA RESULT: -7.519295198      5.447      9.308
REMARK  9 active torsions:
REMARK  status: ('A' for Active; 'I' for Inactive)
REMARK    1  A    between atoms: C4_4  and  C5_5 
REMARK    2  A    between atoms: C5_5  and  N1_7 
REMARK    3  A    between atoms: N1_7  and  C7_9 
REMARK    4  A    between atoms: C8_12  and  N3_13 
REMARK    5  A    between atoms: C13_19  and  C14_20 
REMARK    6  A    between atoms: C17_29  and  C18_30 
REMARK    7  A    between atoms: C18_30  and  N5_31 
REMARK    8  A    between atoms: C21_34  and  O1_35 
REMARK    9  A    between atoms: C22_37  and  O2_38 
ROOT
HETATM    1  N1  UNL     1       6.025  30.331  57.170  1.00  0.00    -0.217 N 
ATOM      2  H1  UNL     1       5.400  31.131  57.270  1.00  0.00     0.178 HD
ENDROOT
BRANCH   1   3
HETATM    3  C5  UNL     1       7.142  30.199  58.049  1.00  0.00     0.135 C 
HETATM    4  C6  UNL     1       6.862  29.091  59.038  1.00  0.00     0.038 C 
BRANCH   3   5
HETATM    5  C4  UNL     1       7.299  31.498  58.808  1.00  0.00     0.006 A 
HETATM    6  C3  UNL     1       8.471  32.118  59.154  1.00  0.00     0.024 A 
HETATM    7  C2  UNL     1       8.382  33.274  59.833  1.00  0.00    -0.046 A 
HETATM    8  C1  UNL     1       9.602  34.071  60.282  1.00  0.00     0.049 C 
HETATM    9  C17 UNL     1       7.125  33.730  60.120  1.00  0.00     0.017 A 
HETATM   10  S1  UNL     1       6.114  32.541  59.439  1.00  0.00    -0.095 SA
BRANCH   9  11
HETATM   11  C18 UNL     1       6.786  35.000  60.856  1.00  0.00     0.319 C 
BRANCH  11  12
HETATM   12  N5  UNL     1       6.644  34.726  62.282  1.00  0.00     0.095 N 
HETATM   13  C19 UNL     1       5.263  34.352  62.468  1.00  0.00     0.275 C 
HETATM   14  C20 UNL     1       4.769  34.396  63.865  1.00  0.00     0.064 C 
HETATM   15  C21 UNL     1       5.505  35.309  64.792  1.00  0.00     0.150 C 
HETATM   16  C22 UNL     1       6.050  36.440  63.947  1.00  0.00     0.175 C 
HETATM   17  C23 UNL     1       7.091  35.850  63.020  1.00  0.00     0.306 C 
BRANCH  15  18
HETATM   18  O1  UNL     1       6.568  34.652  65.414  1.00  0.00    -0.393 OA
ATOM     19  H1  UNL     1       6.624  34.881  66.334  1.00  0.00     0.210 HD
ENDBRANCH  15  18
BRANCH  16  20
HETATM   20  O2  UNL     1       5.020  36.971  63.196  1.00  0.00    -0.391 OA
ATOM     21  H2  UNL     1       4.211  36.533  63.435  1.00  0.00     0.210 HD
ENDBRANCH  16  20
ENDBRANCH  11  12
ENDBRANCH   9  11
ENDBRANCH   3   5
ENDBRANCH   1   3
BRANCH   1  22
HETATM   22  C7  UNL     1       5.792  29.454  56.253  1.00  0.00     0.680 A 
HETATM   23  N2  UNL     1       4.552  29.035  55.942  1.00  0.00    -0.174 N 
HETATM   24  C8  UNL     1       4.305  28.114  54.979  1.00  0.00     0.160 A 
ATOM     25  H2  UNL     1       3.763  29.429  56.453  1.00  0.00     0.186 HD
HETATM   26  C15 UNL     1       5.376  27.587  54.293  1.00  0.00     0.176 A 
HETATM   27  F3  UNL     1       5.129  26.669  53.335  1.00  0.00    -0.201 F 
HETATM   28  C16 UNL     1       6.658  27.996  54.591  1.00  0.00     0.152 A 
HETATM   29  N4  UNL     1       6.833  28.918  55.561  1.00  0.00    -0.199 N 
ATOM     30  H4  UNL     1       7.781  29.223  55.784  1.00  0.00     0.183 HD
BRANCH  24  31
HETATM   31  N3  UNL     1       3.010  27.685  54.662  1.00  0.00    -0.352 N 
HETATM   32  C9  UNL     1       2.250  28.170  53.506  1.00  0.00     0.131 C 
HETATM   33  C10 UNL     1       0.799  28.133  53.918  1.00  0.00     0.020 C 
HETATM   34  C11 UNL     1      -0.128  27.866  52.755  1.00  0.00     0.013 C 
HETATM   35  C12 UNL     1       0.731  27.092  54.985  1.00  0.00     0.115 C 
HETATM   36 CL1  UNL     1      -0.150  27.712  56.408  1.00  0.00    -0.122 Cl
HETATM   37  C13 UNL     1       2.167  26.734  55.338  1.00  0.00     0.169 C 
BRANCH  37  38
HETATM   38  C14 UNL     1       2.385  25.309  54.841  1.00  0.00     0.377 C 
HETATM   39  F1  UNL     1       1.319  24.886  54.073  1.00  0.00    -0.212 F 
HETATM   40  F2  UNL     1       2.400  24.497  55.968  1.00  0.00    -0.212 F 
ENDBRANCH  37  38
ENDBRANCH  24  31
ENDBRANCH   1  22
TORSDOF 9
ENDMDL
MODEL 4
REMARK VINA RESULT: -7.498579106      5.493      7.947
REMARK  9 active torsions:
REMARK  status: ('A' for Active; 'I' for Inactive)
REMARK    1  A    between atoms: C4_4  and  C5_5 
REMARK    2  A    between atoms: C5_5  and  N1_7 
REMARK    3  A    between atoms: N1_7  and  C7_9 
REMARK    4  A    between atoms: C8_12  and  N3_13 
REMARK    5  A    between atoms: C13_19  and  C14_20 
REMARK    6  A    between atoms: C17_29  and  C18_30 
REMARK    7  A    between atoms: C18_30  and  N5_31 
REMARK    8  A    between atoms: C21_34  and  O1_35 
REMARK    9  A    between atoms: C22_37  and  O2_38 
ROOT
HETATM    1  N1  UNL     1       7.411  28.965  55.585  1.00  0.00    -0.217 N 
ATOM      2  H1  UNL     1       8.081  29.471  55.005  1.00  0.00     0.178 HD
ENDROOT
BRANCH   1   3
HETATM    3  C5  UNL     1       6.712  27.847  55.037  1.00  0.00     0.135 C 
HETATM    4  C6  UNL     1       7.390  27.422  53.755  1.00  0.00     0.038 C 
BRANCH   3   5
HETATM    5  C4  UNL     1       5.300  28.287  54.717  1.00  0.00     0.006 A 
HETATM    6  C3  UNL     1       4.737  29.509  54.974  1.00  0.00     0.024 A 
HETATM    7  C2  UNL     1       3.457  29.690  54.605  1.00  0.00    -0.046 A 
HETATM    8  C1  UNL     1       2.704  30.996  54.829  1.00  0.00     0.049 C 
HETATM    9  C17 UNL     1       2.830  28.634  54.005  1.00  0.00     0.017 A 
HETATM   10  S1  UNL     1       4.034  27.430  53.975  1.00  0.00    -0.095 SA
BRANCH   9  11
HETATM   11  C18 UNL     1       1.410  28.612  53.501  1.00  0.00     0.319 C 
BRANCH  11  12
HETATM   12  N5  UNL     1       0.994  27.237  53.246  1.00  0.00     0.095 N 
HETATM   13  C19 UNL     1      -0.245  27.338  52.514  1.00  0.00     0.275 C 
HETATM   14  C20 UNL     1      -1.065  26.104  52.467  1.00  0.00     0.064 C 
HETATM   15  C21 UNL     1      -0.843  25.128  53.577  1.00  0.00     0.150 C 
HETATM   16  C22 UNL     1      -0.415  25.932  54.786  1.00  0.00     0.175 C 
HETATM   17  C23 UNL     1       0.939  26.531  54.473  1.00  0.00     0.306 C 
BRANCH  15  18
HETATM   18  O1  UNL     1       0.165  24.215  53.257  1.00  0.00    -0.393 OA
ATOM     19  H1  UNL     1       0.830  24.184  53.934  1.00  0.00     0.210 HD
ENDBRANCH  15  18
BRANCH  16  20
HETATM   20  O2  UNL     1      -1.328  26.949  54.988  1.00  0.00    -0.391 OA
ATOM     21  H2  UNL     1      -1.781  27.119  54.171  1.00  0.00     0.210 HD
ENDBRANCH  16  20
ENDBRANCH  11  12
ENDBRANCH   9  11
ENDBRANCH   3   5
ENDBRANCH   1   3
BRANCH   1  22
HETATM   22  C7  UNL     1       7.209  29.345  56.801  1.00  0.00     0.680 A 
HETATM   23  N2  UNL     1       7.406  30.611  57.212  1.00  0.00    -0.174 N 
HETATM   24  C8  UNL     1       7.194  31.014  58.488  1.00  0.00     0.160 A 
ATOM     25  H2  UNL     1       7.730  31.299  56.531  1.00  0.00     0.186 HD
HETATM   26  C15 UNL     1       6.759  30.079  59.401  1.00  0.00     0.176 A 
HETATM   27  F3  UNL     1       6.550  30.481  60.672  1.00  0.00    -0.201 F 
HETATM   28  C16 UNL     1       6.549  28.774  59.009  1.00  0.00     0.152 A 
HETATM   29  N4  UNL     1       6.779  28.441  57.721  1.00  0.00    -0.199 N 
ATOM     30  H4  UNL     1       6.624  27.476  57.428  1.00  0.00     0.183 HD
BRANCH  24  31
HETATM   31  N3  UNL     1       7.402  32.334  58.906  1.00  0.00    -0.352 N 
HETATM   32  C9  UNL     1       8.672  32.828  59.447  1.00  0.00     0.131 C 
HETATM   33  C10 UNL     1       8.310  33.907  60.438  1.00  0.00     0.020 C 
HETATM   34  C11 UNL     1       9.362  34.988  60.529  1.00  0.00     0.013 C 
HETATM   35  C12 UNL     1       6.979  34.408  59.987  1.00  0.00     0.115 C 
HETATM   36 CL1  UNL     1       5.839  34.474  61.358  1.00  0.00    -0.122 Cl
HETATM   37  C13 UNL     1       6.493  33.450  58.911  1.00  0.00     0.169 C 
BRANCH  37  38
HETATM   38  C14 UNL     1       6.525  34.228  57.600  1.00  0.00     0.377 C 
HETATM   39  F1  UNL     1       5.307  34.155  56.954  1.00  0.00    -0.212 F 
HETATM   40  F2  UNL     1       7.441  33.581  56.779  1.00  0.00    -0.212 F 
ENDBRANCH  37  38
ENDBRANCH  24  31
ENDBRANCH   1  22
TORSDOF 9
ENDMDL
MODEL 5
REMARK VINA RESULT: -7.474382658      5.016      7.812
REMARK  9 active torsions:
REMARK  status: ('A' for Active; 'I' for Inactive)
REMARK    1  A    between atoms: C4_4  and  C5_5 
REMARK    2  A    between atoms: C5_5  and  N1_7 
REMARK    3  A    between atoms: N1_7  and  C7_9 
REMARK    4  A    between atoms: C8_12  and  N3_13 
REMARK    5  A    between atoms: C13_19  and  C14_20 
REMARK    6  A    between atoms: C17_29  and  C18_30 
REMARK    7  A    between atoms: C18_30  and  N5_31 
REMARK    8  A    between atoms: C21_34  and  O1_35 
REMARK    9  A    between atoms: C22_37  and  O2_38 
ROOT
HETATM    1  N1  UNL     1       5.656  27.729  60.889  1.00  0.00    -0.217 N 
ATOM      2  H1  UNL     1       6.212  27.108  61.477  1.00  0.00     0.178 HD
ENDROOT
BRANCH   1   3
HETATM    3  C5  UNL     1       4.256  27.864  61.138  1.00  0.00     0.135 C 
HETATM    4  C6  UNL     1       3.916  27.165  62.433  1.00  0.00     0.038 C 
BRANCH   3   5
HETATM    5  C4  UNL     1       3.511  27.185  60.009  1.00  0.00     0.006 A 
HETATM    6  C3  UNL     1       3.422  25.839  59.770  1.00  0.00     0.024 A 
HETATM    7  C2  UNL     1       2.705  25.446  58.703  1.00  0.00    -0.046 A 
HETATM    8  C1  UNL     1       2.521  23.983  58.317  1.00  0.00     0.049 C 
HETATM    9  C17 UNL     1       2.128  26.429  57.949  1.00  0.00     0.017 A 
HETATM   10  S1  UNL     1       2.599  27.860  58.744  1.00  0.00    -0.095 SA
BRANCH   9  11
HETATM   11  C18 UNL     1       1.275  26.225  56.723  1.00  0.00     0.319 C 
BRANCH  11  12
HETATM   12  N5  UNL     1       1.826  26.981  55.603  1.00  0.00     0.095 N 
HETATM   13  C19 UNL     1       0.707  27.253  54.734  1.00  0.00     0.275 C 
HETATM   14  C20 UNL     1       1.054  27.667  53.352  1.00  0.00     0.064 C 
HETATM   15  C21 UNL     1       2.394  27.231  52.855  1.00  0.00     0.150 C 
HETATM   16  C22 UNL     1       2.721  25.933  53.562  1.00  0.00     0.175 C 
HETATM   17  C23 UNL     1       2.898  26.252  55.031  1.00  0.00     0.306 C 
BRANCH  15  18
HETATM   18  O1  UNL     1       3.379  28.175  53.157  1.00  0.00    -0.393 OA
ATOM     19  H1  UNL     1       4.120  27.772  53.593  1.00  0.00     0.210 HD
ENDBRANCH  15  18
BRANCH  16  20
HETATM   20  O2  UNL     1       1.659  25.065  53.409  1.00  0.00    -0.391 OA
ATOM     21  H2  UNL     1       1.005  25.263  54.070  1.00  0.00     0.210 HD
ENDBRANCH  16  20
ENDBRANCH  11  12
ENDBRANCH   9  11
ENDBRANCH   3   5
ENDBRANCH   1   3
BRANCH   1  22
HETATM   22  C7  UNL     1       6.228  28.379  59.933  1.00  0.00     0.680 A 
HETATM   23  N2  UNL     1       6.486  29.698  60.000  1.00  0.00    -0.174 N 
HETATM   24  C8  UNL     1       7.087  30.383  58.998  1.00  0.00     0.160 A 
ATOM     25  H2  UNL     1       6.217  30.204  60.844  1.00  0.00     0.186 HD
HETATM   26  C15 UNL     1       7.446  29.693  57.862  1.00  0.00     0.176 A 
HETATM   27  F3  UNL     1       8.044  30.377  56.863  1.00  0.00    -0.201 F 
HETATM   28  C16 UNL     1       7.194  28.341  57.764  1.00  0.00     0.152 A 
HETATM   29  N4  UNL     1       6.592  27.720  58.801  1.00  0.00    -0.199 N 
ATOM     30  H4  UNL     1       6.404  26.720  58.731  1.00  0.00     0.183 HD
BRANCH  24  31
HETATM   31  N3  UNL     1       7.352  31.756  59.077  1.00  0.00    -0.352 N 
HETATM   32  C9  UNL     1       8.614  32.317  59.570  1.00  0.00     0.131 C 
HETATM   33  C10 UNL     1       8.260  33.632  60.218  1.00  0.00     0.020 C 
HETATM   34  C11 UNL     1       9.370  34.651  60.110  1.00  0.00     0.013 C 
HETATM   35  C12 UNL     1       6.994  34.058  59.553  1.00  0.00     0.115 C 
HETATM   36 CL1  UNL     1       5.776  34.530  60.768  1.00  0.00    -0.122 Cl
HETATM   37  C13 UNL     1       6.517  32.874  58.724  1.00  0.00     0.169 C 
BRANCH  37  38
HETATM   38  C14 UNL     1       6.681  33.282  57.264  1.00  0.00     0.377 C 
HETATM   39  F1  UNL     1       7.287  34.518  57.162  1.00  0.00    -0.212 F 
HETATM   40  F2  UNL     1       5.398  33.432  56.751  1.00  0.00    -0.212 F 
ENDBRANCH  37  38
ENDBRANCH  24  31
ENDBRANCH   1  22
TORSDOF 9
ENDMDL
