MODEL 1
REMARK VINA RESULT: -6.042962937      0.000      0.000
REMARK  10 active torsions:
REMARK  status: ('A' for Active; 'I' for Inactive)
REMARK    1  A    between atoms: N1_1  and  C1_4 
REMARK    2  A    between atoms: C1_4  and  S1_6 
REMARK    3  A    between atoms: S1_6  and  N3_9 
REMARK    4  A    between atoms: N3_9  and  N4_10 
REMARK    5  A    between atoms: N3_9  and  C5_22 
REMARK    6  A    between atoms: N4_10  and  N5_12 
REMARK    7  A    between atoms: N5_12  and  C2_14 
REMARK    8  A    between atoms: C3_17  and  O3_18 
REMARK    9  A    between atoms: C5_22  and  O4_23 
REMARK   10  A    between atoms: C5_22  and  N7_25 
ROOT
HETATM    1  N3  UNL     1      37.850   1.747  13.836  1.00  0.00    -0.149 N 
ENDROOT
BRANCH   1   2
HETATM    2  S1  UNL     1      36.729   2.974  13.471  1.00  0.00     0.312 S 
HETATM    3  O1  UNL     1      35.323   2.603  13.893  1.00  0.00    -0.196 OA
HETATM    4  O2  UNL     1      36.641   3.228  11.973  1.00  0.00    -0.196 OA
BRANCH   2   5
HETATM    5  C1  UNL     1      37.117   4.497  14.240  1.00  0.00     0.228 C 
HETATM    6  N2  UNL     1      38.468   4.903  14.240  1.00  0.00    -0.068 NA
BRANCH   5   7
HETATM    7  N1  UNL     1      36.233   5.240  14.792  1.00  0.00    -0.377 N 
ATOM      8  H12 UNL     1      36.469   5.986  15.447  1.00  0.00     0.158 HD
ATOM      9  H11 UNL     1      35.247   5.094  14.579  1.00  0.00     0.158 HD
ENDBRANCH   5   7
ENDBRANCH   2   5
ENDBRANCH   1   2
BRANCH   1  10
HETATM   10  N4  UNL     1      39.031   2.069  14.502  1.00  0.00    -0.225 N 
ATOM     11  H4  UNL     1      39.024   2.517  15.418  1.00  0.00     0.209 HD
BRANCH  10  12
HETATM   12  N5  UNL     1      40.126   1.774  13.908  1.00  0.00    -0.264 N 
ATOM     13  H5  UNL     1      40.630   0.914  14.127  1.00  0.00     0.190 HD
BRANCH  12  14
HETATM   14  C2  UNL     1      40.626   2.700  12.916  1.00  0.00     0.166 A 
HETATM   15  N6  UNL     1      39.901   3.373  12.035  1.00  0.00    -0.316 N 
HETATM   16  C3  UNL     1      40.479   4.173  11.199  1.00  0.00     0.148 A 
ATOM     17  H6  UNL     1      38.888   3.261  12.016  1.00  0.00     0.170 HD
HETATM   18  C4  UNL     1      41.845   4.288  11.268  1.00  0.00     0.109 A 
HETATM   19  S2  UNL     1      42.211   3.218  12.553  1.00  0.00    -0.060 SA
BRANCH  16  20
HETATM   20  O3  UNL     1      39.743   4.916  10.238  1.00  0.00    -0.346 OA
ATOM     21  H3  UNL     1      38.965   5.408  10.471  1.00  0.00     0.219 HD
ENDBRANCH  16  20
ENDBRANCH  12  14
ENDBRANCH  10  12
ENDBRANCH   1  10
BRANCH   1  22
HETATM   22  C5  UNL     1      37.580   0.386  13.460  1.00  0.00     0.365 C 
BRANCH  22  23
HETATM   23  O4  UNL     1      37.702  -0.493  14.557  1.00  0.00    -0.358 OA
ATOM     24  H4  UNL     1      37.394  -1.366  14.344  1.00  0.00     0.214 HD
ENDBRANCH  22  23
BRANCH  22  25
HETATM   25  N7  UNL     1      36.304   0.212  12.800  1.00  0.00    -0.316 N 
HETATM   26  C6  UNL     1      36.048  -0.911  12.236  1.00  0.00     0.191 C 
HETATM   27  N8  UNL     1      36.915  -2.054  12.183  1.00  0.00    -0.346 N 
HETATM   28  N10 UNL     1      34.872  -1.304  11.534  1.00  0.00    -0.274 N 
HETATM   29  C7  UNL     1      36.308  -3.048  11.329  1.00  0.00     0.259 C 
ATOM     30  H8  UNL     1      37.808  -2.149  12.667  1.00  0.00     0.163 HD
HETATM   31  N9  UNL     1      34.978  -2.605  11.043  1.00  0.00    -0.119 NA
ATOM     32  H10 UNL     1      34.054  -0.708  11.407  1.00  0.00     0.185 HD
ATOM     33  H7  UNL     1      35.621   0.969  12.784  1.00  0.00     0.167 HD
ENDBRANCH  22  25
ENDBRANCH   1  22
TORSDOF 10
ENDMDL
MODEL 2
REMARK VINA RESULT: -5.935600479      2.114      2.339
REMARK  10 active torsions:
REMARK  status: ('A' for Active; 'I' for Inactive)
REMARK    1  A    between atoms: N1_1  and  C1_4 
REMARK    2  A    between atoms: C1_4  and  S1_6 
REMARK    3  A    between atoms: S1_6  and  N3_9 
REMARK    4  A    between atoms: N3_9  and  N4_10 
REMARK    5  A    between atoms: N3_9  and  C5_22 
REMARK    6  A    between atoms: N4_10  and  N5_12 
REMARK    7  A    between atoms: N5_12  and  C2_14 
REMARK    8  A    between atoms: C3_17  and  O3_18 
REMARK    9  A    between atoms: C5_22  and  O4_23 
REMARK   10  A    between atoms: C5_22  and  N7_25 
ROOT
HETATM    1  N3  UNL     1      37.959   1.454  13.444  1.00  0.00    -0.149 N 
ENDROOT
BRANCH   1   2
HETATM    2  S1  UNL     1      36.833   2.728  13.389  1.00  0.00     0.312 S 
HETATM    3  O1  UNL     1      35.484   2.319  13.943  1.00  0.00    -0.196 OA
HETATM    4  O2  UNL     1      36.558   3.173  11.959  1.00  0.00    -0.196 OA
BRANCH   2   5
HETATM    5  C1  UNL     1      37.357   4.136  14.285  1.00  0.00     0.228 C 
HETATM    6  N2  UNL     1      38.402   3.965  15.216  1.00  0.00    -0.068 NA
BRANCH   5   7
HETATM    7  N1  UNL     1      36.833   5.293  14.129  1.00  0.00    -0.377 N 
ATOM      8  H12 UNL     1      35.841   5.477  14.283  1.00  0.00     0.158 HD
ATOM      9  H11 UNL     1      37.417   6.076  13.837  1.00  0.00     0.158 HD
ENDBRANCH   5   7
ENDBRANCH   2   5
ENDBRANCH   1   2
BRANCH   1  10
HETATM   10  N4  UNL     1      39.318   1.740  13.569  1.00  0.00    -0.225 N 
ATOM     11  H4  UNL     1      39.680   2.685  13.439  1.00  0.00     0.209 HD
BRANCH  10  12
HETATM   12  N5  UNL     1      40.089   0.759  13.857  1.00  0.00    -0.264 N 
ATOM     13  H5  UNL     1      40.092   0.346  14.790  1.00  0.00     0.190 HD
BRANCH  12  14
HETATM   14  C2  UNL     1      40.955   0.255  12.814  1.00  0.00     0.166 A 
HETATM   15  N6  UNL     1      40.571  -0.294  11.672  1.00  0.00    -0.316 N 
HETATM   16  C3  UNL     1      41.455  -0.706  10.823  1.00  0.00     0.148 A 
ATOM     17  H6  UNL     1      39.578  -0.392  11.461  1.00  0.00     0.170 HD
HETATM   18  C4  UNL     1      42.779  -0.549  11.155  1.00  0.00     0.109 A 
HETATM   19  S2  UNL     1      42.656   0.192  12.693  1.00  0.00    -0.060 SA
BRANCH  16  20
HETATM   20  O3  UNL     1      41.091  -1.300   9.585  1.00  0.00    -0.346 OA
ATOM     21  H3  UNL     1      40.293  -1.805   9.486  1.00  0.00     0.219 HD
ENDBRANCH  16  20
ENDBRANCH  12  14
ENDBRANCH  10  12
ENDBRANCH   1  10
BRANCH   1  22
HETATM   22  C5  UNL     1      37.513   0.090  13.363  1.00  0.00     0.365 C 
BRANCH  22  23
HETATM   23  O4  UNL     1      37.435  -0.512  14.637  1.00  0.00    -0.358 OA
ATOM     24  H4  UNL     1      36.973  -1.341  14.607  1.00  0.00     0.214 HD
ENDBRANCH  22  23
BRANCH  22  25
HETATM   25  N7  UNL     1      36.268  -0.067  12.642  1.00  0.00    -0.316 N 
HETATM   26  C6  UNL     1      35.985  -1.213  12.140  1.00  0.00     0.191 C 
HETATM   27  N8  UNL     1      36.792  -2.399  12.216  1.00  0.00    -0.346 N 
HETATM   28  N10 UNL     1      34.831  -1.597  11.399  1.00  0.00    -0.274 N 
HETATM   29  C7  UNL     1      36.182  -3.419  11.396  1.00  0.00     0.259 C 
ATOM     30  H8  UNL     1      37.651  -2.503  12.757  1.00  0.00     0.163 HD
HETATM   31  N9  UNL     1      34.895  -2.933  11.003  1.00  0.00    -0.119 NA
ATOM     32  H10 UNL     1      34.053  -0.972  11.183  1.00  0.00     0.185 HD
ATOM     33  H7  UNL     1      35.627   0.719  12.535  1.00  0.00     0.167 HD
ENDBRANCH  22  25
ENDBRANCH   1  22
TORSDOF 10
ENDMDL
MODEL 3
REMARK VINA RESULT: -5.929080725      2.541      4.225
REMARK  10 active torsions:
REMARK  status: ('A' for Active; 'I' for Inactive)
REMARK    1  A    between atoms: N1_1  and  C1_4 
REMARK    2  A    between atoms: C1_4  and  S1_6 
REMARK    3  A    between atoms: S1_6  and  N3_9 
REMARK    4  A    between atoms: N3_9  and  N4_10 
REMARK    5  A    between atoms: N3_9  and  C5_22 
REMARK    6  A    between atoms: N4_10  and  N5_12 
REMARK    7  A    between atoms: N5_12  and  C2_14 
REMARK    8  A    between atoms: C3_17  and  O3_18 
REMARK    9  A    between atoms: C5_22  and  O4_23 
REMARK   10  A    between atoms: C5_22  and  N7_25 
ROOT
HETATM    1  N3  UNL     1      37.654   2.651  13.414  1.00  0.00    -0.149 N 
ENDROOT
BRANCH   1   2
HETATM    2  S1  UNL     1      39.343   2.578  13.227  1.00  0.00     0.312 S 
HETATM    3  O1  UNL     1      39.816   1.184  12.872  1.00  0.00    -0.196 OA
HETATM    4  O2  UNL     1      40.067   2.926  14.520  1.00  0.00    -0.196 OA
BRANCH   2   5
HETATM    5  C1  UNL     1      39.936   3.659  11.985  1.00  0.00     0.228 C 
HETATM    6  N2  UNL     1      39.030   4.597  11.450  1.00  0.00    -0.068 NA
BRANCH   5   7
HETATM    7  N1  UNL     1      41.142   3.626  11.555  1.00  0.00    -0.377 N 
ATOM      8  H12 UNL     1      41.678   4.469  11.347  1.00  0.00     0.158 HD
ATOM      9  H11 UNL     1      41.600   2.727  11.408  1.00  0.00     0.158 HD
ENDBRANCH   5   7
ENDBRANCH   2   5
ENDBRANCH   1   2
BRANCH   1  10
HETATM   10  N4  UNL     1      37.036   3.885  13.610  1.00  0.00    -0.225 N 
ATOM     11  H4  UNL     1      36.165   4.128  13.140  1.00  0.00     0.209 HD
BRANCH  10  12
HETATM   12  N5  UNL     1      37.617   4.699  14.411  1.00  0.00    -0.264 N 
ATOM     13  H5  UNL     1      38.411   4.403  14.978  1.00  0.00     0.190 HD
BRANCH  12  14
HETATM   14  C2  UNL     1      37.108   6.051  14.484  1.00  0.00     0.166 A 
HETATM   15  N6  UNL     1      35.928   6.470  14.054  1.00  0.00    -0.316 N 
HETATM   16  C3  UNL     1      35.598   7.714  14.181  1.00  0.00     0.148 A 
ATOM     17  H6  UNL     1      35.279   5.812  13.623  1.00  0.00     0.170 HD
HETATM   18  C4  UNL     1      36.507   8.558  14.769  1.00  0.00     0.109 A 
HETATM   19  S2  UNL     1      37.798   7.484  15.104  1.00  0.00    -0.060 SA
BRANCH  16  20
HETATM   20  O3  UNL     1      34.343   8.208  13.736  1.00  0.00    -0.346 OA
ATOM     21  H3  UNL     1      33.985   9.029  14.053  1.00  0.00     0.219 HD
ENDBRANCH  16  20
ENDBRANCH  12  14
ENDBRANCH  10  12
ENDBRANCH   1  10
BRANCH   1  22
HETATM   22  C5  UNL     1      36.868   1.448  13.368  1.00  0.00     0.365 C 
BRANCH  22  23
HETATM   23  O4  UNL     1      35.527   1.686  13.737  1.00  0.00    -0.358 OA
ATOM     24  H4  UNL     1      35.303   1.249  14.550  1.00  0.00     0.214 HD
ENDBRANCH  22  23
BRANCH  22  25
HETATM   25  N7  UNL     1      36.939   0.762  12.096  1.00  0.00    -0.316 N 
HETATM   26  C6  UNL     1      36.586  -0.469  12.038  1.00  0.00     0.191 C 
HETATM   27  N8  UNL     1      36.112  -1.271  13.131  1.00  0.00    -0.346 N 
HETATM   28  N10 UNL     1      36.573  -1.337  10.908  1.00  0.00    -0.274 N 
HETATM   29  C7  UNL     1      35.971  -2.633  12.670  1.00  0.00     0.259 C 
ATOM     30  H8  UNL     1      35.910  -0.937  14.074  1.00  0.00     0.163 HD
HETATM   31  N9  UNL     1      36.141  -2.618  11.250  1.00  0.00    -0.119 NA
ATOM     32  H10 UNL     1      36.846  -1.056   9.966  1.00  0.00     0.185 HD
ATOM     33  H7  UNL     1      37.263   1.249  11.261  1.00  0.00     0.167 HD
ENDBRANCH  22  25
ENDBRANCH   1  22
TORSDOF 10
ENDMDL
MODEL 4
REMARK VINA RESULT: -5.851088696      2.586      4.641
REMARK  10 active torsions:
REMARK  status: ('A' for Active; 'I' for Inactive)
REMARK    1  A    between atoms: N1_1  and  C1_4 
REMARK    2  A    between atoms: C1_4  and  S1_6 
REMARK    3  A    between atoms: S1_6  and  N3_9 
REMARK    4  A    between atoms: N3_9  and  N4_10 
REMARK    5  A    between atoms: N3_9  and  C5_22 
REMARK    6  A    between atoms: N4_10  and  N5_12 
REMARK    7  A    between atoms: N5_12  and  C2_14 
REMARK    8  A    between atoms: C3_17  and  O3_18 
REMARK    9  A    between atoms: C5_22  and  O4_23 
REMARK   10  A    between atoms: C5_22  and  N7_25 
ROOT
HETATM    1  N3  UNL     1      37.891   0.899  13.049  1.00  0.00    -0.149 N 
ENDROOT
BRANCH   1   2
HETATM    2  S1  UNL     1      38.240   2.561  13.156  1.00  0.00     0.312 S 
HETATM    3  O1  UNL     1      38.006   3.102  14.551  1.00  0.00    -0.196 OA
HETATM    4  O2  UNL     1      37.334   3.385  12.252  1.00  0.00    -0.196 OA
BRANCH   2   5
HETATM    5  C1  UNL     1      39.894   2.935  12.725  1.00  0.00     0.228 C 
HETATM    6  N2  UNL     1      40.919   2.309  13.463  1.00  0.00    -0.068 NA
BRANCH   5   7
HETATM    7  N1  UNL     1      40.198   3.745  11.781  1.00  0.00    -0.377 N 
ATOM      8  H12 UNL     1      40.906   4.473  11.883  1.00  0.00     0.158 HD
ATOM      9  H11 UNL     1      39.722   3.673  10.882  1.00  0.00     0.158 HD
ENDBRANCH   5   7
ENDBRANCH   2   5
ENDBRANCH   1   2
BRANCH   1  10
HETATM   10  N4  UNL     1      38.919  -0.005  12.789  1.00  0.00    -0.225 N 
ATOM     11  H4  UNL     1      39.100  -0.353  11.848  1.00  0.00     0.209 HD
BRANCH  10  12
HETATM   12  N5  UNL     1      39.626  -0.378  13.790  1.00  0.00    -0.264 N 
ATOM     13  H5  UNL     1      40.517   0.071  14.003  1.00  0.00     0.190 HD
BRANCH  12  14
HETATM   14  C2  UNL     1      39.118  -1.456  14.610  1.00  0.00     0.166 A 
HETATM   15  N6  UNL     1      38.417  -1.330  15.726  1.00  0.00    -0.316 N 
HETATM   16  C3  UNL     1      38.023  -2.384  16.364  1.00  0.00     0.148 A 
ATOM     17  H6  UNL     1      38.187  -0.403  16.082  1.00  0.00     0.170 HD
HETATM   18  C4  UNL     1      38.359  -3.608  15.842  1.00  0.00     0.109 A 
HETATM   19  S2  UNL     1      39.233  -3.150  14.443  1.00  0.00    -0.060 SA
BRANCH  16  20
HETATM   20  O3  UNL     1      37.269  -2.298  17.564  1.00  0.00    -0.346 OA
ATOM     21  H3  UNL     1      36.499  -2.834  17.714  1.00  0.00     0.219 HD
ENDBRANCH  16  20
ENDBRANCH  12  14
ENDBRANCH  10  12
ENDBRANCH   1  10
BRANCH   1  22
HETATM   22  C5  UNL     1      36.543   0.430  13.228  1.00  0.00     0.365 C 
BRANCH  22  23
HETATM   23  O4  UNL     1      35.670   1.475  13.596  1.00  0.00    -0.358 OA
ATOM     24  H4  UNL     1      36.086   2.086  14.194  1.00  0.00     0.214 HD
ENDBRANCH  22  23
BRANCH  22  25
HETATM   25  N7  UNL     1      36.029  -0.292  12.084  1.00  0.00    -0.316 N 
HETATM   26  C6  UNL     1      35.701  -1.523  12.229  1.00  0.00     0.191 C 
HETATM   27  N8  UNL     1      35.789  -2.292  13.438  1.00  0.00    -0.346 N 
HETATM   28  N10 UNL     1      35.179  -2.423  11.254  1.00  0.00    -0.274 N 
HETATM   29  C7  UNL     1      35.465  -3.665  13.130  1.00  0.00     0.259 C 
ATOM     30  H8  UNL     1      36.039  -1.931  14.359  1.00  0.00     0.163 HD
HETATM   31  N9  UNL     1      34.964  -3.692  11.790  1.00  0.00    -0.119 NA
ATOM     32  H10 UNL     1      34.987  -2.170  10.285  1.00  0.00     0.185 HD
ATOM     33  H7  UNL     1      35.929   0.169  11.181  1.00  0.00     0.167 HD
ENDBRANCH  22  25
ENDBRANCH   1  22
TORSDOF 10
ENDMDL
MODEL 5
REMARK VINA RESULT: -5.847877569      3.108      5.920
REMARK  10 active torsions:
REMARK  status: ('A' for Active; 'I' for Inactive)
REMARK    1  A    between atoms: N1_1  and  C1_4 
REMARK    2  A    between atoms: C1_4  and  S1_6 
REMARK    3  A    between atoms: S1_6  and  N3_9 
REMARK    4  A    between atoms: N3_9  and  N4_10 
REMARK    5  A    between atoms: N3_9  and  C5_22 
REMARK    6  A    between atoms: N4_10  and  N5_12 
REMARK    7  A    between atoms: N5_12  and  C2_14 
REMARK    8  A    between atoms: C3_17  and  O3_18 
REMARK    9  A    between atoms: C5_22  and  O4_23 
REMARK   10  A    between atoms: C5_22  and  N7_25 
ROOT
HETATM    1  N3  UNL     1      37.843   0.710  13.123  1.00  0.00    -0.149 N 
ENDROOT
BRANCH   1   2
HETATM    2  S1  UNL     1      38.068   2.370  13.418  1.00  0.00     0.312 S 
HETATM    3  O1  UNL     1      38.746   3.066  12.257  1.00  0.00    -0.196 OA
HETATM    4  O2  UNL     1      38.979   2.610  14.614  1.00  0.00    -0.196 OA
BRANCH   2   5
HETATM    5  C1  UNL     1      36.566   3.214  13.724  1.00  0.00     0.228 C 
HETATM    6  N2  UNL     1      35.376   2.459  13.701  1.00  0.00    -0.068 NA
BRANCH   5   7
HETATM    7  N1  UNL     1      36.513   4.471  13.963  1.00  0.00    -0.377 N 
ATOM      8  H12 UNL     1      37.192   4.951  14.554  1.00  0.00     0.158 HD
ATOM      9  H11 UNL     1      35.767   5.031  13.551  1.00  0.00     0.158 HD
ENDBRANCH   5   7
ENDBRANCH   2   5
ENDBRANCH   1   2
BRANCH   1  10
HETATM   10  N4  UNL     1      36.691   0.077  13.590  1.00  0.00    -0.225 N 
ATOM     11  H4  UNL     1      36.504  -0.024  14.587  1.00  0.00     0.209 HD
BRANCH  10  12
HETATM   12  N5  UNL     1      35.881  -0.370  12.705  1.00  0.00    -0.264 N 
ATOM     13  H5  UNL     1      35.269   0.258  12.184  1.00  0.00     0.190 HD
BRANCH  12  14
HETATM   14  C2  UNL     1      35.863  -1.797  12.467  1.00  0.00     0.166 A 
HETATM   15  N6  UNL     1      35.825  -2.396  11.287  1.00  0.00    -0.316 N 
HETATM   16  C3  UNL     1      35.812  -3.687  11.217  1.00  0.00     0.148 A 
ATOM     17  H6  UNL     1      35.807  -1.839  10.433  1.00  0.00     0.170 HD
HETATM   18  C4  UNL     1      35.838  -4.389  12.396  1.00  0.00     0.109 A 
HETATM   19  S2  UNL     1      35.881  -3.120  13.545  1.00  0.00    -0.060 SA
BRANCH  16  20
HETATM   20  O3  UNL     1      35.772  -4.372   9.974  1.00  0.00    -0.346 OA
ATOM     21  H3  UNL     1      34.968  -4.739   9.627  1.00  0.00     0.219 HD
ENDBRANCH  16  20
ENDBRANCH  12  14
ENDBRANCH  10  12
ENDBRANCH   1  10
BRANCH   1  22
HETATM   22  C5  UNL     1      38.833  -0.037  12.396  1.00  0.00     0.365 C 
BRANCH  22  23
HETATM   23  O4  UNL     1      38.386  -0.375  11.101  1.00  0.00    -0.358 OA
ATOM     24  H4  UNL     1      37.875   0.325  10.711  1.00  0.00     0.214 HD
ENDBRANCH  22  23
BRANCH  22  25
HETATM   25  N7  UNL     1      40.123   0.617  12.342  1.00  0.00    -0.316 N 
HETATM   26  C6  UNL     1      41.106  -0.002  11.798  1.00  0.00     0.191 C 
HETATM   27  N8  UNL     1      41.070  -1.314  11.217  1.00  0.00    -0.346 N 
HETATM   28  N10 UNL     1      42.450   0.440  11.634  1.00  0.00    -0.274 N 
HETATM   29  C7  UNL     1      42.417  -1.690  10.856  1.00  0.00     0.259 C 
ATOM     30  H8  UNL     1      40.235  -1.885  11.081  1.00  0.00     0.163 HD
HETATM   31  N9  UNL     1      43.236  -0.528  11.009  1.00  0.00    -0.119 NA
ATOM     32  H10 UNL     1      42.796   1.351  11.936  1.00  0.00     0.185 HD
ATOM     33  H7  UNL     1      40.247   1.552  12.729  1.00  0.00     0.167 HD
ENDBRANCH  22  25
ENDBRANCH   1  22
TORSDOF 10
ENDMDL
