MODEL 1
REMARK VINA RESULT: -7.078719230      0.000      0.000
REMARK  6 active torsions:
REMARK  status: ('A' for Active; 'I' for Inactive)
REMARK    1  A    between atoms: C3_5  and  N2_6 
REMARK    2  A    between atoms: N6_17  and  C6_18 
REMARK    3  A    between atoms: C6_18  and  S1_19 
REMARK    4  A    between atoms: S1_19  and  C7_20 
REMARK    5  A    between atoms: C8_23  and  N8_24 
REMARK    6  A    between atoms: N9_27  and  C9_28 
ROOT
HETATM    1  C7  UNL     1      36.976   3.743  13.737  1.00  0.00     0.177 A 
HETATM    2  N7  UNL     1      38.189   4.307  13.624  1.00  0.00    -0.167 N 
ATOM      3  H7  UNL     1      39.054   3.829  13.372  1.00  0.00     0.186 HD
HETATM    4  C8  UNL     1      38.059   5.610  13.900  1.00  0.00     0.714 A 
HETATM    5  N9  UNL     1      36.771   5.867  14.187  1.00  0.00     0.094 N 
HETATM    6  N14 UNL     1      36.127   4.735  14.086  1.00  0.00    -0.243 N 
ATOM      7  H14 UNL     1      35.127   4.616  14.248  1.00  0.00     0.191 HD
ENDROOT
BRANCH   1   8
HETATM    8  S1  UNL     1      36.488   2.038  13.496  1.00  0.00    -0.070 SA
BRANCH   8   9
HETATM    9  C6  UNL     1      37.782   1.165  12.547  1.00  0.00     0.234 C 
BRANCH   9  10
HETATM   10  N6  UNL     1      37.312  -0.140  12.167  1.00  0.00    -0.250 N 
HETATM   11  C4  UNL     1      37.145  -1.199  12.976  1.00  0.00     0.170 A 
HETATM   12  N3  UNL     1      37.351  -1.359  14.300  1.00  0.00    -0.173 N 
HETATM   13  C5  UNL     1      36.676  -2.250  12.199  1.00  0.00     0.118 A 
HETATM   14  C3  UNL     1      37.101  -2.547  14.880  1.00  0.00     0.677 A 
ATOM     15  H3  UNL     1      37.695  -0.579  14.861  1.00  0.00     0.186 HD
HETATM   16  N1  UNL     1      36.642  -3.589  14.137  1.00  0.00    -0.194 N 
HETATM   17  C2  UNL     1      36.432  -3.452  12.828  1.00  0.00     0.054 A 
ATOM     18  H1  UNL     1      36.456  -4.486  14.586  1.00  0.00     0.184 HD
HETATM   19  C1  UNL     1      35.925  -4.568  11.959  1.00  0.00     0.071 C 
HETATM   20  N4  UNL     1      36.578  -1.782  10.950  1.00  0.00    -0.281 N 
HETATM   21  N5  UNL     1      36.960  -0.522  10.941  1.00  0.00    -0.238 N 
ATOM     22  H4  UNL     1      36.260  -2.313  10.139  1.00  0.00     0.188 HD
ATOM     23  H5  UNL     1      36.984   0.074  10.114  1.00  0.00     0.208 HD
BRANCH  14  24
HETATM   24  N2  UNL     1      37.304  -2.687  16.152  1.00  0.00    -0.234 N 
ATOM     25  H22 UNL     1      37.202  -3.609  16.575  1.00  0.00     0.174 HD
ATOM     26  H21 UNL     1      37.562  -1.883  16.725  1.00  0.00     0.174 HD
ENDBRANCH  14  24
ENDBRANCH   9  10
ENDBRANCH   8   9
ENDBRANCH   1   8
BRANCH   4  27
HETATM   27  N8  UNL     1      38.995   6.521  13.905  1.00  0.00    -0.232 N 
ATOM     28  H82 UNL     1      39.102   7.223  13.173  1.00  0.00     0.174 HD
ATOM     29  H81 UNL     1      39.722   6.662  14.606  1.00  0.00     0.174 HD
ENDBRANCH   4  27
BRANCH   5  30
HETATM   30  C9  UNL     1      36.202   7.120  14.535  1.00  0.00     0.750 A 
HETATM   31  N10 UNL     1      35.267   7.823  13.873  1.00  0.00    -0.113 N 
HETATM   32  N11 UNL     1      34.991   8.947  14.511  1.00  0.00    -0.213 N 
ATOM     33  H10 UNL     1      34.830   7.530  12.999  1.00  0.00     0.207 HD
HETATM   34  N12 UNL     1      35.753   8.966  15.588  1.00  0.00    -0.213 N 
ATOM     35  H11 UNL     1      34.321   9.662  14.226  1.00  0.00     0.210 HD
HETATM   36  N13 UNL     1      36.494   7.875  15.629  1.00  0.00    -0.113 N 
ATOM     37  H12 UNL     1      35.766   9.711  16.284  1.00  0.00     0.210 HD
ATOM     38  H13 UNL     1      37.169   7.638  16.355  1.00  0.00     0.207 HD
ENDBRANCH   5  30
TORSDOF 6
ENDMDL
MODEL 2
REMARK VINA RESULT: -6.846441718      5.007      7.237
REMARK  6 active torsions:
REMARK  status: ('A' for Active; 'I' for Inactive)
REMARK    1  A    between atoms: C3_5  and  N2_6 
REMARK    2  A    between atoms: N6_17  and  C6_18 
REMARK    3  A    between atoms: C6_18  and  S1_19 
REMARK    4  A    between atoms: S1_19  and  C7_20 
REMARK    5  A    between atoms: C8_23  and  N8_24 
REMARK    6  A    between atoms: N9_27  and  C9_28 
ROOT
HETATM    1  C7  UNL     1      39.098   4.343  15.748  1.00  0.00     0.177 A 
HETATM    2  N7  UNL     1      39.050   3.507  14.700  1.00  0.00    -0.167 N 
ATOM      3  H7  UNL     1      39.713   2.759  14.496  1.00  0.00     0.186 HD
HETATM    4  C8  UNL     1      37.978   3.832  13.969  1.00  0.00     0.714 A 
HETATM    5  N9  UNL     1      37.352   4.869  14.554  1.00  0.00     0.094 N 
HETATM    6  N14 UNL     1      38.036   5.169  15.626  1.00  0.00    -0.243 N 
ATOM      7  H14 UNL     1      37.802   5.919  16.276  1.00  0.00     0.191 HD
ENDROOT
BRANCH   1   8
HETATM    8  S1  UNL     1      40.286   4.424  17.085  1.00  0.00    -0.070 SA
BRANCH   8   9
HETATM    9  C6  UNL     1      39.747   3.329  18.443  1.00  0.00     0.234 C 
BRANCH   9  10
HETATM   10  N6  UNL     1      38.792   4.013  19.272  1.00  0.00    -0.250 N 
HETATM   11  C4  UNL     1      37.945   3.452  20.152  1.00  0.00     0.170 A 
HETATM   12  N3  UNL     1      37.740   2.166  20.506  1.00  0.00    -0.173 N 
HETATM   13  C5  UNL     1      37.207   4.475  20.733  1.00  0.00     0.118 A 
HETATM   14  C3  UNL     1      36.812   1.864  21.430  1.00  0.00     0.677 A 
ATOM     15  H3  UNL     1      38.289   1.423  20.072  1.00  0.00     0.186 HD
HETATM   16  N1  UNL     1      36.077   2.851  22.012  1.00  0.00    -0.194 N 
HETATM   17  C2  UNL     1      36.265   4.126  21.677  1.00  0.00     0.054 A 
ATOM     18  H1  UNL     1      35.375   2.610  22.712  1.00  0.00     0.184 HD
HETATM   19  C1  UNL     1      35.484   5.256  22.287  1.00  0.00     0.071 C 
HETATM   20  N4  UNL     1      37.639   5.614  20.181  1.00  0.00    -0.281 N 
HETATM   21  N5  UNL     1      38.584   5.328  19.311  1.00  0.00    -0.238 N 
ATOM     22  H4  UNL     1      37.293   6.548  20.398  1.00  0.00     0.188 HD
ATOM     23  H5  UNL     1      39.085   6.015  18.747  1.00  0.00     0.208 HD
BRANCH  14  24
HETATM   24  N2  UNL     1      36.625   0.626  21.761  1.00  0.00    -0.234 N 
ATOM     25  H22 UNL     1      37.336   0.143  22.310  1.00  0.00     0.174 HD
ATOM     26  H21 UNL     1      35.776   0.137  21.475  1.00  0.00     0.174 HD
ENDBRANCH  14  24
ENDBRANCH   9  10
ENDBRANCH   8   9
ENDBRANCH   1   8
BRANCH   4  27
HETATM   27  N8  UNL     1      37.565   3.270  12.866  1.00  0.00    -0.232 N 
ATOM     28  H82 UNL     1      37.282   3.794  12.037  1.00  0.00     0.174 HD
ATOM     29  H81 UNL     1      37.467   2.273  12.674  1.00  0.00     0.174 HD
ENDBRANCH   4  27
BRANCH   5  30
HETATM   30  C9  UNL     1      36.174   5.523  14.107  1.00  0.00     0.750 A 
HETATM   31  N10 UNL     1      34.984   4.979  13.798  1.00  0.00    -0.113 N 
HETATM   32  N11 UNL     1      34.129   5.914  13.420  1.00  0.00    -0.213 N 
ATOM     33  H10 UNL     1      34.770   3.984  13.848  1.00  0.00     0.207 HD
HETATM   34  N12 UNL     1      34.773   7.063  13.487  1.00  0.00    -0.213 N 
ATOM     35  H11 UNL     1      33.160   5.773  13.132  1.00  0.00     0.210 HD
HETATM   36  N13 UNL     1      36.010   6.858  13.899  1.00  0.00    -0.113 N 
ATOM     37  H12 UNL     1      34.375   7.973  13.255  1.00  0.00     0.210 HD
ATOM     38  H13 UNL     1      36.720   7.576  14.038  1.00  0.00     0.207 HD
ENDBRANCH   5  30
TORSDOF 6
ENDMDL
MODEL 3
REMARK VINA RESULT: -6.789191240      4.794      7.412
REMARK  6 active torsions:
REMARK  status: ('A' for Active; 'I' for Inactive)
REMARK    1  A    between atoms: C3_5  and  N2_6 
REMARK    2  A    between atoms: N6_17  and  C6_18 
REMARK    3  A    between atoms: C6_18  and  S1_19 
REMARK    4  A    between atoms: S1_19  and  C7_20 
REMARK    5  A    between atoms: C8_23  and  N8_24 
REMARK    6  A    between atoms: N9_27  and  C9_28 
ROOT
HETATM    1  C7  UNL     1      38.981   3.986  15.533  1.00  0.00     0.177 A 
HETATM    2  N7  UNL     1      38.754   3.118  14.535  1.00  0.00    -0.167 N 
ATOM      3  H7  UNL     1      39.299   2.281  14.329  1.00  0.00     0.186 HD
HETATM    4  C8  UNL     1      37.683   3.549  13.858  1.00  0.00     0.714 A 
HETATM    5  N9  UNL     1      37.237   4.683  14.426  1.00  0.00     0.094 N 
HETATM    6  N14 UNL     1      38.027   4.938  15.435  1.00  0.00    -0.243 N 
ATOM      7  H14 UNL     1      37.937   5.740  16.059  1.00  0.00     0.191 HD
ENDROOT
BRANCH   1   8
HETATM    8  S1  UNL     1      40.260   3.968  16.786  1.00  0.00    -0.070 SA
BRANCH   8   9
HETATM    9  C6  UNL     1      39.715   4.956  18.222  1.00  0.00     0.234 C 
BRANCH   9  10
HETATM   10  N6  UNL     1      38.943   4.135  19.115  1.00  0.00    -0.250 N 
HETATM   11  C4  UNL     1      37.919   4.532  19.888  1.00  0.00     0.170 A 
HETATM   12  N3  UNL     1      37.338   5.739  20.057  1.00  0.00    -0.173 N 
HETATM   13  C5  UNL     1      37.464   3.421  20.586  1.00  0.00     0.118 A 
HETATM   14  C3  UNL     1      36.307   5.873  20.910  1.00  0.00     0.677 A 
ATOM     15  H3  UNL     1      37.680   6.548  19.539  1.00  0.00     0.186 HD
HETATM   16  N1  UNL     1      35.846   4.797  21.604  1.00  0.00    -0.194 N 
HETATM   17  C2  UNL     1      36.405   3.598  21.450  1.00  0.00     0.054 A 
ATOM     18  H1  UNL     1      35.063   4.911  22.249  1.00  0.00     0.184 HD
HETATM   19  C1  UNL     1      35.937   2.377  22.189  1.00  0.00     0.071 C 
HETATM   20  N4  UNL     1      38.232   2.395  20.205  1.00  0.00    -0.281 N 
HETATM   21  N5  UNL     1      39.112   2.831  19.327  1.00  0.00    -0.238 N 
ATOM     22  H4  UNL     1      38.150   1.435  20.539  1.00  0.00     0.188 HD
ATOM     23  H5  UNL     1      39.821   2.253  18.876  1.00  0.00     0.208 HD
BRANCH  14  24
HETATM   24  N2  UNL     1      35.758   7.037  21.064  1.00  0.00    -0.234 N 
ATOM     25  H22 UNL     1      35.632   7.409  22.005  1.00  0.00     0.174 HD
ATOM     26  H21 UNL     1      35.455   7.576  20.252  1.00  0.00     0.174 HD
ENDBRANCH  14  24
ENDBRANCH   9  10
ENDBRANCH   8   9
ENDBRANCH   1   8
BRANCH   4  27
HETATM   27  N8  UNL     1      37.125   2.998  12.814  1.00  0.00    -0.232 N 
ATOM     28  H82 UNL     1      36.177   2.623  12.813  1.00  0.00     0.174 HD
ATOM     29  H81 UNL     1      37.532   2.866  11.888  1.00  0.00     0.174 HD
ENDBRANCH   4  27
BRANCH   5  30
HETATM   30  C9  UNL     1      36.125   5.467  14.021  1.00  0.00     0.750 A 
HETATM   31  N10 UNL     1      36.058   6.800  13.860  1.00  0.00    -0.113 N 
HETATM   32  N11 UNL     1      34.847   7.162  13.473  1.00  0.00    -0.213 N 
ATOM     33  H10 UNL     1      36.834   7.443  14.015  1.00  0.00     0.207 HD
HETATM   34  N12 UNL     1      34.133   6.056  13.384  1.00  0.00    -0.213 N 
ATOM     35  H11 UNL     1      34.528   8.112  13.280  1.00  0.00     0.210 HD
HETATM   36  N13 UNL     1      34.879   5.017  13.709  1.00  0.00    -0.113 N 
ATOM     37  H12 UNL     1      33.153   6.012  13.106  1.00  0.00     0.210 HD
ATOM     38  H13 UNL     1      34.573   4.044  13.724  1.00  0.00     0.207 HD
ENDBRANCH   5  30
TORSDOF 6
ENDMDL
MODEL 4
REMARK VINA RESULT: -6.789154026      4.361      7.478
REMARK  6 active torsions:
REMARK  status: ('A' for Active; 'I' for Inactive)
REMARK    1  A    between atoms: C3_5  and  N2_6 
REMARK    2  A    between atoms: N6_17  and  C6_18 
REMARK    3  A    between atoms: C6_18  and  S1_19 
REMARK    4  A    between atoms: S1_19  and  C7_20 
REMARK    5  A    between atoms: C8_23  and  N8_24 
REMARK    6  A    between atoms: N9_27  and  C9_28 
ROOT
HETATM    1  C7  UNL     1      36.719  -3.648  13.897  1.00  0.00     0.177 A 
HETATM    2  N7  UNL     1      37.799  -4.439  13.994  1.00  0.00    -0.167 N 
ATOM      3  H7  UNL     1      38.047  -5.199  13.361  1.00  0.00     0.186 HD
HETATM    4  C8  UNL     1      38.491  -4.051  15.071  1.00  0.00     0.714 A 
HETATM    5  N9  UNL     1      37.852  -3.020  15.651  1.00  0.00     0.094 N 
HETATM    6  N14 UNL     1      36.785  -2.785  14.935  1.00  0.00    -0.243 N 
ATOM      7  H14 UNL     1      36.099  -2.056  15.132  1.00  0.00     0.191 HD
ENDROOT
BRANCH   1   8
HETATM    8  S1  UNL     1      35.408  -3.658  12.679  1.00  0.00    -0.070 SA
BRANCH   8   9
HETATM    9  C6  UNL     1      35.756  -2.400  11.402  1.00  0.00     0.234 C 
BRANCH   9  10
HETATM   10  N6  UNL     1      36.203  -1.183  12.024  1.00  0.00    -0.250 N 
HETATM   11  C4  UNL     1      37.457  -0.700  12.035  1.00  0.00     0.170 A 
HETATM   12  N3  UNL     1      38.604  -1.171  11.503  1.00  0.00    -0.173 N 
HETATM   13  C5  UNL     1      37.441   0.493  12.745  1.00  0.00     0.118 A 
HETATM   14  C3  UNL     1      39.749  -0.482  11.660  1.00  0.00     0.677 A 
ATOM     15  H3  UNL     1      38.604  -2.048  10.983  1.00  0.00     0.186 HD
HETATM   16  N1  UNL     1      39.755   0.689  12.352  1.00  0.00    -0.194 N 
HETATM   17  C2  UNL     1      38.633   1.171  12.884  1.00  0.00     0.054 A 
ATOM     18  H1  UNL     1      40.629   1.204  12.466  1.00  0.00     0.184 HD
HETATM   19  C1  UNL     1      38.581   2.458  13.657  1.00  0.00     0.071 C 
HETATM   20  N4  UNL     1      36.176   0.684  13.135  1.00  0.00    -0.281 N 
HETATM   21  N5  UNL     1      35.445  -0.322  12.701  1.00  0.00    -0.238 N 
ATOM     22  H4  UNL     1      35.834   1.476  13.679  1.00  0.00     0.188 HD
ATOM     23  H5  UNL     1      34.443  -0.426  12.860  1.00  0.00     0.208 HD
BRANCH  14  24
HETATM   24  N2  UNL     1      40.843  -0.945  11.145  1.00  0.00    -0.234 N 
ATOM     25  H22 UNL     1      41.594  -0.298  10.902  1.00  0.00     0.174 HD
ATOM     26  H21 UNL     1      40.955  -1.946  10.983  1.00  0.00     0.174 HD
ENDBRANCH  14  24
ENDBRANCH   9  10
ENDBRANCH   8   9
ENDBRANCH   1   8
BRANCH   4  27
HETATM   27  N8  UNL     1      39.607  -4.556  15.526  1.00  0.00    -0.232 N 
ATOM     28  H82 UNL     1      40.059  -5.377  15.124  1.00  0.00     0.174 HD
ATOM     29  H81 UNL     1      40.166  -4.223  16.310  1.00  0.00     0.174 HD
ENDBRANCH   4  27
BRANCH   5  30
HETATM   30  C9  UNL     1      38.246  -2.311  16.816  1.00  0.00     0.750 A 
HETATM   31  N10 UNL     1      39.263  -1.443  16.960  1.00  0.00    -0.113 N 
HETATM   32  N11 UNL     1      39.313  -0.986  18.199  1.00  0.00    -0.213 N 
ATOM     33  H10 UNL     1      39.907  -1.175  16.217  1.00  0.00     0.207 HD
HETATM   34  N12 UNL     1      38.323  -1.563  18.854  1.00  0.00    -0.213 N 
ATOM     35  H11 UNL     1      39.986  -0.319  18.576  1.00  0.00     0.210 HD
HETATM   36  N13 UNL     1      37.662  -2.368  18.044  1.00  0.00    -0.113 N 
ATOM     37  H12 UNL     1      38.103  -1.410  19.838  1.00  0.00     0.210 HD
ATOM     38  H13 UNL     1      36.852  -2.934  18.294  1.00  0.00     0.207 HD
ENDBRANCH   5  30
TORSDOF 6
ENDMDL
MODEL 5
REMARK VINA RESULT: -6.703847736      1.851      2.388
REMARK  6 active torsions:
REMARK  status: ('A' for Active; 'I' for Inactive)
REMARK    1  A    between atoms: C3_5  and  N2_6 
REMARK    2  A    between atoms: N6_17  and  C6_18 
REMARK    3  A    between atoms: C6_18  and  S1_19 
REMARK    4  A    between atoms: S1_19  and  C7_20 
REMARK    5  A    between atoms: C8_23  and  N8_24 
REMARK    6  A    between atoms: N9_27  and  C9_28 
ROOT
HETATM    1  C7  UNL     1      39.248   3.752  14.397  1.00  0.00     0.177 A 
HETATM    2  N7  UNL     1      39.117   4.257  15.633  1.00  0.00    -0.167 N 
ATOM      3  H7  UNL     1      39.758   4.114  16.413  1.00  0.00     0.186 HD
HETATM    4  C8  UNL     1      37.992   4.981  15.658  1.00  0.00     0.714 A 
HETATM    5  N9  UNL     1      37.417   4.933  14.444  1.00  0.00     0.094 N 
HETATM    6  N14 UNL     1      38.182   4.189  13.691  1.00  0.00    -0.243 N 
ATOM      7  H14 UNL     1      38.001   3.969  12.711  1.00  0.00     0.191 HD
ENDROOT
BRANCH   1   8
HETATM    8  S1  UNL     1      40.536   2.703  13.728  1.00  0.00    -0.070 SA
BRANCH   8   9
HETATM    9  C6  UNL     1      40.363   1.019  14.412  1.00  0.00     0.234 C 
BRANCH   9  10
HETATM   10  N6  UNL     1      39.319   0.315  13.718  1.00  0.00    -0.250 N 
HETATM   11  C4  UNL     1      38.522  -0.641  14.223  1.00  0.00     0.170 A 
HETATM   12  N3  UNL     1      38.457  -1.200  15.450  1.00  0.00    -0.173 N 
HETATM   13  C5  UNL     1      37.659  -1.046  13.213  1.00  0.00     0.118 A 
HETATM   14  C3  UNL     1      37.549  -2.159  15.703  1.00  0.00     0.677 A 
ATOM     15  H3  UNL     1      39.096  -0.894  16.185  1.00  0.00     0.186 HD
HETATM   16  N1  UNL     1      36.695  -2.570  14.728  1.00  0.00    -0.194 N 
HETATM   17  C2  UNL     1      36.742  -2.031  13.511  1.00  0.00     0.054 A 
ATOM     18  H1  UNL     1      36.010  -3.299  14.931  1.00  0.00     0.184 HD
HETATM   19  C1  UNL     1      35.824  -2.445  12.396  1.00  0.00     0.071 C 
HETATM   20  N4  UNL     1      37.970  -0.316  12.136  1.00  0.00    -0.281 N 
HETATM   21  N5  UNL     1      38.961   0.493  12.447  1.00  0.00    -0.238 N 
ATOM     22  H4  UNL     1      37.514  -0.376  11.226  1.00  0.00     0.188 HD
ATOM     23  H5  UNL     1      39.394   1.159  11.807  1.00  0.00     0.208 HD
BRANCH  14  24
HETATM   24  N2  UNL     1      37.498  -2.687  16.885  1.00  0.00    -0.234 N 
ATOM     25  H22 UNL     1      36.592  -2.805  17.341  1.00  0.00     0.174 HD
ATOM     26  H21 UNL     1      38.353  -2.982  17.357  1.00  0.00     0.174 HD
ENDBRANCH  14  24
ENDBRANCH   9  10
ENDBRANCH   8   9
ENDBRANCH   1   8
BRANCH   4  27
HETATM   27  N8  UNL     1      37.493   5.643  16.667  1.00  0.00    -0.232 N 
ATOM     28  H82 UNL     1      38.001   5.816  17.535  1.00  0.00     0.174 HD
ATOM     29  H81 UNL     1      36.567   6.066  16.737  1.00  0.00     0.174 HD
ENDBRANCH   4  27
BRANCH   5  30
HETATM   30  C9  UNL     1      36.210   5.563  14.040  1.00  0.00     0.750 A 
HETATM   31  N10 UNL     1      35.981   6.872  13.836  1.00  0.00    -0.113 N 
HETATM   32  N11 UNL     1      34.729   7.073  13.465  1.00  0.00    -0.213 N 
ATOM     33  H10 UNL     1      36.676   7.608  13.953  1.00  0.00     0.207 HD
HETATM   34  N12 UNL     1      34.151   5.887  13.429  1.00  0.00    -0.213 N 
ATOM     35  H11 UNL     1      34.293   7.970  13.248  1.00  0.00     0.210 HD
HETATM   36  N13 UNL     1      35.022   4.957  13.771  1.00  0.00    -0.113 N 
ATOM     37  H12 UNL     1      33.178   5.716  13.175  1.00  0.00     0.210 HD
ATOM     38  H13 UNL     1      34.836   3.956  13.825  1.00  0.00     0.207 HD
ENDBRANCH   5  30
TORSDOF 6
ENDMDL
