MODEL 1
REMARK VINA RESULT: -6.839931567      0.000      0.000
REMARK  9 active torsions:
REMARK  status: ('A' for Active; 'I' for Inactive)
REMARK    1  A    between atoms: C2_2  and  N1_3 
REMARK    2  A    between atoms: N1_3  and  N2_5 
REMARK       I    between atoms: N2_5  and  C3_7 
REMARK    3  A    between atoms: C3_7  and  C4_9 
REMARK    4  A    between atoms: C4_9  and  O2_10 
REMARK    5  A    between atoms: C4_9  and  N3_12 
REMARK    6  A    between atoms: N3_12  and  C5_14 
REMARK    7  A    between atoms: C5_14  and  N4_15 
REMARK    8  A    between atoms: C6_16  and  N5_17 
REMARK    9  A    between atoms: C7_20  and  O3_21 
ROOT
HETATM    1  N4  UNL     1      38.106   0.638  13.236  1.00  0.00    -0.266 N 
HETATM    2  C6  UNL     1      38.705   0.154  14.332  1.00  0.00     0.144 A 
HETATM    3  C7  UNL     1      38.513  -1.215  14.644  1.00  0.00     0.163 A 
HETATM    4  C8  UNL     1      37.717  -1.934  13.787  1.00  0.00     0.199 A 
HETATM    5  O4  UNL     1      37.379  -3.225  13.824  1.00  0.00    -0.268 OA
HETATM    6  C9  UNL     1      36.611  -3.531  12.810  1.00  0.00     0.212 A 
HETATM    7  N6  UNL     1      35.936  -4.483  12.191  1.00  0.00    -0.262 N 
ATOM      8  H6  UNL     1      35.873  -5.455  12.491  1.00  0.00     0.190 HD
HETATM    9  N7  UNL     1      35.347  -3.968  11.107  1.00  0.00    -0.239 N 
ATOM     10  H7  UNL     1      34.759  -4.482  10.452  1.00  0.00     0.208 HD
HETATM   11  N8  UNL     1      35.644  -2.711  11.023  1.00  0.00    -0.267 N 
ATOM     12  H8  UNL     1      35.328  -2.080  10.286  1.00  0.00     0.190 HD
HETATM   13  C10 UNL     1      36.434  -2.364  12.057  1.00  0.00     0.188 A 
HETATM   14  N9  UNL     1      37.133  -1.413  12.697  1.00  0.00    -0.220 N 
HETATM   15  C11 UNL     1      37.348  -0.098  12.441  1.00  0.00     0.340 A 
HETATM   16  O5  UNL     1      36.777   0.360  11.405  1.00  0.00    -0.246 OA
ENDROOT
BRANCH   1  17
HETATM   17  C5  UNL     1      38.548   1.990  12.852  1.00  0.00     0.260 C 
BRANCH  17  18
HETATM   18  N3  UNL     1      37.424   2.851  12.774  1.00  0.00    -0.350 N 
ATOM     19  H3  UNL     1      37.318   3.424  11.938  1.00  0.00     0.163 HD
BRANCH  18  20
HETATM   20  C4  UNL     1      36.452   2.962  13.773  1.00  0.00     0.208 C 
BRANCH  20  21
HETATM   21  C3  UNL     1      35.990   4.376  13.900  1.00  0.00     0.310 C 
HETATM   22  N2  UNL     1      36.688   5.320  14.742  1.00  0.00    -0.264 N 
ATOM     23  H2  UNL     1      37.491   5.002  15.285  1.00  0.00     0.190 HD
HETATM   24  O1  UNL     1      35.008   4.813  13.295  1.00  0.00    -0.262 OA
BRANCH  22  25
HETATM   25  N1  UNL     1      36.307   6.605  14.828  1.00  0.00    -0.313 N 
ATOM     26  H1  UNL     1      35.330   6.701  15.103  1.00  0.00     0.185 HD
BRANCH  25  27
HETATM   27  C2  UNL     1      36.860   7.708  14.654  1.00  0.00     0.076 C 
HETATM   28  C1  UNL     1      36.084   8.941  15.028  1.00  0.00     0.056 C 
ENDBRANCH  25  27
ENDBRANCH  22  25
ENDBRANCH  20  21
BRANCH  20  29
HETATM   29  O2  UNL     1      35.444   2.044  13.915  1.00  0.00    -0.342 OA
ATOM     30  H2  UNL     1      35.369   1.448  13.179  1.00  0.00     0.219 HD
ENDBRANCH  20  29
ENDBRANCH  18  20
ENDBRANCH  17  18
ENDBRANCH   1  17
BRANCH   2  31
HETATM   31  N5  UNL     1      39.438   0.778  15.179  1.00  0.00    -0.383 N 
ATOM     32  H52 UNL     1      38.923   1.441  15.758  1.00  0.00     0.157 HD
ATOM     33  H51 UNL     1      40.445   0.700  15.323  1.00  0.00     0.157 HD
ENDBRANCH   2  31
BRANCH   3  34
HETATM   34  O3  UNL     1      39.091  -1.771  15.756  1.00  0.00    -0.354 OA
ATOM     35  H3  UNL     1      39.877  -2.302  15.683  1.00  0.00     0.218 HD
ENDBRANCH   3  34
TORSDOF 9
ENDMDL
MODEL 2
REMARK VINA RESULT: -6.793364612      5.762      8.425
REMARK  9 active torsions:
REMARK  status: ('A' for Active; 'I' for Inactive)
REMARK    1  A    between atoms: C2_2  and  N1_3 
REMARK    2  A    between atoms: N1_3  and  N2_5 
REMARK       I    between atoms: N2_5  and  C3_7 
REMARK    3  A    between atoms: C3_7  and  C4_9 
REMARK    4  A    between atoms: C4_9  and  O2_10 
REMARK    5  A    between atoms: C4_9  and  N3_12 
REMARK    6  A    between atoms: N3_12  and  C5_14 
REMARK    7  A    between atoms: C5_14  and  N4_15 
REMARK    8  A    between atoms: C6_16  and  N5_17 
REMARK    9  A    between atoms: C7_20  and  O3_21 
ROOT
HETATM    1  N4  UNL     1      37.503   6.097  19.854  1.00  0.00    -0.266 N 
HETATM    2  C6  UNL     1      36.493   6.542  20.613  1.00  0.00     0.144 A 
HETATM    3  C7  UNL     1      35.799   5.601  21.413  1.00  0.00     0.163 A 
HETATM    4  C8  UNL     1      36.225   4.299  21.338  1.00  0.00     0.199 A 
HETATM    5  O4  UNL     1      35.774   3.219  21.981  1.00  0.00    -0.268 OA
HETATM    6  C9  UNL     1      36.461   2.158  21.644  1.00  0.00     0.212 A 
HETATM    7  N6  UNL     1      36.633   0.860  21.813  1.00  0.00    -0.262 N 
ATOM      8  H6  UNL     1      36.084   0.266  22.435  1.00  0.00     0.190 HD
HETATM    9  N7  UNL     1      37.643   0.446  21.041  1.00  0.00    -0.239 N 
ATOM     10  H7  UNL     1      37.983  -0.512  20.974  1.00  0.00     0.208 HD
HETATM   11  N8  UNL     1      38.119   1.459  20.392  1.00  0.00    -0.267 N 
ATOM     12  H8  UNL     1      38.899   1.423  19.735  1.00  0.00     0.190 HD
HETATM   13  C10 UNL     1      37.429   2.569  20.717  1.00  0.00     0.188 A 
HETATM   14  N9  UNL     1      37.243   3.890  20.565  1.00  0.00    -0.220 N 
HETATM   15  C11 UNL     1      37.877   4.829  19.818  1.00  0.00     0.340 A 
HETATM   16  O5  UNL     1      38.830   4.405  19.097  1.00  0.00    -0.246 OA
ENDROOT
BRANCH   1  17
HETATM   17  C5  UNL     1      38.320   7.163  19.247  1.00  0.00     0.260 C 
BRANCH  17  18
HETATM   18  N3  UNL     1      38.194   7.110  17.837  1.00  0.00    -0.350 N 
ATOM     19  H3  UNL     1      38.855   6.533  17.318  1.00  0.00     0.163 HD
BRANCH  18  20
HETATM   20  C4  UNL     1      37.218   7.801  17.112  1.00  0.00     0.208 C 
BRANCH  20  21
HETATM   21  C3  UNL     1      37.058   7.208  15.751  1.00  0.00     0.310 C 
HETATM   22  N2  UNL     1      36.409   5.932  15.560  1.00  0.00    -0.264 N 
ATOM     23  H2  UNL     1      36.086   5.412  16.376  1.00  0.00     0.190 HD
HETATM   24  O1  UNL     1      37.456   7.771  14.728  1.00  0.00    -0.262 OA
BRANCH  22  25
HETATM   25  N1  UNL     1      36.220   5.411  14.336  1.00  0.00    -0.313 N 
ATOM     26  H1  UNL     1      36.586   6.014  13.599  1.00  0.00     0.185 HD
BRANCH  25  27
HETATM   27  C2  UNL     1      35.707   4.370  13.884  1.00  0.00     0.076 C 
HETATM   28  C1  UNL     1      36.636   3.280  13.425  1.00  0.00     0.056 C 
ENDBRANCH  25  27
ENDBRANCH  22  25
ENDBRANCH  20  21
BRANCH  20  29
HETATM   29  O2  UNL     1      36.033   8.197  17.676  1.00  0.00    -0.342 OA
ATOM     30  H2  UNL     1      35.772   9.076  17.429  1.00  0.00     0.219 HD
ENDBRANCH  20  29
ENDBRANCH  18  20
ENDBRANCH  17  18
ENDBRANCH   1  17
BRANCH   2  31
HETATM   31  N5  UNL     1      36.036   7.737  20.709  1.00  0.00    -0.383 N 
ATOM     32  H52 UNL     1      36.668   8.448  20.341  1.00  0.00     0.157 HD
ATOM     33  H51 UNL     1      35.152   8.046  21.111  1.00  0.00     0.157 HD
ENDBRANCH   2  31
BRANCH   3  34
HETATM   34  O3  UNL     1      34.750   5.990  22.207  1.00  0.00    -0.354 OA
ATOM     35  H3  UNL     1      34.168   6.691  21.937  1.00  0.00     0.218 HD
ENDBRANCH   3  34
TORSDOF 9
ENDMDL
MODEL 3
REMARK VINA RESULT: -6.782698706      3.313      4.431
REMARK  9 active torsions:
REMARK  status: ('A' for Active; 'I' for Inactive)
REMARK    1  A    between atoms: C2_2  and  N1_3 
REMARK    2  A    between atoms: N1_3  and  N2_5 
REMARK       I    between atoms: N2_5  and  C3_7 
REMARK    3  A    between atoms: C3_7  and  C4_9 
REMARK    4  A    between atoms: C4_9  and  O2_10 
REMARK    5  A    between atoms: C4_9  and  N3_12 
REMARK    6  A    between atoms: N3_12  and  C5_14 
REMARK    7  A    between atoms: C5_14  and  N4_15 
REMARK    8  A    between atoms: C6_16  and  N5_17 
REMARK    9  A    between atoms: C7_20  and  O3_21 
ROOT
HETATM    1  N4  UNL     1      38.909   0.951  12.779  1.00  0.00    -0.266 N 
HETATM    2  C6  UNL     1      37.977   1.747  13.320  1.00  0.00     0.144 A 
HETATM    3  C7  UNL     1      36.625   1.328  13.251  1.00  0.00     0.163 A 
HETATM    4  C8  UNL     1      36.385   0.129  12.626  1.00  0.00     0.199 A 
HETATM    5  O4  UNL     1      35.229  -0.510  12.431  1.00  0.00    -0.268 OA
HETATM    6  C9  UNL     1      35.426  -1.641  11.804  1.00  0.00     0.212 A 
HETATM    7  N6  UNL     1      34.873  -2.730  11.300  1.00  0.00    -0.262 N 
ATOM      8  H6  UNL     1      33.877  -2.949  11.317  1.00  0.00     0.190 HD
HETATM    9  N7  UNL     1      35.826  -3.499  10.765  1.00  0.00    -0.239 N 
ATOM     10  H7  UNL     1      35.674  -4.395  10.303  1.00  0.00     0.208 HD
HETATM   11  N8  UNL     1      36.973  -2.923  10.928  1.00  0.00    -0.267 N 
ATOM     12  H8  UNL     1      37.869  -3.298  10.617  1.00  0.00     0.190 HD
HETATM   13  C10 UNL     1      36.803  -1.752  11.571  1.00  0.00     0.188 A 
HETATM   14  N9  UNL     1      37.347  -0.642  12.096  1.00  0.00    -0.220 N 
HETATM   15  C11 UNL     1      38.626  -0.198  12.187  1.00  0.00     0.340 A 
HETATM   16  O5  UNL     1      39.506  -0.950  11.672  1.00  0.00    -0.246 OA
ENDROOT
BRANCH   1  17
HETATM   17  C5  UNL     1      40.295   1.333  13.103  1.00  0.00     0.260 C 
BRANCH  17  18
HETATM   18  N3  UNL     1      40.824   2.126  12.054  1.00  0.00    -0.350 N 
ATOM     19  H3  UNL     1      41.031   1.669  11.167  1.00  0.00     0.163 HD
BRANCH  18  20
HETATM   20  C4  UNL     1      41.079   3.497  12.161  1.00  0.00     0.208 C 
BRANCH  20  21
HETATM   21  C3  UNL     1      40.330   4.253  11.115  1.00  0.00     0.310 C 
HETATM   22  N2  UNL     1      40.999   4.785   9.950  1.00  0.00    -0.264 N 
ATOM     23  H2  UNL     1      42.008   4.669   9.861  1.00  0.00     0.190 HD
HETATM   24  O1  UNL     1      39.115   4.455  11.179  1.00  0.00    -0.262 OA
BRANCH  22  25
HETATM   25  N1  UNL     1      40.326   5.427   8.980  1.00  0.00    -0.313 N 
ATOM     26  H1  UNL     1      39.320   5.434   9.148  1.00  0.00     0.185 HD
BRANCH  25  27
HETATM   27  C2  UNL     1      40.635   6.016   7.927  1.00  0.00     0.076 C 
HETATM   28  C1  UNL     1      40.881   5.173   6.706  1.00  0.00     0.056 C 
ENDBRANCH  25  27
ENDBRANCH  22  25
ENDBRANCH  20  21
BRANCH  20  29
HETATM   29  O2  UNL     1      41.122   4.139  13.371  1.00  0.00    -0.342 OA
ATOM     30  H2  UNL     1      40.595   3.719  14.041  1.00  0.00     0.219 HD
ENDBRANCH  20  29
ENDBRANCH  18  20
ENDBRANCH  17  18
ENDBRANCH   1  17
BRANCH   2  31
HETATM   31  N5  UNL     1      38.137   2.882  13.894  1.00  0.00    -0.383 N 
ATOM     32  H52 UNL     1      38.135   3.672  13.250  1.00  0.00     0.157 HD
ATOM     33  H51 UNL     1      38.276   3.075  14.886  1.00  0.00     0.157 HD
ENDBRANCH   2  31
BRANCH   3  34
HETATM   34  O3  UNL     1      35.622   2.099  13.778  1.00  0.00    -0.354 OA
ATOM     35  H3  UNL     1      34.879   1.700  14.218  1.00  0.00     0.218 HD
ENDBRANCH   3  34
TORSDOF 9
ENDMDL
MODEL 4
REMARK VINA RESULT: -6.719436618      6.454      8.461
REMARK  9 active torsions:
REMARK  status: ('A' for Active; 'I' for Inactive)
REMARK    1  A    between atoms: C2_2  and  N1_3 
REMARK    2  A    between atoms: N1_3  and  N2_5 
REMARK       I    between atoms: N2_5  and  C3_7 
REMARK    3  A    between atoms: C3_7  and  C4_9 
REMARK    4  A    between atoms: C4_9  and  O2_10 
REMARK    5  A    between atoms: C4_9  and  N3_12 
REMARK    6  A    between atoms: N3_12  and  C5_14 
REMARK    7  A    between atoms: C5_14  and  N4_15 
REMARK    8  A    between atoms: C6_16  and  N5_17 
REMARK    9  A    between atoms: C7_20  and  O3_21 
ROOT
HETATM    1  N4  UNL     1      36.881   5.928  20.835  1.00  0.00    -0.266 N 
HETATM    2  C6  UNL     1      36.161   5.392  21.830  1.00  0.00     0.144 A 
HETATM    3  C7  UNL     1      36.296   4.003  22.073  1.00  0.00     0.163 A 
HETATM    4  C8  UNL     1      37.162   3.318  21.257  1.00  0.00     0.199 A 
HETATM    5  O4  UNL     1      37.494   2.025  21.266  1.00  0.00    -0.268 OA
HETATM    6  C9  UNL     1      38.371   1.765  20.331  1.00  0.00     0.212 A 
HETATM    7  N6  UNL     1      39.122   0.845  19.752  1.00  0.00    -0.262 N 
ATOM      8  H6  UNL     1      39.161  -0.139  20.017  1.00  0.00     0.190 HD
HETATM    9  N7  UNL     1      39.823   1.410  18.764  1.00  0.00    -0.239 N 
ATOM     10  H7  UNL     1      40.477   0.925  18.150  1.00  0.00     0.208 HD
HETATM   11  N8  UNL     1      39.538   2.671  18.712  1.00  0.00    -0.267 N 
ATOM     12  H8  UNL     1      39.937   3.337  18.050  1.00  0.00     0.190 HD
HETATM   13  C10 UNL     1      38.633   2.969  19.663  1.00  0.00     0.188 A 
HETATM   14  N9  UNL     1      37.868   3.891  20.270  1.00  0.00    -0.220 N 
HETATM   15  C11 UNL     1      37.704   5.224  20.077  1.00  0.00     0.340 A 
HETATM   16  O5  UNL     1      38.384   5.729  19.133  1.00  0.00    -0.246 OA
ENDROOT
BRANCH   1  17
HETATM   17  C5  UNL     1      36.870   7.401  20.805  1.00  0.00     0.260 C 
BRANCH  17  18
HETATM   18  N3  UNL     1      35.988   7.846  19.789  1.00  0.00    -0.350 N 
ATOM     19  H3  UNL     1      35.095   7.364  19.686  1.00  0.00     0.163 HD
BRANCH  18  20
HETATM   20  C4  UNL     1      36.266   8.905  18.919  1.00  0.00     0.208 C 
BRANCH  20  21
HETATM   21  C3  UNL     1      36.347   8.419  17.510  1.00  0.00     0.310 C 
HETATM   22  N2  UNL     1      36.501   7.014  17.209  1.00  0.00    -0.264 N 
ATOM     23  H2  UNL     1      36.589   6.348  17.978  1.00  0.00     0.190 HD
HETATM   24  O1  UNL     1      36.279   9.175  16.538  1.00  0.00    -0.262 OA
BRANCH  22  25
HETATM   25  N1  UNL     1      36.529   6.561  15.945  1.00  0.00    -0.313 N 
ATOM     26  H1  UNL     1      36.043   7.184  15.300  1.00  0.00     0.185 HD
BRANCH  25  27
HETATM   27  C2  UNL     1      37.007   5.565  15.370  1.00  0.00     0.076 C 
HETATM   28  C1  UNL     1      36.203   4.954  14.255  1.00  0.00     0.056 C 
ENDBRANCH  25  27
ENDBRANCH  22  25
ENDBRANCH  20  21
BRANCH  20  29
HETATM   29  O2  UNL     1      35.657  10.127  19.039  1.00  0.00    -0.342 OA
ATOM     30  H2  UNL     1      35.409  10.339  19.931  1.00  0.00     0.219 HD
ENDBRANCH  20  29
ENDBRANCH  18  20
ENDBRANCH  17  18
ENDBRANCH   1  17
BRANCH   2  31
HETATM   31  N5  UNL     1      35.323   5.973  22.608  1.00  0.00    -0.383 N 
ATOM     32  H52 UNL     1      34.644   6.554  22.118  1.00  0.00     0.157 HD
ATOM     33  H51 UNL     1      35.272   5.933  23.626  1.00  0.00     0.157 HD
ENDBRANCH   2  31
BRANCH   3  34
HETATM   34  O3  UNL     1      35.582   3.390  23.071  1.00  0.00    -0.354 OA
ATOM     35  H3  UNL     1      35.942   3.302  23.945  1.00  0.00     0.218 HD
ENDBRANCH   3  34
TORSDOF 9
ENDMDL
MODEL 5
REMARK VINA RESULT: -6.714322679      5.261      8.831
REMARK  9 active torsions:
REMARK  status: ('A' for Active; 'I' for Inactive)
REMARK    1  A    between atoms: C2_2  and  N1_3 
REMARK    2  A    between atoms: N1_3  and  N2_5 
REMARK       I    between atoms: N2_5  and  C3_7 
REMARK    3  A    between atoms: C3_7  and  C4_9 
REMARK    4  A    between atoms: C4_9  and  O2_10 
REMARK    5  A    between atoms: C4_9  and  N3_12 
REMARK    6  A    between atoms: N3_12  and  C5_14 
REMARK    7  A    between atoms: C5_14  and  N4_15 
REMARK    8  A    between atoms: C6_16  and  N5_17 
REMARK    9  A    between atoms: C7_20  and  O3_21 
ROOT
HETATM    1  N4  UNL     1      37.756   6.062  18.358  1.00  0.00    -0.266 N 
HETATM    2  C6  UNL     1      37.260   7.253  18.721  1.00  0.00     0.144 A 
HETATM    3  C7  UNL     1      36.515   7.323  19.923  1.00  0.00     0.163 A 
HETATM    4  C8  UNL     1      36.360   6.150  20.619  1.00  0.00     0.199 A 
HETATM    5  O4  UNL     1      35.729   5.924  21.774  1.00  0.00    -0.268 OA
HETATM    6  C9  UNL     1      35.822   4.664  22.114  1.00  0.00     0.212 A 
HETATM    7  N6  UNL     1      35.517   3.741  23.008  1.00  0.00    -0.262 N 
ATOM      8  H6  UNL     1      34.982   3.899  23.862  1.00  0.00     0.190 HD
HETATM    9  N7  UNL     1      36.020   2.567  22.616  1.00  0.00    -0.239 N 
ATOM     10  H7  UNL     1      35.926   1.685  23.118  1.00  0.00     0.208 HD
HETATM   11  N8  UNL     1      36.647   2.730  21.495  1.00  0.00    -0.267 N 
ATOM     12  H8  UNL     1      37.128   1.994  20.978  1.00  0.00     0.190 HD
HETATM   13  C10 UNL     1      36.565   4.020  21.117  1.00  0.00     0.188 A 
HETATM   14  N9  UNL     1      36.873   4.974  20.224  1.00  0.00    -0.220 N 
HETATM   15  C11 UNL     1      37.580   4.959  19.065  1.00  0.00     0.340 A 
HETATM   16  O5  UNL     1      38.045   3.830  18.722  1.00  0.00    -0.246 OA
ENDROOT
BRANCH   1  17
HETATM   17  C5  UNL     1      38.713   6.120  17.239  1.00  0.00     0.260 C 
BRANCH  17  18
HETATM   18  N3  UNL     1      38.178   5.428  16.123  1.00  0.00    -0.350 N 
ATOM     19  H3  UNL     1      38.347   4.425  16.057  1.00  0.00     0.163 HD
BRANCH  18  20
HETATM   20  C4  UNL     1      37.433   6.037  15.108  1.00  0.00     0.208 C 
BRANCH  20  21
HETATM   21  C3  UNL     1      36.816   5.006  14.221  1.00  0.00     0.310 C 
HETATM   22  N2  UNL     1      37.490   3.760  13.938  1.00  0.00    -0.264 N 
ATOM     23  H2  UNL     1      38.420   3.599  14.325  1.00  0.00     0.190 HD
HETATM   24  O1  UNL     1      35.710   5.154  13.697  1.00  0.00    -0.262 OA
BRANCH  22  25
HETATM   25  N1  UNL     1      36.924   2.808  13.178  1.00  0.00    -0.313 N 
ATOM     26  H1  UNL     1      36.875   3.076  12.195  1.00  0.00     0.185 HD
BRANCH  25  27
HETATM   27  C2  UNL     1      36.444   1.677  13.384  1.00  0.00     0.076 C 
HETATM   28  C1  UNL     1      36.818   0.578  12.427  1.00  0.00     0.056 C 
ENDBRANCH  25  27
ENDBRANCH  22  25
ENDBRANCH  20  21
BRANCH  20  29
HETATM   29  O2  UNL     1      36.616   7.111  15.346  1.00  0.00    -0.342 OA
ATOM     30  H2  UNL     1      36.111   7.376  14.587  1.00  0.00     0.219 HD
ENDBRANCH  20  29
ENDBRANCH  18  20
ENDBRANCH  17  18
ENDBRANCH   1  17
BRANCH   2  31
HETATM   31  N5  UNL     1      37.352   8.374  18.105  1.00  0.00    -0.383 N 
ATOM     32  H52 UNL     1      37.826   9.100  18.641  1.00  0.00     0.157 HD
ATOM     33  H51 UNL     1      37.003   8.616  17.178  1.00  0.00     0.157 HD
ENDBRANCH   2  31
BRANCH   3  34
HETATM   34  O3  UNL     1      35.973   8.509  20.348  1.00  0.00    -0.354 OA
ATOM     35  H3  UNL     1      36.121   8.824  21.232  1.00  0.00     0.218 HD
ENDBRANCH   3  34
TORSDOF 9
ENDMDL
