MODEL 1
REMARK VINA RESULT: -8.728219834      0.000      0.000
REMARK  9 active torsions:
REMARK  status: ('A' for Active; 'I' for Inactive)
REMARK       I    between atoms: C1_2  and  N1_3 
REMARK    1  A    between atoms: C1_2  and  C20_32 
REMARK    2  A    between atoms: N1_3  and  C2_5 
REMARK    3  A    between atoms: C2_5  and  C3_6 
REMARK    4  A    between atoms: C2_5  and  C14_26 
REMARK       I    between atoms: C3_6  and  N2_8 
REMARK    5  A    between atoms: N2_8  and  C4_10 
REMARK    6  A    between atoms: C4_10  and  C5_11 
REMARK    7  A    between atoms: C4_10  and  C7_16 
REMARK    8  A    between atoms: C5_11  and  C6_12 
REMARK       I    between atoms: C7_16  and  N3_18 
REMARK    9  A    between atoms: N3_18  and  C8_20 
ROOT
HETATM    1  C3  UNL     1      14.957 -16.028  21.190  1.00  0.00     0.241 C 
HETATM    2  O2  UNL     1      14.189 -17.020  21.321  1.00  0.00    -0.271 OA
HETATM    3  N2  UNL     1      16.307 -16.140  21.588  1.00  0.00    -0.346 N 
ATOM      4  H2  UNL     1      16.915 -15.329  21.475  1.00  0.00     0.163 HD
ENDROOT
BRANCH   1   5
HETATM    5  C2  UNL     1      14.370 -14.797  20.615  1.00  0.00     0.181 C 
BRANCH   5   6
HETATM    6  N1  UNL     1      13.961 -13.852  21.599  1.00  0.00    -0.342 N 
HETATM    7  C1  UNL     1      12.799 -13.046  21.451  1.00  0.00     0.272 C 
HETATM    8  O1  UNL     1      12.123 -13.206  20.382  1.00  0.00    -0.266 OA
ATOM      9  H1  UNL     1      14.524 -13.749  22.443  1.00  0.00     0.163 HD
BRANCH   7  10
HETATM   10  C20 UNL     1      12.383 -12.081  22.459  1.00  0.00     0.139 A 
HETATM   11  N4  UNL     1      11.543 -12.399  23.453  1.00  0.00    -0.359 N 
HETATM   12  C21 UNL     1      11.158 -11.491  24.395  1.00  0.00     0.089 A 
ATOM     13  H4  UNL     1      11.180 -13.350  23.507  1.00  0.00     0.165 HD
HETATM   14  C22 UNL     1      11.619 -10.193  24.365  1.00  0.00     0.020 A 
HETATM   15  C23 UNL     1      12.480  -9.850  23.352  1.00  0.00     0.046 A 
HETATM   16  C24 UNL     1      12.855 -10.789  22.412  1.00  0.00     0.148 A 
HETATM   17  F4  UNL     1      13.711 -10.367  21.445  1.00  0.00    -0.203 F 
ENDBRANCH   7  10
ENDBRANCH   5   6
BRANCH   5  18
HETATM   18  C14 UNL     1      15.291 -14.230  19.568  1.00  0.00     0.018 C 
HETATM   19  C15 UNL     1      14.635 -14.212  18.216  1.00  0.00     0.007 C 
HETATM   20  C16 UNL     1      15.262 -13.277  17.244  1.00  0.00     0.000 C 
HETATM   21  C17 UNL     1      16.638 -12.826  17.542  1.00  0.00     0.000 C 
HETATM   22  C18 UNL     1      16.997 -12.655  18.966  1.00  0.00     0.000 C 
HETATM   23  C19 UNL     1      15.768 -12.836  19.870  1.00  0.00     0.007 C 
ENDBRANCH   5  18
ENDBRANCH   1   5
BRANCH   3  24
HETATM   24  C4  UNL     1      16.862 -17.333  22.141  1.00  0.00     0.185 C 
BRANCH  24  25
HETATM   25  C5  UNL     1      17.589 -18.217  21.186  1.00  0.00     0.152 C 
BRANCH  25  26
HETATM   26  C6  UNL     1      16.750 -19.086  20.320  1.00  0.00     0.390 C 
HETATM   27  F1  UNL     1      17.607 -20.068  19.794  1.00  0.00    -0.171 F 
HETATM   28  F2  UNL     1      15.720 -19.734  20.962  1.00  0.00    -0.171 F 
HETATM   29  F3  UNL     1      16.227 -18.423  19.233  1.00  0.00    -0.171 F 
ENDBRANCH  25  26
ENDBRANCH  24  25
BRANCH  24  30
HETATM   30  C7  UNL     1      17.684 -17.036  23.332  1.00  0.00     0.241 C 
HETATM   31  O3  UNL     1      17.312 -17.470  24.456  1.00  0.00    -0.271 OA
HETATM   32  N3  UNL     1      18.886 -16.280  23.290  1.00  0.00    -0.355 N 
ATOM     33  H3  UNL     1      19.194 -15.924  22.385  1.00  0.00     0.162 HD
BRANCH  32  34
HETATM   34  C8  UNL     1      19.690 -15.985  24.430  1.00  0.00     0.084 C 
HETATM   35  C9  UNL     1      19.218 -14.712  25.144  1.00  0.00     0.025 C 
HETATM   36  C10 UNL     1      20.303 -14.423  26.189  1.00  0.00     0.002 C 
HETATM   37  C11 UNL     1      21.432 -13.748  25.400  1.00  0.00     0.000 C 
HETATM   38  C12 UNL     1      21.703 -14.505  24.120  1.00  0.00     0.002 C 
HETATM   39  C13 UNL     1      21.158 -15.915  24.171  1.00  0.00     0.025 C 
ENDBRANCH  32  34
ENDBRANCH  24  30
ENDBRANCH   3  24
TORSDOF 9
ENDMDL
MODEL 2
REMARK VINA RESULT: -8.648045485      2.745      7.574
REMARK  9 active torsions:
REMARK  status: ('A' for Active; 'I' for Inactive)
REMARK       I    between atoms: C1_2  and  N1_3 
REMARK    1  A    between atoms: C1_2  and  C20_32 
REMARK    2  A    between atoms: N1_3  and  C2_5 
REMARK    3  A    between atoms: C2_5  and  C3_6 
REMARK    4  A    between atoms: C2_5  and  C14_26 
REMARK       I    between atoms: C3_6  and  N2_8 
REMARK    5  A    between atoms: N2_8  and  C4_10 
REMARK    6  A    between atoms: C4_10  and  C5_11 
REMARK    7  A    between atoms: C4_10  and  C7_16 
REMARK    8  A    between atoms: C5_11  and  C6_12 
REMARK       I    between atoms: C7_16  and  N3_18 
REMARK    9  A    between atoms: N3_18  and  C8_20 
ROOT
HETATM    1  C3  UNL     1      16.316 -14.014  20.246  1.00  0.00     0.241 C 
HETATM    2  O2  UNL     1      16.783 -12.935  20.704  1.00  0.00    -0.271 OA
HETATM    3  N2  UNL     1      15.477 -13.977  19.111  1.00  0.00    -0.346 N 
ATOM      4  H2  UNL     1      15.107 -14.858  18.752  1.00  0.00     0.163 HD
ENDROOT
BRANCH   1   5
HETATM    5  C2  UNL     1      16.693 -15.260  20.948  1.00  0.00     0.181 C 
BRANCH   5   6
HETATM    6  N1  UNL     1      17.239 -15.036  22.244  1.00  0.00    -0.342 N 
HETATM    7  C1  UNL     1      18.623 -15.185  22.529  1.00  0.00     0.272 C 
HETATM    8  O1  UNL     1      19.374 -15.534  21.559  1.00  0.00    -0.266 OA
ATOM      9  H1  UNL     1      16.611 -14.758  22.998  1.00  0.00     0.163 HD
BRANCH   7  10
HETATM   10  C20 UNL     1      19.179 -14.956  23.856  1.00  0.00     0.139 A 
HETATM   11  N4  UNL     1      20.130 -14.039  24.086  1.00  0.00    -0.359 N 
HETATM   12  C21 UNL     1      20.645 -13.827  25.331  1.00  0.00     0.089 A 
ATOM     13  H4  UNL     1      20.479 -13.483  23.306  1.00  0.00     0.165 HD
HETATM   14  C22 UNL     1      20.208 -14.554  26.417  1.00  0.00     0.020 A 
HETATM   15  C23 UNL     1      19.235 -15.497  26.199  1.00  0.00     0.046 A 
HETATM   16  C24 UNL     1      18.729 -15.691  24.928  1.00  0.00     0.148 A 
HETATM   17  F4  UNL     1      17.769 -16.643  24.800  1.00  0.00    -0.203 F 
ENDBRANCH   7  10
ENDBRANCH   5   6
BRANCH   5  18
HETATM   18  C14 UNL     1      15.541 -16.229  20.929  1.00  0.00     0.018 C 
HETATM   19  C15 UNL     1      15.882 -17.495  21.665  1.00  0.00     0.007 C 
HETATM   20  C16 UNL     1      14.700 -18.293  22.090  1.00  0.00     0.000 C 
HETATM   21  C17 UNL     1      13.421 -18.010  21.406  1.00  0.00     0.000 C 
HETATM   22  C18 UNL     1      13.175 -16.612  20.990  1.00  0.00     0.000 C 
HETATM   23  C19 UNL     1      14.273 -15.678  21.519  1.00  0.00     0.007 C 
ENDBRANCH   5  18
ENDBRANCH   1   5
BRANCH   3  24
HETATM   24  C4  UNL     1      15.120 -12.768  18.441  1.00  0.00     0.185 C 
BRANCH  24  25
HETATM   25  C5  UNL     1      14.897 -12.879  16.972  1.00  0.00     0.152 C 
BRANCH  25  26
HETATM   26  C6  UNL     1      16.019 -12.443  16.098  1.00  0.00     0.390 C 
HETATM   27  F1  UNL     1      17.103 -12.170  16.950  1.00  0.00    -0.171 F 
HETATM   28  F2  UNL     1      16.439 -13.372  15.175  1.00  0.00    -0.171 F 
HETATM   29  F3  UNL     1      15.759 -11.266  15.433  1.00  0.00    -0.171 F 
ENDBRANCH  25  26
ENDBRANCH  24  25
BRANCH  24  30
HETATM   30  C7  UNL     1      13.982 -12.104  19.110  1.00  0.00     0.241 C 
HETATM   31  O3  UNL     1      13.187 -11.411  18.419  1.00  0.00    -0.271 OA
HETATM   32  N3  UNL     1      13.723 -12.199  20.503  1.00  0.00    -0.355 N 
ATOM     33  H3  UNL     1      14.361 -12.758  21.069  1.00  0.00     0.162 HD
BRANCH  32  34
HETATM   34  C8  UNL     1      12.629 -11.565  21.162  1.00  0.00     0.084 C 
HETATM   35  C9  UNL     1      13.106 -10.641  22.291  1.00  0.00     0.025 C 
HETATM   36  C10 UNL     1      11.824 -10.224  23.023  1.00  0.00     0.002 C 
HETATM   37  C11 UNL     1      11.490 -11.416  23.930  1.00  0.00     0.000 C 
HETATM   38  C12 UNL     1      11.614 -12.711  23.160  1.00  0.00     0.002 C 
HETATM   39  C13 UNL     1      11.570 -12.487  21.666  1.00  0.00     0.025 C 
ENDBRANCH  32  34
ENDBRANCH  24  30
ENDBRANCH   3  24
TORSDOF 9
ENDMDL
MODEL 3
REMARK VINA RESULT: -8.600033362      2.915      7.428
REMARK  9 active torsions:
REMARK  status: ('A' for Active; 'I' for Inactive)
REMARK       I    between atoms: C1_2  and  N1_3 
REMARK    1  A    between atoms: C1_2  and  C20_32 
REMARK    2  A    between atoms: N1_3  and  C2_5 
REMARK    3  A    between atoms: C2_5  and  C3_6 
REMARK    4  A    between atoms: C2_5  and  C14_26 
REMARK       I    between atoms: C3_6  and  N2_8 
REMARK    5  A    between atoms: N2_8  and  C4_10 
REMARK    6  A    between atoms: C4_10  and  C5_11 
REMARK    7  A    between atoms: C4_10  and  C7_16 
REMARK    8  A    between atoms: C5_11  and  C6_12 
REMARK       I    between atoms: C7_16  and  N3_18 
REMARK    9  A    between atoms: N3_18  and  C8_20 
ROOT
HETATM    1  C3  UNL     1      15.852 -14.343  20.199  1.00  0.00     0.241 C 
HETATM    2  O2  UNL     1      16.396 -13.352  20.760  1.00  0.00    -0.271 OA
HETATM    3  N2  UNL     1      15.080 -14.140  19.035  1.00  0.00    -0.346 N 
ATOM      4  H2  UNL     1      14.646 -14.950  18.592  1.00  0.00     0.163 HD
ENDROOT
BRANCH   1   5
HETATM    5  C2  UNL     1      16.073 -15.669  20.816  1.00  0.00     0.181 C 
BRANCH   5   6
HETATM    6  N1  UNL     1      16.530 -15.596  22.163  1.00  0.00    -0.342 N 
HETATM    7  C1  UNL     1      17.895 -15.773  22.520  1.00  0.00     0.272 C 
HETATM    8  O1  UNL     1      18.711 -16.003  21.568  1.00  0.00    -0.266 OA
ATOM      9  H1  UNL     1      15.851 -15.411  22.902  1.00  0.00     0.163 HD
BRANCH   7  10
HETATM   10  C20 UNL     1      18.360 -15.698  23.898  1.00  0.00     0.139 A 
HETATM   11  N4  UNL     1      17.851 -16.469  24.869  1.00  0.00    -0.359 N 
HETATM   12  C21 UNL     1      18.292 -16.396  26.158  1.00  0.00     0.089 A 
ATOM     13  H4  UNL     1      17.110 -17.130  24.638  1.00  0.00     0.165 HD
HETATM   14  C22 UNL     1      19.289 -15.517  26.522  1.00  0.00     0.020 A 
HETATM   15  C23 UNL     1      19.821 -14.720  25.539  1.00  0.00     0.046 A 
HETATM   16  C24 UNL     1      19.357 -14.815  24.242  1.00  0.00     0.148 A 
HETATM   17  F4  UNL     1      19.939 -13.991  23.331  1.00  0.00    -0.203 F 
ENDBRANCH   7  10
ENDBRANCH   5   6
BRANCH   5  18
HETATM   18  C14 UNL     1      14.853 -16.531  20.631  1.00  0.00     0.018 C 
HETATM   19  C15 UNL     1      15.152 -17.972  20.939  1.00  0.00     0.007 C 
HETATM   20  C16 UNL     1      13.949 -18.798  21.229  1.00  0.00     0.000 C 
HETATM   21  C17 UNL     1      12.646 -18.264  20.779  1.00  0.00     0.000 C 
HETATM   22  C18 UNL     1      12.476 -16.795  20.805  1.00  0.00     0.000 C 
HETATM   23  C19 UNL     1      13.679 -16.112  21.472  1.00  0.00     0.007 C 
ENDBRANCH   5  18
ENDBRANCH   1   5
BRANCH   3  24
HETATM   24  C4  UNL     1      14.875 -12.855  18.447  1.00  0.00     0.185 C 
BRANCH  24  25
HETATM   25  C5  UNL     1      14.652 -12.841  16.973  1.00  0.00     0.152 C 
BRANCH  25  26
HETATM   26  C6  UNL     1      15.845 -12.577  16.126  1.00  0.00     0.390 C 
HETATM   27  F1  UNL     1      16.895 -12.264  17.007  1.00  0.00    -0.171 F 
HETATM   28  F2  UNL     1      16.257 -13.633  15.347  1.00  0.00    -0.171 F 
HETATM   29  F3  UNL     1      15.697 -11.477  15.312  1.00  0.00    -0.171 F 
ENDBRANCH  25  26
ENDBRANCH  24  25
BRANCH  24  30
HETATM   30  C7  UNL     1      13.818 -12.106  19.159  1.00  0.00     0.241 C 
HETATM   31  O3  UNL     1      13.156 -11.237  18.529  1.00  0.00    -0.271 OA
HETATM   32  N3  UNL     1      13.497 -12.306  20.527  1.00  0.00    -0.355 N 
ATOM     33  H3  UNL     1      14.029 -13.007  21.044  1.00  0.00     0.162 HD
BRANCH  32  34
HETATM   34  C8  UNL     1      12.481 -11.592  21.227  1.00  0.00     0.084 C 
HETATM   35  C9  UNL     1      13.075 -10.646  22.280  1.00  0.00     0.025 C 
HETATM   36  C10 UNL     1      11.866 -10.136  23.075  1.00  0.00     0.002 C 
HETATM   37  C11 UNL     1      11.539 -11.271  24.054  1.00  0.00     0.000 C 
HETATM   38  C12 UNL     1      11.550 -12.602  23.337  1.00  0.00     0.002 C 
HETATM   39  C13 UNL     1      11.416 -12.438  21.839  1.00  0.00     0.025 C 
ENDBRANCH  32  34
ENDBRANCH  24  30
ENDBRANCH   3  24
TORSDOF 9
ENDMDL
MODEL 4
REMARK VINA RESULT: -8.585439945      2.886      8.222
REMARK  9 active torsions:
REMARK  status: ('A' for Active; 'I' for Inactive)
REMARK       I    between atoms: C1_2  and  N1_3 
REMARK    1  A    between atoms: C1_2  and  C20_32 
REMARK    2  A    between atoms: N1_3  and  C2_5 
REMARK    3  A    between atoms: C2_5  and  C3_6 
REMARK    4  A    between atoms: C2_5  and  C14_26 
REMARK       I    between atoms: C3_6  and  N2_8 
REMARK    5  A    between atoms: N2_8  and  C4_10 
REMARK    6  A    between atoms: C4_10  and  C5_11 
REMARK    7  A    between atoms: C4_10  and  C7_16 
REMARK    8  A    between atoms: C5_11  and  C6_12 
REMARK       I    between atoms: C7_16  and  N3_18 
REMARK    9  A    between atoms: N3_18  and  C8_20 
ROOT
HETATM    1  C3  UNL     1      17.580 -14.641  21.704  1.00  0.00     0.241 C 
HETATM    2  O2  UNL     1      16.942 -15.044  20.692  1.00  0.00    -0.271 OA
HETATM    3  N2  UNL     1      18.093 -13.326  21.719  1.00  0.00    -0.346 N 
ATOM      4  H2  UNL     1      18.606 -13.014  22.544  1.00  0.00     0.163 HD
ENDROOT
BRANCH   1   5
HETATM    5  C2  UNL     1      17.742 -15.598  22.820  1.00  0.00     0.181 C 
BRANCH   5   6
HETATM    6  N1  UNL     1      18.183 -16.886  22.402  1.00  0.00    -0.342 N 
HETATM    7  C1  UNL     1      17.373 -18.049  22.516  1.00  0.00     0.272 C 
HETATM    8  O1  UNL     1      16.211 -17.891  23.018  1.00  0.00    -0.266 OA
ATOM      9  H1  UNL     1      19.118 -16.978  22.004  1.00  0.00     0.163 HD
BRANCH   7  10
HETATM   10  C20 UNL     1      17.826 -19.365  22.087  1.00  0.00     0.139 A 
HETATM   11  N4  UNL     1      18.463 -20.208  22.912  1.00  0.00    -0.359 N 
HETATM   12  C21 UNL     1      18.883 -21.440  22.505  1.00  0.00     0.089 A 
ATOM     13  H4  UNL     1      18.638 -19.919  23.874  1.00  0.00     0.165 HD
HETATM   14  C22 UNL     1      18.672 -21.876  21.216  1.00  0.00     0.020 A 
HETATM   15  C23 UNL     1      18.021 -21.024  20.357  1.00  0.00     0.046 A 
HETATM   16  C24 UNL     1      17.604 -19.782  20.795  1.00  0.00     0.148 A 
HETATM   17  F4  UNL     1      16.968 -19.003  19.882  1.00  0.00    -0.203 F 
ENDBRANCH   7  10
ENDBRANCH   5   6
BRANCH   5  18
HETATM   18  C14 UNL     1      18.588 -14.985  23.904  1.00  0.00     0.018 C 
HETATM   19  C15 UNL     1      18.280 -15.593  25.245  1.00  0.00     0.007 C 
HETATM   20  C16 UNL     1      19.347 -15.397  26.263  1.00  0.00     0.000 C 
HETATM   21  C17 UNL     1      20.328 -14.322  26.007  1.00  0.00     0.000 C 
HETATM   22  C18 UNL     1      20.690 -14.063  24.597  1.00  0.00     0.000 C 
HETATM   23  C19 UNL     1      20.066 -15.113  23.665  1.00  0.00     0.007 C 
ENDBRANCH   5  18
ENDBRANCH   1   5
BRANCH   3  24
HETATM   24  C4  UNL     1      17.929 -12.411  20.636  1.00  0.00     0.185 C 
BRANCH  24  25
HETATM   25  C5  UNL     1      18.700 -12.722  19.398  1.00  0.00     0.152 C 
BRANCH  25  26
HETATM   26  C6  UNL     1      20.152 -12.989  19.572  1.00  0.00     0.390 C 
HETATM   27  F1  UNL     1      20.732 -12.875  18.297  1.00  0.00    -0.171 F 
HETATM   28  F2  UNL     1      20.812 -12.118  20.408  1.00  0.00    -0.171 F 
HETATM   29  F3  UNL     1      20.418 -14.272  19.993  1.00  0.00    -0.171 F 
ENDBRANCH  25  26
ENDBRANCH  24  25
BRANCH  24  30
HETATM   30  C7  UNL     1      16.499 -12.188  20.338  1.00  0.00     0.241 C 
HETATM   31  O3  UNL     1      16.152 -11.953  19.149  1.00  0.00    -0.271 OA
HETATM   32  N3  UNL     1      15.476 -12.221  21.322  1.00  0.00    -0.355 N 
ATOM     33  H3  UNL     1      15.749 -12.410  22.287  1.00  0.00     0.162 HD
BRANCH  32  34
HETATM   34  C8  UNL     1      14.092 -12.009  21.051  1.00  0.00     0.084 C 
HETATM   35  C9  UNL     1      13.508 -10.892  21.926  1.00  0.00     0.025 C 
HETATM   36  C10 UNL     1      11.996 -10.946  21.671  1.00  0.00     0.002 C 
HETATM   37  C11 UNL     1      11.497 -12.103  22.545  1.00  0.00     0.000 C 
HETATM   38  C12 UNL     1      12.401 -13.305  22.390  1.00  0.00     0.002 C 
HETATM   39  C13 UNL     1      13.235 -13.226  21.131  1.00  0.00     0.025 C 
ENDBRANCH  32  34
ENDBRANCH  24  30
ENDBRANCH   3  24
TORSDOF 9
ENDMDL
MODEL 5
REMARK VINA RESULT: -8.556018606      2.301      3.558
REMARK  9 active torsions:
REMARK  status: ('A' for Active; 'I' for Inactive)
REMARK       I    between atoms: C1_2  and  N1_3 
REMARK    1  A    between atoms: C1_2  and  C20_32 
REMARK    2  A    between atoms: N1_3  and  C2_5 
REMARK    3  A    between atoms: C2_5  and  C3_6 
REMARK    4  A    between atoms: C2_5  and  C14_26 
REMARK       I    between atoms: C3_6  and  N2_8 
REMARK    5  A    between atoms: N2_8  and  C4_10 
REMARK    6  A    between atoms: C4_10  and  C5_11 
REMARK    7  A    between atoms: C4_10  and  C7_16 
REMARK    8  A    between atoms: C5_11  and  C6_12 
REMARK       I    between atoms: C7_16  and  N3_18 
REMARK    9  A    between atoms: N3_18  and  C8_20 
ROOT
HETATM    1  C3  UNL     1      14.733 -16.085  21.029  1.00  0.00     0.241 C 
HETATM    2  O2  UNL     1      15.196 -17.014  20.311  1.00  0.00    -0.271 OA
HETATM    3  N2  UNL     1      15.575 -15.015  21.401  1.00  0.00    -0.346 N 
ATOM      4  H2  UNL     1      15.186 -14.271  21.982  1.00  0.00     0.163 HD
ENDROOT
BRANCH   1   5
HETATM    5  C2  UNL     1      13.314 -16.192  21.432  1.00  0.00     0.181 C 
BRANCH   5   6
HETATM    6  N1  UNL     1      12.861 -15.086  22.206  1.00  0.00    -0.342 N 
HETATM    7  C1  UNL     1      12.801 -13.762  21.691  1.00  0.00     0.272 C 
HETATM    8  O1  UNL     1      13.176 -13.600  20.483  1.00  0.00    -0.266 OA
ATOM      9  H1  UNL     1      12.568 -15.250  23.169  1.00  0.00     0.163 HD
BRANCH   7  10
HETATM   10  C20 UNL     1      12.337 -12.633  22.484  1.00  0.00     0.139 A 
HETATM   11  N4  UNL     1      11.383 -12.756  23.417  1.00  0.00    -0.359 N 
HETATM   12  C21 UNL     1      10.954 -11.695  24.159  1.00  0.00     0.089 A 
ATOM     13  H4  UNL     1      10.965 -13.672  23.577  1.00  0.00     0.165 HD
HETATM   14  C22 UNL     1      11.486 -10.437  23.979  1.00  0.00     0.020 A 
HETATM   15  C23 UNL     1      12.465 -10.293  23.026  1.00  0.00     0.046 A 
HETATM   16  C24 UNL     1      12.882 -11.384  22.290  1.00  0.00     0.148 A 
HETATM   17  F4  UNL     1      13.854 -11.155  21.369  1.00  0.00    -0.203 F 
ENDBRANCH   7  10
ENDBRANCH   5   6
BRANCH   5  18
HETATM   18  C14 UNL     1      12.458 -16.486  20.229  1.00  0.00     0.018 C 
HETATM   19  C15 UNL     1      13.231 -16.300  18.952  1.00  0.00     0.007 C 
HETATM   20  C16 UNL     1      12.640 -16.990  17.774  1.00  0.00     0.000 C 
HETATM   21  C17 UNL     1      11.219 -17.386  17.874  1.00  0.00     0.000 C 
HETATM   22  C18 UNL     1      10.725 -17.791  19.207  1.00  0.00     0.000 C 
HETATM   23  C19 UNL     1      11.877 -17.872  20.221  1.00  0.00     0.007 C 
ENDBRANCH   5  18
ENDBRANCH   1   5
BRANCH   3  24
HETATM   24  C4  UNL     1      16.943 -14.922  21.005  1.00  0.00     0.185 C 
BRANCH  24  25
HETATM   25  C5  UNL     1      17.392 -13.585  20.520  1.00  0.00     0.152 C 
BRANCH  25  26
HETATM   26  C6  UNL     1      16.654 -13.021  19.359  1.00  0.00     0.390 C 
HETATM   27  F1  UNL     1      17.628 -12.569  18.452  1.00  0.00    -0.171 F 
HETATM   28  F2  UNL     1      15.844 -13.910  18.691  1.00  0.00    -0.171 F 
HETATM   29  F3  UNL     1      15.901 -11.916  19.684  1.00  0.00    -0.171 F 
ENDBRANCH  25  26
ENDBRANCH  24  25
BRANCH  24  30
HETATM   30  C7  UNL     1      17.839 -15.441  22.059  1.00  0.00     0.241 C 
HETATM   31  O3  UNL     1      17.889 -16.684  22.261  1.00  0.00    -0.271 OA
HETATM   32  N3  UNL     1      18.661 -14.614  22.871  1.00  0.00    -0.355 N 
ATOM     33  H3  UNL     1      18.626 -13.607  22.713  1.00  0.00     0.162 HD
BRANCH  32  34
HETATM   34  C8  UNL     1      19.531 -15.100  23.891  1.00  0.00     0.084 C 
HETATM   35  C9  UNL     1      18.813 -15.212  25.242  1.00  0.00     0.025 C 
HETATM   36  C10 UNL     1      19.925 -15.527  26.251  1.00  0.00     0.002 C 
HETATM   37  C11 UNL     1      20.582 -14.171  26.539  1.00  0.00     0.000 C 
HETATM   38  C12 UNL     1      20.830 -13.424  25.248  1.00  0.00     0.002 C 
HETATM   39  C13 UNL     1      20.808 -14.345  24.049  1.00  0.00     0.025 C 
ENDBRANCH  32  34
ENDBRANCH  24  30
ENDBRANCH   3  24
TORSDOF 9
ENDMDL
