MODEL 1
REMARK VINA RESULT: -7.270547589      0.000      0.000
REMARK  13 active torsions:
REMARK  status: ('A' for Active; 'I' for Inactive)
REMARK    1  A    between atoms: C2_2  and  C5_5 
REMARK       I    between atoms: C5_5  and  N1_7 
REMARK    2  A    between atoms: C7_9  and  C8_10 
REMARK    3  A    between atoms: C8_10  and  C9_11 
REMARK    4  A    between atoms: C9_11  and  O2_12 
REMARK    5  A    between atoms: O2_12  and  N2_13 
REMARK       I    between atoms: N2_13  and  C10_15 
REMARK       I    between atoms: C10_15  and  N3_17 
REMARK    6  A    between atoms: N3_17  and  C11_19 
REMARK    7  A    between atoms: C11_19  and  C12_20 
REMARK    8  A    between atoms: C11_19  and  C14_27 
REMARK    9  A    between atoms: C12_20  and  O4_21 
REMARK   10  A    between atoms: C12_20  and  C13_23 
REMARK   11  A    between atoms: C18_31  and  N4_32 
REMARK   12  A    between atoms: N4_32  and  C19_34 
REMARK   13  A    between atoms: C19_34  and  C20_35 
ROOT
HETATM    1  O2  UNL     1      16.498 -13.816  22.222  1.00  0.00    -0.276 OA
ENDROOT
BRANCH   1   2
HETATM    2  C9  UNL     1      16.147 -13.216  21.039  1.00  0.00     0.202 C 
BRANCH   2   3
HETATM    3  C8  UNL     1      14.956 -12.340  21.213  1.00  0.00     0.037 C 
BRANCH   3   4
HETATM    4  C7  UNL     1      13.742 -12.923  20.548  1.00  0.00     0.030 C 
HETATM    5  C6  UNL     1      14.069 -13.555  19.220  1.00  0.00     0.132 C 
HETATM    6  N1  UNL     1      13.346 -14.828  19.173  1.00  0.00    -0.349 N 
HETATM    7  C5  UNL     1      13.584 -15.833  18.219  1.00  0.00     0.227 C 
HETATM    8  C21 UNL     1      12.380 -14.801  20.283  1.00  0.00     0.151 C 
HETATM    9  O1  UNL     1      14.470 -15.634  17.348  1.00  0.00    -0.273 OA
HETATM   10  C18 UNL     1      13.269 -14.155  21.356  1.00  0.00     0.104 C 
BRANCH   7  11
HETATM   11  C2  UNL     1      12.837 -17.120  18.189  1.00  0.00     0.030 C 
HETATM   12  C1  UNL     1      13.306 -17.928  16.995  1.00  0.00     0.025 C 
HETATM   13  C3  UNL     1      11.358 -16.948  18.081  1.00  0.00     0.025 C 
HETATM   14  C4  UNL     1      13.136 -17.965  19.414  1.00  0.00     0.025 C 
ENDBRANCH   7  11
BRANCH  10  15
HETATM   15  N4  UNL     1      12.570 -13.780  22.505  1.00  0.00    -0.395 N 
ATOM     16  H4  UNL     1      12.813 -14.226  23.390  1.00  0.00     0.159 HD
BRANCH  15  17
HETATM   17  C19 UNL     1      11.559 -12.828  22.498  1.00  0.00     0.071 C 
BRANCH  17  18
HETATM   18  C20 UNL     1      11.558 -11.720  23.477  1.00  0.00     0.158 C 
HETATM   19 CL1  UNL     1      12.523 -10.315  22.996  1.00  0.00    -0.125 Cl
ENDBRANCH  17  18
ENDBRANCH  15  17
ENDBRANCH  10  15
ENDBRANCH   3   4
ENDBRANCH   2   3
ENDBRANCH   1   2
BRANCH   1  20
HETATM   20  N2  UNL     1      17.749 -14.348  22.151  1.00  0.00    -0.217 N 
HETATM   21  C10 UNL     1      18.339 -14.878  23.326  1.00  0.00     0.340 C 
HETATM   22  O3  UNL     1      17.731 -14.857  24.421  1.00  0.00    -0.245 OA
HETATM   23  N3  UNL     1      19.643 -15.455  23.308  1.00  0.00    -0.333 N 
ATOM     24  H3  UNL     1      20.157 -15.483  22.428  1.00  0.00     0.164 HD
ATOM     25  H2  UNL     1      18.254 -14.365  21.265  1.00  0.00     0.199 HD
BRANCH  23  26
HETATM   26  C11 UNL     1      20.260 -15.999  24.496  1.00  0.00     0.131 C 
BRANCH  26  27
HETATM   27  C12 UNL     1      21.373 -15.097  24.933  1.00  0.00     0.249 C 
BRANCH  27  28
HETATM   28  O4  UNL     1      21.708 -14.207  23.904  1.00  0.00    -0.384 OA
ATOM     29  H4  UNL     1      22.544 -14.446  23.522  1.00  0.00     0.210 HD
ENDBRANCH  27  28
BRANCH  27  30
HETATM   30  C13 UNL     1      20.978 -14.267  26.127  1.00  0.00     0.415 C 
HETATM   31  F1  UNL     1      22.018 -14.440  27.059  1.00  0.00    -0.168 F 
HETATM   32  F2  UNL     1      20.934 -12.902  25.817  1.00  0.00    -0.168 F 
HETATM   33  F3  UNL     1      19.817 -14.686  26.728  1.00  0.00    -0.168 F 
ENDBRANCH  27  30
ENDBRANCH  26  27
BRANCH  26  34
HETATM   34  C14 UNL     1      20.770 -17.404  24.236  1.00  0.00    -0.028 C 
HETATM   35  C15 UNL     1      22.067 -17.670  24.949  1.00  0.00     0.016 C 
HETATM   36  C16 UNL     1      19.732 -18.364  24.795  1.00  0.00     0.016 C 
HETATM   37  C17 UNL     1      20.999 -17.679  22.779  1.00  0.00     0.016 C 
ENDBRANCH  26  34
ENDBRANCH  23  26
ENDBRANCH   1  20
TORSDOF 13
ENDMDL
MODEL 2
REMARK VINA RESULT: -7.236860128      1.323      1.679
REMARK  13 active torsions:
REMARK  status: ('A' for Active; 'I' for Inactive)
REMARK    1  A    between atoms: C2_2  and  C5_5 
REMARK       I    between atoms: C5_5  and  N1_7 
REMARK    2  A    between atoms: C7_9  and  C8_10 
REMARK    3  A    between atoms: C8_10  and  C9_11 
REMARK    4  A    between atoms: C9_11  and  O2_12 
REMARK    5  A    between atoms: O2_12  and  N2_13 
REMARK       I    between atoms: N2_13  and  C10_15 
REMARK       I    between atoms: C10_15  and  N3_17 
REMARK    6  A    between atoms: N3_17  and  C11_19 
REMARK    7  A    between atoms: C11_19  and  C12_20 
REMARK    8  A    between atoms: C11_19  and  C14_27 
REMARK    9  A    between atoms: C12_20  and  O4_21 
REMARK   10  A    between atoms: C12_20  and  C13_23 
REMARK   11  A    between atoms: C18_31  and  N4_32 
REMARK   12  A    between atoms: N4_32  and  C19_34 
REMARK   13  A    between atoms: C19_34  and  C20_35 
ROOT
HETATM    1  O2  UNL     1      17.674 -12.102  20.149  1.00  0.00    -0.276 OA
ENDROOT
BRANCH   1   2
HETATM    2  C9  UNL     1      16.521 -12.624  19.616  1.00  0.00     0.202 C 
BRANCH   2   3
HETATM    3  C8  UNL     1      15.326 -12.184  20.387  1.00  0.00     0.037 C 
BRANCH   3   4
HETATM    4  C7  UNL     1      14.085 -12.897  19.933  1.00  0.00     0.030 C 
HETATM    5  C6  UNL     1      14.277 -13.585  18.607  1.00  0.00     0.132 C 
HETATM    6  N1  UNL     1      13.662 -14.909  18.728  1.00  0.00    -0.349 N 
HETATM    7  C5  UNL     1      13.849 -15.952  17.803  1.00  0.00     0.227 C 
HETATM    8  C21 UNL     1      12.859 -14.885  19.962  1.00  0.00     0.151 C 
HETATM    9  O1  UNL     1      14.588 -15.742  16.806  1.00  0.00    -0.273 OA
HETATM   10  C18 UNL     1      13.831 -14.108  20.862  1.00  0.00     0.104 C 
BRANCH   7  11
HETATM   11  C2  UNL     1      13.215 -17.290  17.946  1.00  0.00     0.030 C 
HETATM   12  C1  UNL     1      13.603 -18.143  16.755  1.00  0.00     0.025 C 
HETATM   13  C3  UNL     1      11.725 -17.238  18.014  1.00  0.00     0.025 C 
HETATM   14  C4  UNL     1      13.729 -18.020  19.174  1.00  0.00     0.025 C 
ENDBRANCH   7  11
BRANCH  10  15
HETATM   15  N4  UNL     1      13.268 -13.715  22.078  1.00  0.00    -0.395 N 
ATOM     16  H4  UNL     1      13.799 -13.876  22.934  1.00  0.00     0.159 HD
BRANCH  15  17
HETATM   17  C19 UNL     1      12.019 -13.116  22.174  1.00  0.00     0.071 C 
BRANCH  17  18
HETATM   18  C20 UNL     1      11.830 -11.887  22.975  1.00  0.00     0.158 C 
HETATM   19 CL1  UNL     1      12.900 -10.548  22.529  1.00  0.00    -0.125 Cl
ENDBRANCH  17  18
ENDBRANCH  15  17
ENDBRANCH  10  15
ENDBRANCH   3   4
ENDBRANCH   2   3
ENDBRANCH   1   2
BRANCH   1  20
HETATM   20  N2  UNL     1      18.611 -13.071  20.337  1.00  0.00    -0.217 N 
HETATM   21  C10 UNL     1      18.552 -13.867  21.509  1.00  0.00     0.340 C 
HETATM   22  O3  UNL     1      17.659 -13.687  22.369  1.00  0.00    -0.245 OA
HETATM   23  N3  UNL     1      19.502 -14.900  21.754  1.00  0.00    -0.333 N 
ATOM     24  H3  UNL     1      20.239 -15.066  21.068  1.00  0.00     0.164 HD
ATOM     25  H2  UNL     1      19.345 -13.222  19.645  1.00  0.00     0.199 HD
BRANCH  23  26
HETATM   26  C11 UNL     1      19.457 -15.721  22.943  1.00  0.00     0.131 C 
BRANCH  26  27
HETATM   27  C12 UNL     1      20.605 -15.361  23.836  1.00  0.00     0.249 C 
BRANCH  27  28
HETATM   28  O4  UNL     1      21.526 -14.562  23.144  1.00  0.00    -0.384 OA
ATOM     29  H4  UNL     1      21.697 -13.764  23.629  1.00  0.00     0.210 HD
ENDBRANCH  27  28
BRANCH  27  30
HETATM   30  C13 UNL     1      20.148 -14.574  25.037  1.00  0.00     0.415 C 
HETATM   31  F1  UNL     1      18.747 -14.699  25.050  1.00  0.00    -0.168 F 
HETATM   32  F2  UNL     1      20.618 -15.133  26.232  1.00  0.00    -0.168 F 
HETATM   33  F3  UNL     1      20.438 -13.234  24.957  1.00  0.00    -0.168 F 
ENDBRANCH  27  30
ENDBRANCH  26  27
BRANCH  26  34
HETATM   34  C14 UNL     1      19.495 -17.193  22.577  1.00  0.00    -0.028 C 
HETATM   35  C15 UNL     1      19.780 -18.060  23.772  1.00  0.00     0.016 C 
HETATM   36  C16 UNL     1      18.113 -17.558  22.061  1.00  0.00     0.016 C 
HETATM   37  C17 UNL     1      20.535 -17.508  21.542  1.00  0.00     0.016 C 
ENDBRANCH  26  34
ENDBRANCH  23  26
ENDBRANCH   1  20
TORSDOF 13
ENDMDL
MODEL 3
REMARK VINA RESULT: -7.226473352      2.262      2.923
REMARK  13 active torsions:
REMARK  status: ('A' for Active; 'I' for Inactive)
REMARK    1  A    between atoms: C2_2  and  C5_5 
REMARK       I    between atoms: C5_5  and  N1_7 
REMARK    2  A    between atoms: C7_9  and  C8_10 
REMARK    3  A    between atoms: C8_10  and  C9_11 
REMARK    4  A    between atoms: C9_11  and  O2_12 
REMARK    5  A    between atoms: O2_12  and  N2_13 
REMARK       I    between atoms: N2_13  and  C10_15 
REMARK       I    between atoms: C10_15  and  N3_17 
REMARK    6  A    between atoms: N3_17  and  C11_19 
REMARK    7  A    between atoms: C11_19  and  C12_20 
REMARK    8  A    between atoms: C11_19  and  C14_27 
REMARK    9  A    between atoms: C12_20  and  O4_21 
REMARK   10  A    between atoms: C12_20  and  C13_23 
REMARK   11  A    between atoms: C18_31  and  N4_32 
REMARK   12  A    between atoms: N4_32  and  C19_34 
REMARK   13  A    between atoms: C19_34  and  C20_35 
ROOT
HETATM    1  O2  UNL     1      17.883 -12.297  20.025  1.00  0.00    -0.276 OA
ENDROOT
BRANCH   1   2
HETATM    2  C9  UNL     1      16.656 -12.631  19.508  1.00  0.00     0.202 C 
BRANCH   2   3
HETATM    3  C8  UNL     1      15.563 -12.304  20.465  1.00  0.00     0.037 C 
BRANCH   3   4
HETATM    4  C7  UNL     1      14.246 -12.861  20.008  1.00  0.00     0.030 C 
HETATM    5  C6  UNL     1      14.369 -13.625  18.714  1.00  0.00     0.132 C 
HETATM    6  N1  UNL     1      13.579 -14.847  18.872  1.00  0.00    -0.349 N 
HETATM    7  C5  UNL     1      13.641 -15.943  17.993  1.00  0.00     0.227 C 
HETATM    8  C21 UNL     1      12.763 -14.664  20.083  1.00  0.00     0.151 C 
HETATM    9  O1  UNL     1      14.421 -15.877  17.008  1.00  0.00    -0.273 OA
HETATM   10  C18 UNL     1      13.813 -13.988  20.976  1.00  0.00     0.104 C 
BRANCH   7  11
HETATM   11  C2  UNL     1      12.829 -17.177  18.172  1.00  0.00     0.030 C 
HETATM   12  C1  UNL     1      13.077 -18.099  16.995  1.00  0.00     0.025 C 
HETATM   13  C3  UNL     1      11.361 -16.917  18.257  1.00  0.00     0.025 C 
HETATM   14  C4  UNL     1      13.254 -17.948  19.409  1.00  0.00     0.025 C 
ENDBRANCH   7  11
BRANCH  10  15
HETATM   15  N4  UNL     1      13.285 -13.472  22.162  1.00  0.00    -0.395 N 
ATOM     16  H4  UNL     1      13.886 -13.430  22.985  1.00  0.00     0.159 HD
BRANCH  15  17
HETATM   17  C19 UNL     1      11.978 -13.013  22.271  1.00  0.00     0.071 C 
BRANCH  17  18
HETATM   18  C20 UNL     1      11.698 -11.616  22.667  1.00  0.00     0.158 C 
HETATM   19 CL1  UNL     1      13.070 -10.512  22.482  1.00  0.00    -0.125 Cl
ENDBRANCH  17  18
ENDBRANCH  15  17
ENDBRANCH  10  15
ENDBRANCH   3   4
ENDBRANCH   2   3
ENDBRANCH   1   2
BRANCH   1  20
HETATM   20  N2  UNL     1      18.003 -12.713  21.315  1.00  0.00    -0.217 N 
HETATM   21  C10 UNL     1      18.868 -13.796  21.612  1.00  0.00     0.340 C 
HETATM   22  O3  UNL     1      19.513 -14.374  20.708  1.00  0.00    -0.245 OA
HETATM   23  N3  UNL     1      19.037 -14.268  22.946  1.00  0.00    -0.333 N 
ATOM     24  H3  UNL     1      18.522 -13.812  23.699  1.00  0.00     0.164 HD
ATOM     25  H2  UNL     1      17.477 -12.252  22.058  1.00  0.00     0.199 HD
BRANCH  23  26
HETATM   26  C11 UNL     1      19.915 -15.371  23.267  1.00  0.00     0.131 C 
BRANCH  26  27
HETATM   27  C12 UNL     1      19.094 -16.597  23.527  1.00  0.00     0.249 C 
BRANCH  27  28
HETATM   28  O4  UNL     1      17.779 -16.238  23.857  1.00  0.00    -0.384 OA
ATOM     29  H4  UNL     1      17.203 -16.386  23.117  1.00  0.00     0.210 HD
ENDBRANCH  27  28
BRANCH  27  30
HETATM   30  C13 UNL     1      19.020 -17.484  22.312  1.00  0.00     0.415 C 
HETATM   31  F1  UNL     1      20.239 -17.289  21.637  1.00  0.00    -0.168 F 
HETATM   32  F2  UNL     1      18.962 -18.838  22.663  1.00  0.00    -0.168 F 
HETATM   33  F3  UNL     1      18.013 -17.142  21.443  1.00  0.00    -0.168 F 
ENDBRANCH  27  30
ENDBRANCH  26  27
BRANCH  26  34
HETATM   34  C14 UNL     1      20.780 -15.032  24.466  1.00  0.00    -0.028 C 
HETATM   35  C15 UNL     1      21.089 -16.249  25.295  1.00  0.00     0.016 C 
HETATM   36  C16 UNL     1      22.097 -14.497  23.926  1.00  0.00     0.016 C 
HETATM   37  C17 UNL     1      20.144 -14.023  25.376  1.00  0.00     0.016 C 
ENDBRANCH  26  34
ENDBRANCH  23  26
ENDBRANCH   1  20
TORSDOF 13
ENDMDL
MODEL 4
REMARK VINA RESULT: -7.153532227      1.899      2.488
REMARK  13 active torsions:
REMARK  status: ('A' for Active; 'I' for Inactive)
REMARK    1  A    between atoms: C2_2  and  C5_5 
REMARK       I    between atoms: C5_5  and  N1_7 
REMARK    2  A    between atoms: C7_9  and  C8_10 
REMARK    3  A    between atoms: C8_10  and  C9_11 
REMARK    4  A    between atoms: C9_11  and  O2_12 
REMARK    5  A    between atoms: O2_12  and  N2_13 
REMARK       I    between atoms: N2_13  and  C10_15 
REMARK       I    between atoms: C10_15  and  N3_17 
REMARK    6  A    between atoms: N3_17  and  C11_19 
REMARK    7  A    between atoms: C11_19  and  C12_20 
REMARK    8  A    between atoms: C11_19  and  C14_27 
REMARK    9  A    between atoms: C12_20  and  O4_21 
REMARK   10  A    between atoms: C12_20  and  C13_23 
REMARK   11  A    between atoms: C18_31  and  N4_32 
REMARK   12  A    between atoms: N4_32  and  C19_34 
REMARK   13  A    between atoms: C19_34  and  C20_35 
ROOT
HETATM    1  O2  UNL     1      19.306 -13.960  20.334  1.00  0.00    -0.276 OA
ENDROOT
BRANCH   1   2
HETATM    2  C9  UNL     1      18.987 -12.625  20.338  1.00  0.00     0.202 C 
BRANCH   2   3
HETATM    3  C8  UNL     1      17.664 -12.390  20.980  1.00  0.00     0.037 C 
BRANCH   3   4
HETATM    4  C7  UNL     1      16.534 -12.778  20.071  1.00  0.00     0.030 C 
HETATM    5  C6  UNL     1      16.389 -14.272  19.948  1.00  0.00     0.132 C 
HETATM    6  N1  UNL     1      14.957 -14.564  20.037  1.00  0.00    -0.349 N 
HETATM    7  C5  UNL     1      14.426 -15.853  20.222  1.00  0.00     0.227 C 
HETATM    8  C21 UNL     1      14.258 -13.276  19.896  1.00  0.00     0.151 C 
HETATM    9  O1  UNL     1      15.224 -16.821  20.317  1.00  0.00    -0.273 OA
HETATM   10  C18 UNL     1      15.193 -12.405  20.748  1.00  0.00     0.104 C 
BRANCH   7  11
HETATM   11  C2  UNL     1      12.966 -16.127  20.311  1.00  0.00     0.030 C 
HETATM   12  C1  UNL     1      12.765 -17.573  20.717  1.00  0.00     0.025 C 
HETATM   13  C3  UNL     1      12.239 -15.900  19.027  1.00  0.00     0.025 C 
HETATM   14  C4  UNL     1      12.308 -15.289  21.392  1.00  0.00     0.025 C 
ENDBRANCH   7  11
BRANCH  10  15
HETATM   15  N4  UNL     1      14.927 -11.038  20.644  1.00  0.00    -0.395 N 
ATOM     16  H4  UNL     1      15.688 -10.412  20.377  1.00  0.00     0.159 HD
BRANCH  15  17
HETATM   17  C19 UNL     1      13.673 -10.491  20.887  1.00  0.00     0.071 C 
BRANCH  17  18
HETATM   18  C20 UNL     1      13.052 -10.590  22.225  1.00  0.00     0.158 C 
HETATM   19 CL1  UNL     1      11.701 -11.731  22.324  1.00  0.00    -0.125 Cl
ENDBRANCH  17  18
ENDBRANCH  15  17
ENDBRANCH  10  15
ENDBRANCH   3   4
ENDBRANCH   2   3
ENDBRANCH   1   2
BRANCH   1  20
HETATM   20  N2  UNL     1      20.431 -14.199  21.060  1.00  0.00    -0.217 N 
HETATM   21  C10 UNL     1      20.318 -14.862  22.308  1.00  0.00     0.340 C 
HETATM   22  O3  UNL     1      19.202 -15.222  22.750  1.00  0.00    -0.245 OA
HETATM   23  N3  UNL     1      21.464 -15.144  23.107  1.00  0.00    -0.333 N 
ATOM     24  H3  UNL     1      22.383 -14.859  22.769  1.00  0.00     0.164 HD
ATOM     25  H2  UNL     1      21.344 -13.904  20.712  1.00  0.00     0.199 HD
BRANCH  23  26
HETATM   26  C11 UNL     1      21.367 -15.818  24.382  1.00  0.00     0.131 C 
BRANCH  26  27
HETATM   27  C12 UNL     1      21.811 -14.888  25.469  1.00  0.00     0.249 C 
BRANCH  27  28
HETATM   28  O4  UNL     1      22.692 -13.927  24.954  1.00  0.00    -0.384 OA
ATOM     29  H4  UNL     1      23.069 -13.415  25.660  1.00  0.00     0.210 HD
ENDBRANCH  27  28
BRANCH  27  30
HETATM   30  C13 UNL     1      20.648 -14.145  26.074  1.00  0.00     0.415 C 
HETATM   31  F1  UNL     1      20.255 -13.214  25.097  1.00  0.00    -0.168 F 
HETATM   32  F2  UNL     1      19.553 -14.990  26.294  1.00  0.00    -0.168 F 
HETATM   33  F3  UNL     1      20.977 -13.438  27.204  1.00  0.00    -0.168 F 
ENDBRANCH  27  30
ENDBRANCH  26  27
BRANCH  26  34
HETATM   34  C14 UNL     1      22.199 -17.087  24.379  1.00  0.00    -0.028 C 
HETATM   35  C15 UNL     1      23.648 -16.805  24.087  1.00  0.00     0.016 C 
HETATM   36  C16 UNL     1      22.117 -17.675  25.778  1.00  0.00     0.016 C 
HETATM   37  C17 UNL     1      21.727 -18.089  23.366  1.00  0.00     0.016 C 
ENDBRANCH  26  34
ENDBRANCH  23  26
ENDBRANCH   1  20
TORSDOF 13
ENDMDL
MODEL 5
REMARK VINA RESULT: -7.136704783      3.979      8.318
REMARK  13 active torsions:
REMARK  status: ('A' for Active; 'I' for Inactive)
REMARK    1  A    between atoms: C2_2  and  C5_5 
REMARK       I    between atoms: C5_5  and  N1_7 
REMARK    2  A    between atoms: C7_9  and  C8_10 
REMARK    3  A    between atoms: C8_10  and  C9_11 
REMARK    4  A    between atoms: C9_11  and  O2_12 
REMARK    5  A    between atoms: O2_12  and  N2_13 
REMARK       I    between atoms: N2_13  and  C10_15 
REMARK       I    between atoms: C10_15  and  N3_17 
REMARK    6  A    between atoms: N3_17  and  C11_19 
REMARK    7  A    between atoms: C11_19  and  C12_20 
REMARK    8  A    between atoms: C11_19  and  C14_27 
REMARK    9  A    between atoms: C12_20  and  O4_21 
REMARK   10  A    between atoms: C12_20  and  C13_23 
REMARK   11  A    between atoms: C18_31  and  N4_32 
REMARK   12  A    between atoms: N4_32  and  C19_34 
REMARK   13  A    between atoms: C19_34  and  C20_35 
ROOT
HETATM    1  O2  UNL     1      18.363 -12.447  21.135  1.00  0.00    -0.276 OA
ENDROOT
BRANCH   1   2
HETATM    2  C9  UNL     1      19.106 -13.022  20.135  1.00  0.00     0.202 C 
BRANCH   2   3
HETATM    3  C8  UNL     1      19.979 -14.105  20.667  1.00  0.00     0.037 C 
BRANCH   3   4
HETATM    4  C7  UNL     1      19.416 -14.696  21.926  1.00  0.00     0.030 C 
HETATM    5  C6  UNL     1      18.380 -15.754  21.645  1.00  0.00     0.132 C 
HETATM    6  N1  UNL     1      18.657 -16.866  22.557  1.00  0.00    -0.349 N 
HETATM    7  C5  UNL     1      18.081 -18.143  22.439  1.00  0.00     0.227 C 
HETATM    8  C21 UNL     1      19.614 -16.359  23.555  1.00  0.00     0.151 C 
HETATM    9  O1  UNL     1      17.277 -18.352  21.495  1.00  0.00    -0.273 OA
HETATM   10  C18 UNL     1      20.514 -15.535  22.623  1.00  0.00     0.104 C 
BRANCH   7  11
HETATM   11  C2  UNL     1      18.378 -19.259  23.377  1.00  0.00     0.030 C 
HETATM   12  C1  UNL     1      17.695 -20.515  22.872  1.00  0.00     0.025 C 
HETATM   13  C3  UNL     1      17.909 -19.005  24.772  1.00  0.00     0.025 C 
HETATM   14  C4  UNL     1      19.862 -19.573  23.418  1.00  0.00     0.025 C 
ENDBRANCH   7  11
BRANCH  10  15
HETATM   15  N4  UNL     1      21.425 -14.725  23.305  1.00  0.00    -0.395 N 
ATOM     16  H4  UNL     1      21.545 -13.760  22.996  1.00  0.00     0.159 HD
BRANCH  15  17
HETATM   17  C19 UNL     1      22.176 -15.174  24.384  1.00  0.00     0.071 C 
BRANCH  17  18
HETATM   18  C20 UNL     1      21.835 -14.766  25.764  1.00  0.00     0.158 C 
HETATM   19 CL1  UNL     1      20.866 -13.288  25.874  1.00  0.00    -0.125 Cl
ENDBRANCH  17  18
ENDBRANCH  15  17
ENDBRANCH  10  15
ENDBRANCH   3   4
ENDBRANCH   2   3
ENDBRANCH   1   2
BRANCH   1  20
HETATM   20  N2  UNL     1      17.180 -11.975  20.659  1.00  0.00    -0.217 N 
HETATM   21  C10 UNL     1      15.969 -12.471  21.206  1.00  0.00     0.340 C 
HETATM   22  O3  UNL     1      15.977 -13.338  22.110  1.00  0.00    -0.245 OA
HETATM   23  N3  UNL     1      14.702 -12.006  20.750  1.00  0.00    -0.333 N 
ATOM     24  H3  UNL     1      14.671 -11.301  20.014  1.00  0.00     0.164 HD
ATOM     25  H2  UNL     1      17.163 -11.273  19.918  1.00  0.00     0.199 HD
BRANCH  23  26
HETATM   26  C11 UNL     1      13.458 -12.502  21.296  1.00  0.00     0.131 C 
BRANCH  26  27
HETATM   27  C12 UNL     1      12.794 -13.389  20.287  1.00  0.00     0.249 C 
BRANCH  27  28
HETATM   28  O4  UNL     1      13.385 -13.218  19.028  1.00  0.00    -0.384 OA
ATOM     29  H4  UNL     1      13.363 -14.033  18.542  1.00  0.00     0.210 HD
ENDBRANCH  27  28
BRANCH  27  30
HETATM   30  C13 UNL     1      12.934 -14.844  20.650  1.00  0.00     0.415 C 
HETATM   31  F1  UNL     1      14.227 -15.207  20.233  1.00  0.00    -0.168 F 
HETATM   32  F2  UNL     1      12.884 -15.039  22.036  1.00  0.00    -0.168 F 
HETATM   33  F3  UNL     1      12.048 -15.662  19.993  1.00  0.00    -0.168 F 
ENDBRANCH  27  30
ENDBRANCH  26  27
BRANCH  26  34
HETATM   34  C14 UNL     1      12.552 -11.351  21.688  1.00  0.00    -0.028 C 
HETATM   35  C15 UNL     1      12.090 -10.568  20.489  1.00  0.00     0.016 C 
HETATM   36  C16 UNL     1      11.322 -11.957  22.343  1.00  0.00     0.016 C 
HETATM   37  C17 UNL     1      13.214 -10.381  22.623  1.00  0.00     0.016 C 
ENDBRANCH  26  34
ENDBRANCH  23  26
ENDBRANCH   1  20
TORSDOF 13
ENDMDL
