MODEL 1
REMARK VINA RESULT: -8.558682414      0.000      0.000
REMARK  10 active torsions:
REMARK  status: ('A' for Active; 'I' for Inactive)
REMARK    1  A    between atoms: C5_5  and  C6_6 
REMARK    2  A    between atoms: C6_6  and  N1_7 
REMARK       I    between atoms: N1_7  and  C7_9 
REMARK    3  A    between atoms: C7_9  and  C8_11 
REMARK    4  A    between atoms: C8_11  and  C9_12 
REMARK    5  A    between atoms: C8_11  and  N2_15 
REMARK    6  A    between atoms: C9_12  and  O2_13 
REMARK       I    between atoms: N2_15  and  C10_17 
REMARK       I    between atoms: C10_17  and  N4_21 
REMARK    7  A    between atoms: N4_21  and  C11_22 
REMARK    8  A    between atoms: N4_21  and  C14_28 
REMARK    9  A    between atoms: C11_22  and  C12_23 
REMARK   10  A    between atoms: C12_23  and  C13_24 
ROOT
HETATM    1  C8  UNL     1      16.407 -14.399  20.575  1.00  0.00     0.215 C 
ENDROOT
BRANCH   1   2
HETATM    2  C7  UNL     1      17.767 -13.976  21.055  1.00  0.00     0.243 C 
HETATM    3  N1  UNL     1      18.813 -14.913  21.234  1.00  0.00    -0.359 N 
ATOM      4  H1  UNL     1      18.661 -15.902  21.036  1.00  0.00     0.162 HD
HETATM    5  O1  UNL     1      17.936 -12.758  21.289  1.00  0.00    -0.271 OA
BRANCH   3   6
HETATM    6  C6  UNL     1      20.086 -14.455  21.695  1.00  0.00     0.127 C 
BRANCH   6   7
HETATM    7  C5  UNL     1      20.469 -15.000  23.042  1.00  0.00     0.008 C 
HETATM    8  C4  UNL     1      20.265 -13.981  24.150  1.00  0.00     0.036 C 
HETATM    9  C2  UNL     1      21.102 -14.480  25.318  1.00  0.00     0.019 C 
HETATM   10  C1  UNL     1      20.847 -13.640  26.559  1.00  0.00     0.037 C 
HETATM   11  C3  UNL     1      22.555 -14.192  24.930  1.00  0.00     0.037 C 
HETATM   12  N5  UNL     1      20.991 -15.874  25.538  1.00  0.00    -0.405 N 
HETATM   13  C21 UNL     1      19.932 -16.549  24.881  1.00  0.00     0.019 C 
ATOM     14  H5  UNL     1      21.644 -16.371  26.143  1.00  0.00     0.154 HD
HETATM   15  C20 UNL     1      19.745 -16.238  23.437  1.00  0.00     0.036 C 
HETATM   16  C22 UNL     1      20.239 -18.055  24.966  1.00  0.00     0.037 C 
HETATM   17  C23 UNL     1      18.647 -16.356  25.685  1.00  0.00     0.037 C 
ENDBRANCH   6   7
ENDBRANCH   3   6
ENDBRANCH   1   2
BRANCH   1  18
HETATM   18  C9  UNL     1      16.278 -15.858  20.859  1.00  0.00     0.199 C 
BRANCH  18  19
HETATM   19  O2  UNL     1      16.248 -16.199  22.197  1.00  0.00    -0.398 OA
ATOM     20  H2  UNL     1      16.381 -17.121  22.384  1.00  0.00     0.209 HD
ENDBRANCH  18  19
ENDBRANCH   1  18
BRANCH   1  21
HETATM   21  N2  UNL     1      15.375 -13.629  21.175  1.00  0.00    -0.209 N 
HETATM   22  C10 UNL     1      14.272 -13.023  20.498  1.00  0.00     0.701 C 
HETATM   23  N3  UNL     1      14.468 -12.476  19.366  1.00  0.00    -0.054 N 
HETATM   24  N4  UNL     1      13.028 -13.084  21.173  1.00  0.00    -0.211 N 
HETATM   25  F1  UNL     1      13.614 -11.864  18.569  1.00  0.00    -0.086 F 
ATOM     26  H3  UNL     1      15.428 -12.517  19.025  1.00  0.00     0.218 HD
ATOM     27  H2  UNL     1      15.426 -13.495  22.185  1.00  0.00     0.178 HD
BRANCH  24  28
HETATM   28  C11 UNL     1      12.048 -14.042  20.779  1.00  0.00     0.150 C 
BRANCH  28  29
HETATM   29  C12 UNL     1      12.525 -15.131  19.868  1.00  0.00     0.137 C 
BRANCH  29  30
HETATM   30  C13 UNL     1      12.589 -16.403  20.730  1.00  0.00     0.389 C 
HETATM   31  F2  UNL     1      13.077 -16.084  21.995  1.00  0.00    -0.171 F 
HETATM   32  F3  UNL     1      11.391 -17.045  20.791  1.00  0.00    -0.171 F 
HETATM   33  F4  UNL     1      13.550 -17.218  20.141  1.00  0.00    -0.171 F 
ENDBRANCH  29  30
ENDBRANCH  28  29
ENDBRANCH  24  28
BRANCH  24  34
HETATM   34  C14 UNL     1      12.783 -12.162  22.240  1.00  0.00     0.102 C 
HETATM   35  C15 UNL     1      12.857 -10.720  21.795  1.00  0.00     0.026 C 
HETATM   36  C16 UNL     1      12.816  -9.732  22.914  1.00  0.00     0.002 C 
HETATM   37  C17 UNL     1      12.074 -10.267  24.124  1.00  0.00     0.000 C 
HETATM   38  C18 UNL     1      10.940 -11.127  23.601  1.00  0.00     0.002 C 
HETATM   39  C19 UNL     1      11.594 -12.403  23.080  1.00  0.00     0.026 C 
ENDBRANCH  24  34
ENDBRANCH   1  21
TORSDOF 10
ENDMDL
MODEL 2
REMARK VINA RESULT: -8.246529765      1.834      4.133
REMARK  10 active torsions:
REMARK  status: ('A' for Active; 'I' for Inactive)
REMARK    1  A    between atoms: C5_5  and  C6_6 
REMARK    2  A    between atoms: C6_6  and  N1_7 
REMARK       I    between atoms: N1_7  and  C7_9 
REMARK    3  A    between atoms: C7_9  and  C8_11 
REMARK    4  A    between atoms: C8_11  and  C9_12 
REMARK    5  A    between atoms: C8_11  and  N2_15 
REMARK    6  A    between atoms: C9_12  and  O2_13 
REMARK       I    between atoms: N2_15  and  C10_17 
REMARK       I    between atoms: C10_17  and  N4_21 
REMARK    7  A    between atoms: N4_21  and  C11_22 
REMARK    8  A    between atoms: N4_21  and  C14_28 
REMARK    9  A    between atoms: C11_22  and  C12_23 
REMARK   10  A    between atoms: C12_23  and  C13_24 
ROOT
HETATM    1  C8  UNL     1      16.813 -13.747  21.402  1.00  0.00     0.215 C 
ENDROOT
BRANCH   1   2
HETATM    2  C7  UNL     1      17.912 -14.763  21.534  1.00  0.00     0.243 C 
HETATM    3  N1  UNL     1      19.277 -14.385  21.520  1.00  0.00    -0.359 N 
ATOM      4  H1  UNL     1      19.540 -13.405  21.420  1.00  0.00     0.162 HD
HETATM    5  O1  UNL     1      17.570 -15.961  21.659  1.00  0.00    -0.271 OA
BRANCH   3   6
HETATM    6  C6  UNL     1      20.280 -15.395  21.646  1.00  0.00     0.127 C 
BRANCH   6   7
HETATM    7  C5  UNL     1      20.739 -15.613  23.060  1.00  0.00     0.008 C 
HETATM    8  C4  UNL     1      20.386 -14.444  23.963  1.00  0.00     0.036 C 
HETATM    9  C2  UNL     1      21.287 -14.587  25.180  1.00  0.00     0.019 C 
HETATM   10  C1  UNL     1      20.911 -13.573  26.248  1.00  0.00     0.037 C 
HETATM   11  C3  UNL     1      22.682 -14.169  24.705  1.00  0.00     0.037 C 
HETATM   12  N5  UNL     1      21.383 -15.914  25.660  1.00  0.00    -0.405 N 
HETATM   13  C21 UNL     1      20.435 -16.848  25.171  1.00  0.00     0.019 C 
ATOM     14  H5  UNL     1      22.102 -16.188  26.330  1.00  0.00     0.154 HD
HETATM   15  C20 UNL     1      20.205 -16.846  23.700  1.00  0.00     0.036 C 
HETATM   16  C22 UNL     1      20.961 -18.250  25.527  1.00  0.00     0.037 C 
HETATM   17  C23 UNL     1      19.136 -16.695  25.960  1.00  0.00     0.037 C 
ENDBRANCH   6   7
ENDBRANCH   3   6
ENDBRANCH   1   2
BRANCH   1  18
HETATM   18  C9  UNL     1      17.427 -12.513  20.829  1.00  0.00     0.199 C 
BRANCH  18  19
HETATM   19  O2  UNL     1      17.629 -12.534  19.463  1.00  0.00    -0.398 OA
ATOM     20  H2  UNL     1      17.901 -13.371  19.105  1.00  0.00     0.209 HD
ENDBRANCH  18  19
ENDBRANCH   1  18
BRANCH   1  21
HETATM   21  N2  UNL     1      15.734 -14.238  20.620  1.00  0.00    -0.209 N 
HETATM   22  C10 UNL     1      14.343 -14.051  20.889  1.00  0.00     0.701 C 
HETATM   23  N3  UNL     1      13.932 -14.124  22.091  1.00  0.00    -0.054 N 
HETATM   24  N4  UNL     1      13.527 -13.800  19.759  1.00  0.00    -0.211 N 
HETATM   25  F1  UNL     1      12.713 -13.988  22.572  1.00  0.00    -0.086 F 
ATOM     26  H3  UNL     1      14.654 -14.317  22.785  1.00  0.00     0.218 HD
ATOM     27  H2  UNL     1      15.974 -14.776  19.787  1.00  0.00     0.178 HD
BRANCH  24  28
HETATM   28  C11 UNL     1      13.098 -12.471  19.469  1.00  0.00     0.150 C 
BRANCH  28  29
HETATM   29  C12 UNL     1      13.604 -11.404  20.388  1.00  0.00     0.137 C 
BRANCH  29  30
HETATM   30  C13 UNL     1      12.356 -10.753  21.006  1.00  0.00     0.389 C 
HETATM   31  F2  UNL     1      12.695 -10.149  22.214  1.00  0.00    -0.171 F 
HETATM   32  F3  UNL     1      11.751  -9.883  20.151  1.00  0.00    -0.171 F 
HETATM   33  F4  UNL     1      11.495 -11.798  21.327  1.00  0.00    -0.171 F 
ENDBRANCH  29  30
ENDBRANCH  28  29
ENDBRANCH  24  28
BRANCH  24  34
HETATM   34  C14 UNL     1      13.142 -14.905  18.935  1.00  0.00     0.102 C 
HETATM   35  C15 UNL     1      14.320 -15.569  18.261  1.00  0.00     0.026 C 
HETATM   36  C16 UNL     1      13.943 -16.586  17.234  1.00  0.00     0.002 C 
HETATM   37  C17 UNL     1      12.592 -17.215  17.519  1.00  0.00     0.000 C 
HETATM   38  C18 UNL     1      12.467 -17.324  19.027  1.00  0.00     0.002 C 
HETATM   39  C19 UNL     1      12.231 -15.902  19.527  1.00  0.00     0.026 C 
ENDBRANCH  24  34
ENDBRANCH   1  21
TORSDOF 10
ENDMDL
MODEL 3
REMARK VINA RESULT: -8.238886238      2.486      3.479
REMARK  10 active torsions:
REMARK  status: ('A' for Active; 'I' for Inactive)
REMARK    1  A    between atoms: C5_5  and  C6_6 
REMARK    2  A    between atoms: C6_6  and  N1_7 
REMARK       I    between atoms: N1_7  and  C7_9 
REMARK    3  A    between atoms: C7_9  and  C8_11 
REMARK    4  A    between atoms: C8_11  and  C9_12 
REMARK    5  A    between atoms: C8_11  and  N2_15 
REMARK    6  A    between atoms: C9_12  and  O2_13 
REMARK       I    between atoms: N2_15  and  C10_17 
REMARK       I    between atoms: C10_17  and  N4_21 
REMARK    7  A    between atoms: N4_21  and  C11_22 
REMARK    8  A    between atoms: N4_21  and  C14_28 
REMARK    9  A    between atoms: C11_22  and  C12_23 
REMARK   10  A    between atoms: C12_23  and  C13_24 
ROOT
HETATM    1  C8  UNL     1      16.244 -16.146  20.996  1.00  0.00     0.215 C 
ENDROOT
BRANCH   1   2
HETATM    2  C7  UNL     1      16.697 -16.921  22.201  1.00  0.00     0.243 C 
HETATM    3  N1  UNL     1      17.408 -16.299  23.257  1.00  0.00    -0.359 N 
ATOM      4  H1  UNL     1      17.624 -15.304  23.218  1.00  0.00     0.162 HD
HETATM    5  O1  UNL     1      16.419 -18.141  22.234  1.00  0.00    -0.271 OA
BRANCH   3   6
HETATM    6  C6  UNL     1      17.817 -17.085  24.378  1.00  0.00     0.127 C 
BRANCH   6   7
HETATM    7  C5  UNL     1      19.201 -16.762  24.866  1.00  0.00     0.008 C 
HETATM    8  C4  UNL     1      20.275 -17.296  23.935  1.00  0.00     0.036 C 
HETATM    9  C2  UNL     1      21.554 -17.313  24.759  1.00  0.00     0.019 C 
HETATM   10  C1  UNL     1      22.749 -17.663  23.889  1.00  0.00     0.037 C 
HETATM   11  C3  UNL     1      21.400 -18.493  25.724  1.00  0.00     0.037 C 
HETATM   12  N5  UNL     1      21.737 -16.148  25.541  1.00  0.00    -0.405 N 
HETATM   13  C21 UNL     1      20.915 -15.032  25.242  1.00  0.00     0.019 C 
ATOM     14  H5  UNL     1      22.431 -16.112  26.288  1.00  0.00     0.154 HD
HETATM   15  C20 UNL     1      19.464 -15.311  25.063  1.00  0.00     0.036 C 
HETATM   16  C22 UNL     1      21.029 -14.060  26.429  1.00  0.00     0.037 C 
HETATM   17  C23 UNL     1      21.512 -14.284  24.051  1.00  0.00     0.037 C 
ENDBRANCH   6   7
ENDBRANCH   3   6
ENDBRANCH   1   2
BRANCH   1  18
HETATM   18  C9  UNL     1      15.531 -17.107  20.104  1.00  0.00     0.199 C 
BRANCH  18  19
HETATM   19  O2  UNL     1      14.193 -17.297  20.390  1.00  0.00    -0.398 OA
ATOM     20  H2  UNL     1      13.591 -16.750  19.900  1.00  0.00     0.209 HD
ENDBRANCH  18  19
ENDBRANCH   1  18
BRANCH   1  21
HETATM   21  N2  UNL     1      15.441 -15.033  21.359  1.00  0.00    -0.209 N 
HETATM   22  C10 UNL     1      15.654 -13.675  20.965  1.00  0.00     0.701 C 
HETATM   23  N3  UNL     1      16.841 -13.221  20.933  1.00  0.00    -0.054 N 
HETATM   24  N4  UNL     1      14.487 -12.938  20.645  1.00  0.00    -0.211 N 
HETATM   25  F1  UNL     1      17.274 -12.020  20.605  1.00  0.00    -0.086 F 
ATOM     26  H3  UNL     1      17.567 -13.886  21.199  1.00  0.00     0.218 HD
ATOM     27  H2  UNL     1      14.636 -15.218  21.958  1.00  0.00     0.178 HD
BRANCH  24  28
HETATM   28  C11 UNL     1      14.136 -12.714  19.281  1.00  0.00     0.150 C 
BRANCH  28  29
HETATM   29  C12 UNL     1      14.332 -13.873  18.355  1.00  0.00     0.137 C 
BRANCH  29  30
HETATM   30  C13 UNL     1      15.230 -13.357  17.218  1.00  0.00     0.389 C 
HETATM   31  F2  UNL     1      14.530 -12.422  16.460  1.00  0.00    -0.171 F 
HETATM   32  F3  UNL     1      16.411 -12.861  17.678  1.00  0.00    -0.171 F 
HETATM   33  F4  UNL     1      15.453 -14.444  16.379  1.00  0.00    -0.171 F 
ENDBRANCH  29  30
ENDBRANCH  28  29
ENDBRANCH  24  28
BRANCH  24  34
HETATM   34  C14 UNL     1      13.687 -12.424  21.715  1.00  0.00     0.102 C 
HETATM   35  C15 UNL     1      13.360 -10.959  21.548  1.00  0.00     0.026 C 
HETATM   36  C16 UNL     1      12.709 -10.338  22.740  1.00  0.00     0.002 C 
HETATM   37  C17 UNL     1      11.932 -11.350  23.562  1.00  0.00     0.000 C 
HETATM   38  C18 UNL     1      11.330 -12.341  22.584  1.00  0.00     0.002 C 
HETATM   39  C19 UNL     1      12.492 -13.201  22.096  1.00  0.00     0.026 C 
ENDBRANCH  24  34
ENDBRANCH   1  21
TORSDOF 10
ENDMDL
MODEL 4
REMARK VINA RESULT: -8.175026092      3.751      8.253
REMARK  10 active torsions:
REMARK  status: ('A' for Active; 'I' for Inactive)
REMARK    1  A    between atoms: C5_5  and  C6_6 
REMARK    2  A    between atoms: C6_6  and  N1_7 
REMARK       I    between atoms: N1_7  and  C7_9 
REMARK    3  A    between atoms: C7_9  and  C8_11 
REMARK    4  A    between atoms: C8_11  and  C9_12 
REMARK    5  A    between atoms: C8_11  and  N2_15 
REMARK    6  A    between atoms: C9_12  and  O2_13 
REMARK       I    between atoms: N2_15  and  C10_17 
REMARK       I    between atoms: C10_17  and  N4_21 
REMARK    7  A    between atoms: N4_21  and  C11_22 
REMARK    8  A    between atoms: N4_21  and  C14_28 
REMARK    9  A    between atoms: C11_22  and  C12_23 
REMARK   10  A    between atoms: C12_23  and  C13_24 
ROOT
HETATM    1  C8  UNL     1      18.001 -18.451  23.083  1.00  0.00     0.215 C 
ENDROOT
BRANCH   1   2
HETATM    2  C7  UNL     1      16.549 -18.766  22.859  1.00  0.00     0.243 C 
HETATM    3  N1  UNL     1      15.726 -17.937  22.060  1.00  0.00    -0.359 N 
ATOM      4  H1  UNL     1      16.109 -17.103  21.616  1.00  0.00     0.162 HD
HETATM    5  O1  UNL     1      16.097 -19.796  23.409  1.00  0.00    -0.271 OA
BRANCH   3   6
HETATM    6  C6  UNL     1      14.351 -18.283  21.883  1.00  0.00     0.127 C 
BRANCH   6   7
HETATM    7  C5  UNL     1      13.595 -17.320  21.012  1.00  0.00     0.008 C 
HETATM    8  C4  UNL     1      14.425 -16.100  20.655  1.00  0.00     0.036 C 
HETATM    9  C2  UNL     1      13.424 -15.049  20.199  1.00  0.00     0.019 C 
HETATM   10  C1  UNL     1      14.141 -13.829  19.643  1.00  0.00     0.037 C 
HETATM   11  C3  UNL     1      12.735 -14.561  21.478  1.00  0.00     0.037 C 
HETATM   12  N5  UNL     1      12.418 -15.560  19.345  1.00  0.00    -0.405 N 
HETATM   13  C21 UNL     1      12.631 -16.849  18.794  1.00  0.00     0.019 C 
ATOM     14  H5  UNL     1      11.576 -15.024  19.134  1.00  0.00     0.154 HD
HETATM   15  C20 UNL     1      13.090 -17.903  19.740  1.00  0.00     0.036 C 
HETATM   16  C22 UNL     1      11.280 -17.325  18.233  1.00  0.00     0.037 C 
HETATM   17  C23 UNL     1      13.549 -16.723  17.579  1.00  0.00     0.037 C 
ENDBRANCH   6   7
ENDBRANCH   3   6
ENDBRANCH   1   2
BRANCH   1  18
HETATM   18  C9  UNL     1      18.790 -19.457  22.312  1.00  0.00     0.199 C 
BRANCH  18  19
HETATM   19  O2  UNL     1      18.120 -20.053  21.262  1.00  0.00    -0.398 OA
ATOM     20  H2  UNL     1      18.498 -20.866  20.948  1.00  0.00     0.209 HD
ENDBRANCH  18  19
ENDBRANCH   1  18
BRANCH   1  21
HETATM   21  N2  UNL     1      18.311 -17.113  22.720  1.00  0.00    -0.209 N 
HETATM   22  C10 UNL     1      18.403 -15.997  23.608  1.00  0.00     0.701 C 
HETATM   23  N3  UNL     1      17.558 -15.890  24.552  1.00  0.00    -0.054 N 
HETATM   24  N4  UNL     1      19.454 -15.086  23.342  1.00  0.00    -0.211 N 
HETATM   25  F1  UNL     1      17.448 -14.960  25.480  1.00  0.00    -0.086 F 
ATOM     26  H3  UNL     1      16.861 -16.633  24.598  1.00  0.00     0.218 HD
ATOM     27  H2  UNL     1      18.484 -16.931  21.731  1.00  0.00     0.178 HD
BRANCH  24  28
HETATM   28  C11 UNL     1      20.645 -15.121  24.126  1.00  0.00     0.150 C 
BRANCH  28  29
HETATM   29  C12 UNL     1      20.978 -13.865  24.869  1.00  0.00     0.137 C 
BRANCH  29  30
HETATM   30  C13 UNL     1      20.970 -14.242  26.359  1.00  0.00     0.389 C 
HETATM   31  F2  UNL     1      19.805 -14.946  26.655  1.00  0.00    -0.171 F 
HETATM   32  F3  UNL     1      22.088 -14.928  26.724  1.00  0.00    -0.171 F 
HETATM   33  F4  UNL     1      20.884 -13.043  27.060  1.00  0.00    -0.171 F 
ENDBRANCH  29  30
ENDBRANCH  28  29
ENDBRANCH  24  28
BRANCH  24  34
HETATM   34  C14 UNL     1      19.284 -14.136  22.286  1.00  0.00     0.102 C 
HETATM   35  C15 UNL     1      20.119 -14.460  21.069  1.00  0.00     0.026 C 
HETATM   36  C16 UNL     1      20.131 -13.385  20.031  1.00  0.00     0.002 C 
HETATM   37  C17 UNL     1      18.868 -12.544  20.064  1.00  0.00     0.000 C 
HETATM   38  C18 UNL     1      17.727 -13.475  20.426  1.00  0.00     0.002 C 
HETATM   39  C19 UNL     1      17.901 -13.786  21.909  1.00  0.00     0.026 C 
ENDBRANCH  24  34
ENDBRANCH   1  21
TORSDOF 10
ENDMDL
MODEL 5
REMARK VINA RESULT: -8.143373629      2.445      4.091
REMARK  10 active torsions:
REMARK  status: ('A' for Active; 'I' for Inactive)
REMARK    1  A    between atoms: C5_5  and  C6_6 
REMARK    2  A    between atoms: C6_6  and  N1_7 
REMARK       I    between atoms: N1_7  and  C7_9 
REMARK    3  A    between atoms: C7_9  and  C8_11 
REMARK    4  A    between atoms: C8_11  and  C9_12 
REMARK    5  A    between atoms: C8_11  and  N2_15 
REMARK    6  A    between atoms: C9_12  and  O2_13 
REMARK       I    between atoms: N2_15  and  C10_17 
REMARK       I    between atoms: C10_17  and  N4_21 
REMARK    7  A    between atoms: N4_21  and  C11_22 
REMARK    8  A    between atoms: N4_21  and  C14_28 
REMARK    9  A    between atoms: C11_22  and  C12_23 
REMARK   10  A    between atoms: C12_23  and  C13_24 
ROOT
HETATM    1  C8  UNL     1      15.974 -13.202  21.485  1.00  0.00     0.215 C 
ENDROOT
BRANCH   1   2
HETATM    2  C7  UNL     1      17.453 -13.464  21.482  1.00  0.00     0.243 C 
HETATM    3  N1  UNL     1      17.982 -14.726  21.846  1.00  0.00    -0.359 N 
ATOM      4  H1  UNL     1      17.361 -15.488  22.117  1.00  0.00     0.162 HD
HETATM    5  O1  UNL     1      18.200 -12.519  21.143  1.00  0.00    -0.271 OA
BRANCH   3   6
HETATM    6  C6  UNL     1      19.398 -14.919  21.828  1.00  0.00     0.127 C 
BRANCH   6   7
HETATM    7  C5  UNL     1      19.968 -15.312  23.162  1.00  0.00     0.008 C 
HETATM    8  C4  UNL     1      19.954 -14.161  24.152  1.00  0.00     0.036 C 
HETATM    9  C2  UNL     1      20.947 -14.548  25.238  1.00  0.00     0.019 C 
HETATM   10  C1  UNL     1      20.899 -13.556  26.388  1.00  0.00     0.037 C 
HETATM   11  C3  UNL     1      22.331 -14.364  24.607  1.00  0.00     0.037 C 
HETATM   12  N5  UNL     1      20.842 -15.900  25.643  1.00  0.00    -0.405 N 
HETATM   13  C21 UNL     1      19.683 -16.608  25.238  1.00  0.00     0.019 C 
ATOM     14  H5  UNL     1      21.568 -16.345  26.203  1.00  0.00     0.154 HD
HETATM   15  C20 UNL     1      19.288 -16.465  23.810  1.00  0.00     0.036 C 
HETATM   16  C22 UNL     1      19.969 -18.103  25.463  1.00  0.00     0.037 C 
HETATM   17  C23 UNL     1      18.538 -16.270  26.192  1.00  0.00     0.037 C 
ENDBRANCH   6   7
ENDBRANCH   3   6
ENDBRANCH   1   2
BRANCH   1  18
HETATM   18  C9  UNL     1      15.690 -12.295  20.334  1.00  0.00     0.199 C 
BRANCH  18  19
HETATM   19  O2  UNL     1      14.859 -11.228  20.615  1.00  0.00    -0.398 OA
ATOM     20  H2  UNL     1      14.402 -10.862  19.867  1.00  0.00     0.209 HD
ENDBRANCH  18  19
ENDBRANCH   1  18
BRANCH   1  21
HETATM   21  N2  UNL     1      15.226 -14.408  21.432  1.00  0.00    -0.209 N 
HETATM   22  C10 UNL     1      13.809 -14.517  21.276  1.00  0.00     0.701 C 
HETATM   23  N3  UNL     1      13.057 -13.695  21.890  1.00  0.00    -0.054 N 
HETATM   24  N4  UNL     1      13.363 -15.564  20.432  1.00  0.00    -0.211 N 
HETATM   25  F1  UNL     1      11.742 -13.604  21.897  1.00  0.00    -0.086 F 
ATOM     26  H3  UNL     1      13.543 -13.005  22.461  1.00  0.00     0.218 HD
ATOM     27  H2  UNL     1      15.750 -15.280  21.514  1.00  0.00     0.178 HD
BRANCH  24  28
HETATM   28  C11 UNL     1      12.947 -15.278  19.099  1.00  0.00     0.150 C 
BRANCH  28  29
HETATM   29  C12 UNL     1      14.016 -14.799  18.167  1.00  0.00     0.137 C 
BRANCH  29  30
HETATM   30  C13 UNL     1      14.535 -16.052  17.442  1.00  0.00     0.389 C 
HETATM   31  F2  UNL     1      15.177 -15.676  16.265  1.00  0.00    -0.171 F 
HETATM   32  F3  UNL     1      15.332 -16.815  18.238  1.00  0.00    -0.171 F 
HETATM   33  F4  UNL     1      13.407 -16.767  17.053  1.00  0.00    -0.171 F 
ENDBRANCH  29  30
ENDBRANCH  28  29
ENDBRANCH  24  28
BRANCH  24  34
HETATM   34  C14 UNL     1      13.333 -16.896  20.954  1.00  0.00     0.102 C 
HETATM   35  C15 UNL     1      12.448 -17.818  20.149  1.00  0.00     0.026 C 
HETATM   36  C16 UNL     1      12.225 -19.155  20.777  1.00  0.00     0.002 C 
HETATM   37  C17 UNL     1      13.376 -19.564  21.678  1.00  0.00     0.000 C 
HETATM   38  C18 UNL     1      14.645 -19.038  21.035  1.00  0.00     0.002 C 
HETATM   39  C19 UNL     1      14.629 -17.530  21.260  1.00  0.00     0.026 C 
ENDBRANCH  24  34
ENDBRANCH   1  21
TORSDOF 10
ENDMDL
