MODEL 1
REMARK VINA RESULT: -8.784819723      0.000      0.000
REMARK  10 active torsions:
REMARK  status: ('A' for Active; 'I' for Inactive)
REMARK    1  A    between atoms: C5_5  and  C6_6 
REMARK       I    between atoms: C6_6  and  N1_8 
REMARK    2  A    between atoms: N1_8  and  C7_9 
REMARK    3  A    between atoms: C7_9  and  C8_10 
REMARK    4  A    between atoms: C11_14  and  C12_15 
REMARK    5  A    between atoms: C12_15  and  C13_16 
REMARK    6  A    between atoms: C13_16  and  C14_17 
REMARK    7  A    between atoms: C13_16  and  N2_19 
REMARK       I    between atoms: N2_19  and  C15_21 
REMARK       I    between atoms: C15_21  and  N3_23 
REMARK    8  A    between atoms: N3_23  and  C16_25 
REMARK    9  A    between atoms: C20_29  and  O4_30 
REMARK   10  A    between atoms: C22_33  and  C23_34 
ROOT
HETATM    1  C8  UNL     1      14.798 -14.116  18.453  1.00  0.00     0.148 C 
HETATM    2  F1  UNL     1      15.233 -14.709  17.285  1.00  0.00    -0.236 F 
HETATM    3  C9  UNL     1      15.798 -13.997  19.534  1.00  0.00     0.051 C 
HETATM    4  C10 UNL     1      15.540 -14.973  20.692  1.00  0.00     0.009 C 
HETATM    5  C11 UNL     1      15.103 -16.307  20.169  1.00  0.00     0.004 C 
HETATM    6  C22 UNL     1      13.824 -16.219  19.397  1.00  0.00     0.101 C 
HETATM    7  C24 UNL     1      13.528 -14.807  18.910  1.00  0.00     0.064 C 
ENDROOT
BRANCH   5   8
HETATM    8  C12 UNL     1      15.193 -17.480  21.070  1.00  0.00     0.065 C 
BRANCH   8   9
HETATM    9  C13 UNL     1      16.474 -17.859  21.669  1.00  0.00     0.051 C 
BRANCH   9  10
HETATM   10  C14 UNL     1      16.854 -19.302  21.333  1.00  0.00     0.283 C 
HETATM   11  O2  UNL     1      17.057 -20.118  22.217  1.00  0.00    -0.300 OA
ENDBRANCH   9  10
BRANCH   9  12
HETATM   12  N2  UNL     1      17.553 -16.975  21.737  1.00  0.00    -0.310 N 
HETATM   13  C15 UNL     1      18.265 -16.769  22.976  1.00  0.00     0.320 C 
HETATM   14  O3  UNL     1      17.963 -17.348  24.026  1.00  0.00    -0.247 OA
HETATM   15  N3  UNL     1      19.349 -15.856  22.932  1.00  0.00    -0.338 N 
ATOM     16  H3  UNL     1      19.547 -15.397  22.042  1.00  0.00     0.164 HD
ATOM     17  H2  UNL     1      17.842 -16.468  20.901  1.00  0.00     0.170 HD
BRANCH  15  18
HETATM   18  C16 UNL     1      20.203 -15.526  24.071  1.00  0.00     0.088 C 
HETATM   19  C17 UNL     1      19.411 -14.809  25.103  1.00  0.00     0.025 C 
HETATM   20  C18 UNL     1      20.265 -14.291  26.212  1.00  0.00     0.004 C 
HETATM   21  C19 UNL     1      21.730 -14.622  26.033  1.00  0.00     0.032 C 
HETATM   22  C20 UNL     1      22.158 -14.089  24.699  1.00  0.00     0.120 C 
HETATM   23  C21 UNL     1      21.401 -14.728  23.583  1.00  0.00     0.057 C 
BRANCH  22  24
HETATM   24  O4  UNL     1      23.534 -14.369  24.586  1.00  0.00    -0.396 OA
ATOM     25  H4  UNL     1      23.979 -13.744  25.146  1.00  0.00     0.210 HD
ENDBRANCH  22  24
ENDBRANCH  15  18
ENDBRANCH   9  12
ENDBRANCH   8   9
ENDBRANCH   5   8
BRANCH   6  26
HETATM   26  C23 UNL     1      12.579 -16.762  19.949  1.00  0.00     0.392 C 
HETATM   27  F2  UNL     1      11.563 -16.240  19.098  1.00  0.00    -0.171 F 
HETATM   28  F3  UNL     1      12.214 -16.389  21.197  1.00  0.00    -0.171 F 
HETATM   29  F4  UNL     1      12.362 -18.122  19.771  1.00  0.00    -0.171 F 
ENDBRANCH   6  26
BRANCH   1  30
HETATM   30  C7  UNL     1      14.393 -12.696  18.008  1.00  0.00     0.202 C 
BRANCH  30  31
HETATM   31  N1  UNL     1      13.710 -11.947  18.848  1.00  0.00    -0.384 NA
HETATM   32  C6  UNL     1      12.986 -11.151  19.737  1.00  0.00     0.295 C 
HETATM   33  O1  UNL     1      12.793  -9.925  19.737  1.00  0.00    -0.257 OA
BRANCH  32  34
HETATM   34  C5  UNL     1      12.350 -11.906  20.888  1.00  0.00     0.101 A 
HETATM   35  C2  UNL     1      12.427 -11.501  22.280  1.00  0.00    -0.034 A 
HETATM   36  C1  UNL     1      12.765 -10.126  22.740  1.00  0.00     0.016 C 
HETATM   37  C3  UNL     1      11.451 -12.223  23.234  1.00  0.00     0.016 C 
HETATM   38  C4  UNL     1      13.508 -12.416  21.805  1.00  0.00     0.025 A 
ENDBRANCH  32  34
ENDBRANCH  30  31
ENDBRANCH   1  30
TORSDOF 10
ENDMDL
MODEL 2
REMARK VINA RESULT: -8.619887262      4.350      7.732
REMARK  10 active torsions:
REMARK  status: ('A' for Active; 'I' for Inactive)
REMARK    1  A    between atoms: C5_5  and  C6_6 
REMARK       I    between atoms: C6_6  and  N1_8 
REMARK    2  A    between atoms: N1_8  and  C7_9 
REMARK    3  A    between atoms: C7_9  and  C8_10 
REMARK    4  A    between atoms: C11_14  and  C12_15 
REMARK    5  A    between atoms: C12_15  and  C13_16 
REMARK    6  A    between atoms: C13_16  and  C14_17 
REMARK    7  A    between atoms: C13_16  and  N2_19 
REMARK       I    between atoms: N2_19  and  C15_21 
REMARK       I    between atoms: C15_21  and  N3_23 
REMARK    8  A    between atoms: N3_23  and  C16_25 
REMARK    9  A    between atoms: C20_29  and  O4_30 
REMARK   10  A    between atoms: C22_33  and  C23_34 
ROOT
HETATM    1  C8  UNL     1      12.015 -16.978  18.960  1.00  0.00     0.148 C 
HETATM    2  F1  UNL     1      11.086 -16.280  18.216  1.00  0.00    -0.236 F 
HETATM    3  C9  UNL     1      12.588 -16.266  20.120  1.00  0.00     0.051 C 
HETATM    4  C10 UNL     1      14.045 -15.836  19.893  1.00  0.00     0.009 C 
HETATM    5  C11 UNL     1      14.235 -15.337  18.494  1.00  0.00     0.004 C 
HETATM    6  C22 UNL     1      13.942 -16.393  17.475  1.00  0.00     0.101 C 
HETATM    7  C24 UNL     1      13.081 -17.521  18.027  1.00  0.00     0.064 C 
ENDROOT
BRANCH   5   8
HETATM    8  C12 UNL     1      15.433 -14.516  18.196  1.00  0.00     0.065 C 
BRANCH   8   9
HETATM    9  C13 UNL     1      15.309 -13.072  17.990  1.00  0.00     0.051 C 
BRANCH   9  10
HETATM   10  C14 UNL     1      15.976 -12.624  16.688  1.00  0.00     0.283 C 
HETATM   11  O2  UNL     1      16.548 -11.549  16.616  1.00  0.00    -0.300 OA
ENDBRANCH   9  10
BRANCH   9  12
HETATM   12  N2  UNL     1      14.146 -12.371  18.319  1.00  0.00    -0.310 N 
HETATM   13  C15 UNL     1      13.787 -12.136  19.697  1.00  0.00     0.320 C 
HETATM   14  O3  UNL     1      14.471 -12.537  20.644  1.00  0.00    -0.247 OA
HETATM   15  N3  UNL     1      12.590 -11.406  19.918  1.00  0.00    -0.338 N 
ATOM     16  H3  UNL     1      12.058 -11.110  19.099  1.00  0.00     0.164 HD
ATOM     17  H2  UNL     1      13.542 -12.021  17.575  1.00  0.00     0.170 HD
BRANCH  15  18
HETATM   18  C16 UNL     1      12.067 -11.050  21.234  1.00  0.00     0.088 C 
HETATM   19  C17 UNL     1      13.043 -10.189  21.949  1.00  0.00     0.025 C 
HETATM   20  C18 UNL     1      12.644  -9.936  23.364  1.00  0.00     0.004 C 
HETATM   21  C19 UNL     1      11.339 -10.605  23.738  1.00  0.00     0.032 C 
HETATM   22  C20 UNL     1      11.477 -12.068  23.447  1.00  0.00     0.120 C 
HETATM   23  C21 UNL     1      11.725 -12.320  21.997  1.00  0.00     0.057 C 
BRANCH  22  24
HETATM   24  O4  UNL     1      10.268 -12.666  23.851  1.00  0.00    -0.396 OA
ATOM     25  H4  UNL     1       9.573 -12.088  23.557  1.00  0.00     0.210 HD
ENDBRANCH  22  24
ENDBRANCH  15  18
ENDBRANCH   9  12
ENDBRANCH   8   9
ENDBRANCH   5   8
BRANCH   6  26
HETATM   26  C23 UNL     1      15.027 -17.008  16.703  1.00  0.00     0.392 C 
HETATM   27  F2  UNL     1      14.362 -17.913  15.826  1.00  0.00    -0.171 F 
HETATM   28  F3  UNL     1      15.934 -17.764  17.362  1.00  0.00    -0.171 F 
HETATM   29  F4  UNL     1      15.662 -16.198  15.771  1.00  0.00    -0.171 F 
ENDBRANCH   6  26
BRANCH   1  30
HETATM   30  C7  UNL     1      11.223 -18.195  19.479  1.00  0.00     0.202 C 
BRANCH  30  31
HETATM   31  N1  UNL     1      11.813 -19.014  20.323  1.00  0.00    -0.384 NA
HETATM   32  C6  UNL     1      12.438 -19.884  21.218  1.00  0.00     0.295 C 
HETATM   33  O1  UNL     1      12.036 -20.952  21.707  1.00  0.00    -0.257 OA
BRANCH  32  34
HETATM   34  C5  UNL     1      13.817 -19.445  21.669  1.00  0.00     0.101 A 
HETATM   35  C2  UNL     1      15.043 -19.692  20.929  1.00  0.00    -0.034 A 
HETATM   36  C1  UNL     1      15.099 -20.024  19.479  1.00  0.00     0.016 C 
HETATM   37  C3  UNL     1      16.274 -18.887  21.402  1.00  0.00     0.016 C 
HETATM   38  C4  UNL     1      14.656 -20.739  21.922  1.00  0.00     0.025 A 
ENDBRANCH  32  34
ENDBRANCH  30  31
ENDBRANCH   1  30
TORSDOF 10
ENDMDL
MODEL 3
REMARK VINA RESULT: -8.513314492      3.082      5.605
REMARK  10 active torsions:
REMARK  status: ('A' for Active; 'I' for Inactive)
REMARK    1  A    between atoms: C5_5  and  C6_6 
REMARK       I    between atoms: C6_6  and  N1_8 
REMARK    2  A    between atoms: N1_8  and  C7_9 
REMARK    3  A    between atoms: C7_9  and  C8_10 
REMARK    4  A    between atoms: C11_14  and  C12_15 
REMARK    5  A    between atoms: C12_15  and  C13_16 
REMARK    6  A    between atoms: C13_16  and  C14_17 
REMARK    7  A    between atoms: C13_16  and  N2_19 
REMARK       I    between atoms: N2_19  and  C15_21 
REMARK       I    between atoms: C15_21  and  N3_23 
REMARK    8  A    between atoms: N3_23  and  C16_25 
REMARK    9  A    between atoms: C20_29  and  O4_30 
REMARK   10  A    between atoms: C22_33  and  C23_34 
ROOT
HETATM    1  C8  UNL     1      16.349 -12.858  20.401  1.00  0.00     0.148 C 
HETATM    2  F1  UNL     1      16.243 -11.709  21.158  1.00  0.00    -0.236 F 
HETATM    3  C9  UNL     1      16.128 -14.131  21.117  1.00  0.00     0.051 C 
HETATM    4  C10 UNL     1      17.426 -14.924  21.332  1.00  0.00     0.009 C 
HETATM    5  C11 UNL     1      18.551 -14.004  21.694  1.00  0.00     0.004 C 
HETATM    6  C22 UNL     1      18.837 -13.011  20.611  1.00  0.00     0.101 C 
HETATM    7  C24 UNL     1      17.668 -12.833  19.653  1.00  0.00     0.064 C 
ENDROOT
BRANCH   5   8
HETATM    8  C12 UNL     1      19.760 -14.586  22.324  1.00  0.00     0.065 C 
BRANCH   8   9
HETATM    9  C13 UNL     1      19.715 -15.075  23.703  1.00  0.00     0.051 C 
BRANCH   9  10
HETATM   10  C14 UNL     1      20.432 -14.128  24.667  1.00  0.00     0.283 C 
HETATM   11  O2  UNL     1      20.157 -14.118  25.856  1.00  0.00    -0.300 OA
ENDBRANCH   9  10
BRANCH   9  12
HETATM   12  N2  UNL     1      18.582 -15.697  24.234  1.00  0.00    -0.310 N 
HETATM   13  C15 UNL     1      18.327 -17.098  23.997  1.00  0.00     0.320 C 
HETATM   14  O3  UNL     1      19.077 -17.810  23.321  1.00  0.00    -0.247 OA
HETATM   15  N3  UNL     1      17.152 -17.630  24.590  1.00  0.00    -0.338 N 
ATOM     16  H3  UNL     1      16.563 -16.994  25.128  1.00  0.00     0.164 HD
ATOM     17  H2  UNL     1      17.927 -15.154  24.797  1.00  0.00     0.170 HD
BRANCH  15  18
HETATM   18  C16 UNL     1      16.728 -19.023  24.485  1.00  0.00     0.088 C 
HETATM   19  C17 UNL     1      15.329 -19.088  23.988  1.00  0.00     0.025 C 
HETATM   20  C18 UNL     1      14.780 -20.475  24.025  1.00  0.00     0.004 C 
HETATM   21  C19 UNL     1      15.772 -21.490  24.549  1.00  0.00     0.032 C 
HETATM   22  C20 UNL     1      16.224 -21.029  25.902  1.00  0.00     0.120 C 
HETATM   23  C21 UNL     1      16.911 -19.706  25.831  1.00  0.00     0.057 C 
BRANCH  22  24
HETATM   24  O4  UNL     1      17.105 -22.017  26.381  1.00  0.00    -0.396 OA
ATOM     25  H4  UNL     1      16.965 -22.067  27.319  1.00  0.00     0.210 HD
ENDBRANCH  22  24
ENDBRANCH  15  18
ENDBRANCH   9  12
ENDBRANCH   8   9
ENDBRANCH   5   8
BRANCH   6  26
HETATM   26  C23 UNL     1      20.055 -13.118  19.801  1.00  0.00     0.392 C 
HETATM   27  F2  UNL     1      19.664 -12.637  18.519  1.00  0.00    -0.171 F 
HETATM   28  F3  UNL     1      20.567 -14.348  19.572  1.00  0.00    -0.171 F 
HETATM   29  F4  UNL     1      21.074 -12.219  20.091  1.00  0.00    -0.171 F 
ENDBRANCH   6  26
BRANCH   1  30
HETATM   30  C7  UNL     1      15.238 -12.697  19.342  1.00  0.00     0.202 C 
BRANCH  30  31
HETATM   31  N1  UNL     1      14.200 -11.942  19.632  1.00  0.00    -0.384 NA
HETATM   32  C6  UNL     1      13.100 -11.140  19.938  1.00  0.00     0.295 C 
HETATM   33  O1  UNL     1      12.731 -10.066  19.438  1.00  0.00    -0.257 OA
BRANCH  32  34
HETATM   34  C5  UNL     1      12.231 -11.661  21.065  1.00  0.00     0.101 A 
HETATM   35  C2  UNL     1      12.310 -11.207  22.443  1.00  0.00    -0.034 A 
HETATM   36  C1  UNL     1      12.929  -9.923  22.872  1.00  0.00     0.016 C 
HETATM   37  C3  UNL     1      11.131 -11.630  23.347  1.00  0.00     0.016 C 
HETATM   38  C4  UNL     1      13.175 -12.372  22.088  1.00  0.00     0.025 A 
ENDBRANCH  32  34
ENDBRANCH  30  31
ENDBRANCH   1  30
TORSDOF 10
ENDMDL
MODEL 4
REMARK VINA RESULT: -8.462240321      3.530      5.027
REMARK  10 active torsions:
REMARK  status: ('A' for Active; 'I' for Inactive)
REMARK    1  A    between atoms: C5_5  and  C6_6 
REMARK       I    between atoms: C6_6  and  N1_8 
REMARK    2  A    between atoms: N1_8  and  C7_9 
REMARK    3  A    between atoms: C7_9  and  C8_10 
REMARK    4  A    between atoms: C11_14  and  C12_15 
REMARK    5  A    between atoms: C12_15  and  C13_16 
REMARK    6  A    between atoms: C13_16  and  C14_17 
REMARK    7  A    between atoms: C13_16  and  N2_19 
REMARK       I    between atoms: N2_19  and  C15_21 
REMARK       I    between atoms: C15_21  and  N3_23 
REMARK    8  A    between atoms: N3_23  and  C16_25 
REMARK    9  A    between atoms: C20_29  and  O4_30 
REMARK   10  A    between atoms: C22_33  and  C23_34 
ROOT
HETATM    1  C8  UNL     1      16.385 -12.882  20.417  1.00  0.00     0.148 C 
HETATM    2  F1  UNL     1      16.281 -11.734  21.176  1.00  0.00    -0.236 F 
HETATM    3  C9  UNL     1      16.183 -14.157  21.135  1.00  0.00     0.051 C 
HETATM    4  C10 UNL     1      17.490 -14.940  21.332  1.00  0.00     0.009 C 
HETATM    5  C11 UNL     1      18.613 -14.011  21.680  1.00  0.00     0.004 C 
HETATM    6  C22 UNL     1      18.877 -13.015  20.595  1.00  0.00     0.101 C 
HETATM    7  C24 UNL     1      17.694 -12.845  19.652  1.00  0.00     0.064 C 
ENDROOT
BRANCH   5   8
HETATM    8  C12 UNL     1      19.835 -14.584  22.294  1.00  0.00     0.065 C 
BRANCH   8   9
HETATM    9  C13 UNL     1      20.051 -14.490  23.739  1.00  0.00     0.051 C 
BRANCH   9  10
HETATM   10  C14 UNL     1      18.802 -14.885  24.529  1.00  0.00     0.283 C 
HETATM   11  O2  UNL     1      18.441 -16.049  24.589  1.00  0.00    -0.300 OA
ENDBRANCH   9  10
BRANCH   9  12
HETATM   12  N2  UNL     1      21.259 -14.862  24.335  1.00  0.00    -0.310 N 
HETATM   13  C15 UNL     1      21.894 -16.115  24.003  1.00  0.00     0.320 C 
HETATM   14  O3  UNL     1      21.414 -16.914  23.193  1.00  0.00    -0.247 OA
HETATM   15  N3  UNL     1      23.121 -16.390  24.661  1.00  0.00    -0.338 N 
ATOM     16  H3  UNL     1      23.465 -15.700  25.330  1.00  0.00     0.164 HD
ATOM     17  H2  UNL     1      21.697 -14.240  25.015  1.00  0.00     0.170 HD
BRANCH  15  18
HETATM   18  C16 UNL     1      23.925 -17.590  24.449  1.00  0.00     0.088 C 
HETATM   19  C17 UNL     1      24.304 -18.180  25.759  1.00  0.00     0.025 C 
HETATM   20  C18 UNL     1      25.271 -19.307  25.612  1.00  0.00     0.004 C 
HETATM   21  C19 UNL     1      25.632 -19.592  24.171  1.00  0.00     0.032 C 
HETATM   22  C20 UNL     1      26.156 -18.321  23.573  1.00  0.00     0.120 C 
HETATM   23  C21 UNL     1      25.127 -17.241  23.586  1.00  0.00     0.057 C 
BRANCH  22  24
HETATM   24  O4  UNL     1      26.529 -18.632  22.251  1.00  0.00    -0.396 OA
ATOM     25  H4  UNL     1      26.560 -17.807  21.782  1.00  0.00     0.210 HD
ENDBRANCH  22  24
ENDBRANCH  15  18
ENDBRANCH   9  12
ENDBRANCH   8   9
ENDBRANCH   5   8
BRANCH   6  26
HETATM   26  C23 UNL     1      20.085 -13.112  19.769  1.00  0.00     0.392 C 
HETATM   27  F2  UNL     1      19.679 -12.616  18.497  1.00  0.00    -0.171 F 
HETATM   28  F3  UNL     1      20.594 -14.340  19.518  1.00  0.00    -0.171 F 
HETATM   29  F4  UNL     1      21.107 -12.217  20.057  1.00  0.00    -0.171 F 
ENDBRANCH   6  26
BRANCH   1  30
HETATM   30  C7  UNL     1      15.260 -12.729  19.373  1.00  0.00     0.202 C 
BRANCH  30  31
HETATM   31  N1  UNL     1      14.225 -11.973  19.672  1.00  0.00    -0.384 NA
HETATM   32  C6  UNL     1      13.128 -11.170  19.988  1.00  0.00     0.295 C 
HETATM   33  O1  UNL     1      12.768 -10.084  19.507  1.00  0.00    -0.257 OA
BRANCH  32  34
HETATM   34  C5  UNL     1      12.251 -11.707  21.101  1.00  0.00     0.101 A 
HETATM   35  C2  UNL     1      12.307 -11.259  22.482  1.00  0.00    -0.034 A 
HETATM   36  C1  UNL     1      12.906  -9.971  22.926  1.00  0.00     0.016 C 
HETATM   37  C3  UNL     1      11.121 -11.700  23.369  1.00  0.00     0.016 C 
HETATM   38  C4  UNL     1      13.190 -12.412  22.132  1.00  0.00     0.025 A 
ENDBRANCH  32  34
ENDBRANCH  30  31
ENDBRANCH   1  30
TORSDOF 10
ENDMDL
MODEL 5
REMARK VINA RESULT: -8.371063201      2.689      7.424
REMARK  10 active torsions:
REMARK  status: ('A' for Active; 'I' for Inactive)
REMARK    1  A    between atoms: C5_5  and  C6_6 
REMARK       I    between atoms: C6_6  and  N1_8 
REMARK    2  A    between atoms: N1_8  and  C7_9 
REMARK    3  A    between atoms: C7_9  and  C8_10 
REMARK    4  A    between atoms: C11_14  and  C12_15 
REMARK    5  A    between atoms: C12_15  and  C13_16 
REMARK    6  A    between atoms: C13_16  and  C14_17 
REMARK    7  A    between atoms: C13_16  and  N2_19 
REMARK       I    between atoms: N2_19  and  C15_21 
REMARK       I    between atoms: C15_21  and  N3_23 
REMARK    8  A    between atoms: N3_23  and  C16_25 
REMARK    9  A    between atoms: C20_29  and  O4_30 
REMARK   10  A    between atoms: C22_33  and  C23_34 
ROOT
HETATM    1  C8  UNL     1      17.055 -14.306  21.156  1.00  0.00     0.148 C 
HETATM    2  F1  UNL     1      16.536 -13.931  22.378  1.00  0.00    -0.236 F 
HETATM    3  C9  UNL     1      16.336 -13.811  19.964  1.00  0.00     0.051 C 
HETATM    4  C10 UNL     1      15.548 -14.916  19.245  1.00  0.00     0.009 C 
HETATM    5  C11 UNL     1      14.891 -15.826  20.237  1.00  0.00     0.004 C 
HETATM    6  C22 UNL     1      15.887 -16.519  21.112  1.00  0.00     0.101 C 
HETATM    7  C24 UNL     1      17.236 -15.812  21.143  1.00  0.00     0.064 C 
ENDROOT
BRANCH   5   8
HETATM    8  C12 UNL     1      13.781 -16.691  19.771  1.00  0.00     0.065 C 
BRANCH   8   9
HETATM    9  C13 UNL     1      12.435 -16.531  20.323  1.00  0.00     0.051 C 
BRANCH   9  10
HETATM   10  C14 UNL     1      11.663 -17.852  20.334  1.00  0.00     0.283 C 
HETATM   11  O2  UNL     1      12.169 -18.869  20.779  1.00  0.00    -0.300 OA
ENDBRANCH   9  10
BRANCH   9  12
HETATM   12  N2  UNL     1      12.172 -15.695  21.411  1.00  0.00    -0.310 N 
HETATM   13  C15 UNL     1      12.207 -14.259  21.267  1.00  0.00     0.320 C 
HETATM   14  O3  UNL     1      12.471 -13.699  20.198  1.00  0.00    -0.247 OA
HETATM   15  N3  UNL     1      11.916 -13.505  22.434  1.00  0.00    -0.338 N 
ATOM     16  H3  UNL     1      11.717 -14.018  23.293  1.00  0.00     0.164 HD
ATOM     17  H2  UNL     1      11.952 -16.104  22.319  1.00  0.00     0.170 HD
BRANCH  15  18
HETATM   18  C16 UNL     1      11.882 -12.046  22.492  1.00  0.00     0.088 C 
HETATM   19  C17 UNL     1      13.203 -11.495  22.094  1.00  0.00     0.025 C 
HETATM   20  C18 UNL     1      13.286 -10.019  22.300  1.00  0.00     0.004 C 
HETATM   21  C19 UNL     1      12.009  -9.429  22.856  1.00  0.00     0.032 C 
HETATM   22  C20 UNL     1      11.685 -10.156  24.126  1.00  0.00     0.120 C 
HETATM   23  C21 UNL     1      11.453 -11.610  23.883  1.00  0.00     0.057 C 
BRANCH  22  24
HETATM   24  O4  UNL     1      10.523  -9.550  24.642  1.00  0.00    -0.396 OA
ATOM     25  H4  UNL     1      10.294 -10.037  25.425  1.00  0.00     0.210 HD
ENDBRANCH  22  24
ENDBRANCH  15  18
ENDBRANCH   9  12
ENDBRANCH   8   9
ENDBRANCH   5   8
BRANCH   6  26
HETATM   26  C23 UNL     1      16.149 -17.954  20.957  1.00  0.00     0.392 C 
HETATM   27  F2  UNL     1      17.389 -18.157  21.626  1.00  0.00    -0.171 F 
HETATM   28  F3  UNL     1      16.341 -18.439  19.710  1.00  0.00    -0.171 F 
HETATM   29  F4  UNL     1      15.341 -18.814  21.689  1.00  0.00    -0.171 F 
ENDBRANCH   6  26
BRANCH   1  30
HETATM   30  C7  UNL     1      18.470 -13.693  21.159  1.00  0.00     0.202 C 
BRANCH  30  31
HETATM   31  N1  UNL     1      19.353 -14.159  22.017  1.00  0.00    -0.384 NA
HETATM   32  C6  UNL     1      20.291 -14.654  22.925  1.00  0.00     0.295 C 
HETATM   33  O1  UNL     1      21.146 -15.542  22.786  1.00  0.00    -0.257 OA
BRANCH  32  34
HETATM   34  C5  UNL     1      20.243 -14.011  24.297  1.00  0.00     0.101 A 
HETATM   35  C2  UNL     1      20.732 -14.634  25.515  1.00  0.00    -0.034 A 
HETATM   36  C1  UNL     1      21.695 -15.768  25.553  1.00  0.00     0.016 C 
HETATM   37  C3  UNL     1      20.880 -13.688  26.728  1.00  0.00     0.016 C 
HETATM   38  C4  UNL     1      19.297 -14.882  25.184  1.00  0.00     0.025 A 
ENDBRANCH  32  34
ENDBRANCH  30  31
ENDBRANCH   1  30
TORSDOF 10
ENDMDL
