MODEL 1
REMARK VINA RESULT: -8.714807772      0.000      0.000
REMARK  5 active torsions:
REMARK  status: ('A' for Active; 'I' for Inactive)
REMARK    1  A    between atoms: C2_3  and  N1_4 
REMARK    2  A    between atoms: C5_7  and  C6_8 
REMARK    3  A    between atoms: C6_8  and  N2_9 
REMARK    4  A    between atoms: N2_9  and  C7_12 
REMARK    5  A    between atoms: C15_26  and  N5_27 
ROOT
HETATM    1  F1  UNL     1      28.812   0.930   8.323  1.00  0.00    -0.198 F 
HETATM    2  C1  UNL     1      30.023   0.763   7.776  1.00  0.00     0.203 A 
HETATM    3  C2  UNL     1      30.226   1.126   6.461  1.00  0.00     0.147 A 
HETATM    4  N3  UNL     1      31.509   0.939   6.000  1.00  0.00    -0.336 N 
ATOM      5  H3  UNL     1      31.714   1.192   5.034  1.00  0.00     0.168 HD
HETATM    6  C14 UNL     1      32.492   0.448   6.739  1.00  0.00     0.183 A 
HETATM    7  N4  UNL     1      32.258   0.109   8.000  1.00  0.00    -0.336 N 
ATOM      8  H4  UNL     1      33.023  -0.268   8.560  1.00  0.00     0.168 HD
HETATM    9  C15 UNL     1      31.019   0.249   8.575  1.00  0.00     0.149 A 
ENDROOT
BRANCH   3  10
HETATM   10  N1  UNL     1      29.265   1.616   5.564  1.00  0.00    -0.365 N 
HETATM   11  C3  UNL     1      28.133   2.394   6.135  1.00  0.00     0.125 C 
HETATM   12  C4  UNL     1      26.870   1.677   5.772  1.00  0.00     0.026 C 
HETATM   13  C5  UNL     1      26.695   1.358   4.328  1.00  0.00     0.014 C 
HETATM   14  C12 UNL     1      27.958   0.801   3.718  1.00  0.00     0.026 C 
HETATM   15  C13 UNL     1      29.218   1.514   4.135  1.00  0.00     0.125 C 
BRANCH  13  16
HETATM   16  C6  UNL     1      26.162   2.553   3.556  1.00  0.00     0.237 C 
BRANCH  16  17
HETATM   17  N2  UNL     1      24.968   3.076   4.186  1.00  0.00    -0.070 N 
ATOM     18  H22 UNL     1      24.196   3.123   3.521  1.00  0.00     0.277 HD
ATOM     19  H21 UNL     1      24.580   2.402   4.846  1.00  0.00     0.277 HD
BRANCH  17  20
HETATM   20  C7  UNL     1      25.176   4.354   4.821  1.00  0.00     0.191 C 
HETATM   21  C8  UNL     1      26.482   4.985   4.487  1.00  0.00     0.039 C 
HETATM   22  C9  UNL     1      26.171   6.382   3.993  1.00  0.00     0.081 C 
HETATM   23  C10 UNL     1      24.730   6.631   4.302  1.00  0.00     0.245 C 
HETATM   24  F2  UNL     1      24.594   7.332   5.476  1.00  0.00    -0.206 F 
HETATM   25  F3  UNL     1      24.106   7.341   3.265  1.00  0.00    -0.206 F 
HETATM   26  C11 UNL     1      24.095   5.294   4.413  1.00  0.00     0.112 C 
ENDBRANCH  17  20
ENDBRANCH  16  17
ENDBRANCH  13  16
ENDBRANCH   3  10
BRANCH   9  27
HETATM   27  N5  UNL     1      30.873  -0.129   9.926  1.00  0.00    -0.332 N 
HETATM   28  C16 UNL     1      31.809   0.380  10.886  1.00  0.00     0.155 C 
HETATM   29  C17 UNL     1      31.273   1.749  11.327  1.00  0.00     0.252 C 
HETATM   30  N6  UNL     1      30.184   1.529  12.233  1.00  0.00    -0.073 N 
HETATM   31  C18 UNL     1      29.005   0.981  11.607  1.00  0.00     0.237 C 
ATOM     32  H62 UNL     1      30.480   0.944  13.015  1.00  0.00     0.277 HD
ATOM     33  H61 UNL     1      29.957   2.386  12.738  1.00  0.00     0.277 HD
HETATM   34  C19 UNL     1      29.026  -0.518  11.485  1.00  0.00     0.086 C 
HETATM   35  C20 UNL     1      29.756  -1.008  10.252  1.00  0.00     0.274 C 
HETATM   36  F4  UNL     1      30.268  -2.255  10.504  1.00  0.00    -0.227 F 
ENDBRANCH   9  27
TORSDOF 5
ENDMDL
MODEL 2
REMARK VINA RESULT: -8.593013468      1.177      1.674
REMARK  5 active torsions:
REMARK  status: ('A' for Active; 'I' for Inactive)
REMARK    1  A    between atoms: C2_3  and  N1_4 
REMARK    2  A    between atoms: C5_7  and  C6_8 
REMARK    3  A    between atoms: C6_8  and  N2_9 
REMARK    4  A    between atoms: N2_9  and  C7_12 
REMARK    5  A    between atoms: C15_26  and  N5_27 
ROOT
HETATM    1  F1  UNL     1      28.829   0.346   8.111  1.00  0.00    -0.198 F 
HETATM    2  C1  UNL     1      30.090   0.412   7.668  1.00  0.00     0.203 A 
HETATM    3  C2  UNL     1      30.327   0.747   6.350  1.00  0.00     0.147 A 
HETATM    4  N3  UNL     1      31.656   0.813   6.000  1.00  0.00    -0.336 N 
ATOM      5  H3  UNL     1      31.888   1.057   5.038  1.00  0.00     0.168 HD
HETATM    6  C14 UNL     1      32.651   0.577   6.841  1.00  0.00     0.183 A 
HETATM    7  N4  UNL     1      32.385   0.256   8.100  1.00  0.00    -0.336 N 
ATOM      8  H4  UNL     1      33.159   0.077   8.739  1.00  0.00     0.168 HD
HETATM    9  C15 UNL     1      31.098   0.159   8.571  1.00  0.00     0.149 A 
ENDROOT
BRANCH   3  10
HETATM   10  N1  UNL     1      29.367   0.980   5.355  1.00  0.00    -0.365 N 
HETATM   11  C3  UNL     1      27.986   1.306   5.800  1.00  0.00     0.125 C 
HETATM   12  C4  UNL     1      27.076   0.258   5.240  1.00  0.00     0.026 C 
HETATM   13  C5  UNL     1      27.180   0.022   3.773  1.00  0.00     0.014 C 
HETATM   14  C12 UNL     1      28.616  -0.051   3.316  1.00  0.00     0.026 C 
HETATM   15  C13 UNL     1      29.518   0.989   3.929  1.00  0.00     0.125 C 
BRANCH  13  16
HETATM   16  C6  UNL     1      26.378   1.047   2.989  1.00  0.00     0.237 C 
BRANCH  16  17
HETATM   17  N2  UNL     1      25.024   1.134   3.499  1.00  0.00    -0.070 N 
ATOM     18  H22 UNL     1      24.358   0.748   2.830  1.00  0.00     0.277 HD
ATOM     19  H21 UNL     1      24.884   0.482   4.270  1.00  0.00     0.277 HD
BRANCH  17  20
HETATM   20  C7  UNL     1      24.649   2.472   3.883  1.00  0.00     0.191 C 
HETATM   21  C8  UNL     1      24.108   2.570   5.266  1.00  0.00     0.039 C 
HETATM   22  C9  UNL     1      24.912   3.645   5.967  1.00  0.00     0.081 C 
HETATM   23  C10 UNL     1      25.713   4.333   4.911  1.00  0.00     0.245 C 
HETATM   24  F2  UNL     1      25.089   5.484   4.493  1.00  0.00    -0.206 F 
HETATM   25  F3  UNL     1      26.998   4.649   5.376  1.00  0.00    -0.206 F 
HETATM   26  C11 UNL     1      25.836   3.367   3.791  1.00  0.00     0.112 C 
ENDBRANCH  17  20
ENDBRANCH  16  17
ENDBRANCH  13  16
ENDBRANCH   3  10
BRANCH   9  27
HETATM   27  N5  UNL     1      30.916  -0.176   9.929  1.00  0.00    -0.332 N 
HETATM   28  C16 UNL     1      31.833   0.355  10.895  1.00  0.00     0.155 C 
HETATM   29  C17 UNL     1      31.298   1.741  11.280  1.00  0.00     0.252 C 
HETATM   30  N6  UNL     1      30.186   1.557  12.167  1.00  0.00    -0.073 N 
HETATM   31  C18 UNL     1      29.018   0.999  11.529  1.00  0.00     0.237 C 
ATOM     32  H62 UNL     1      30.459   0.994  12.973  1.00  0.00     0.277 HD
ATOM     33  H61 UNL     1      29.954   2.431  12.639  1.00  0.00     0.277 HD
HETATM   34  C19 UNL     1      29.029  -0.504  11.453  1.00  0.00     0.086 C 
HETATM   35  C20 UNL     1      29.785  -1.036  10.254  1.00  0.00     0.274 C 
HETATM   36  F4  UNL     1      30.280  -2.279  10.556  1.00  0.00    -0.227 F 
ENDBRANCH   9  27
TORSDOF 5
ENDMDL
MODEL 3
REMARK VINA RESULT: -8.154582231      1.637      2.125
REMARK  5 active torsions:
REMARK  status: ('A' for Active; 'I' for Inactive)
REMARK    1  A    between atoms: C2_3  and  N1_4 
REMARK    2  A    between atoms: C5_7  and  C6_8 
REMARK    3  A    between atoms: C6_8  and  N2_9 
REMARK    4  A    between atoms: N2_9  and  C7_12 
REMARK    5  A    between atoms: C15_26  and  N5_27 
ROOT
HETATM    1  F1  UNL     1      28.677   1.327   8.745  1.00  0.00    -0.198 F 
HETATM    2  C1  UNL     1      29.787   1.042   8.053  1.00  0.00     0.203 A 
HETATM    3  C2  UNL     1      29.890   1.457   6.740  1.00  0.00     0.147 A 
HETATM    4  N3  UNL     1      31.078   1.138   6.125  1.00  0.00    -0.336 N 
ATOM      5  H3  UNL     1      31.207   1.421   5.154  1.00  0.00     0.168 HD
HETATM    6  C14 UNL     1      32.062   0.482   6.719  1.00  0.00     0.183 A 
HETATM    7  N4  UNL     1      31.927   0.099   7.981  1.00  0.00    -0.336 N 
ATOM      8  H4  UNL     1      32.692  -0.405   8.430  1.00  0.00     0.168 HD
HETATM    9  C15 UNL     1      30.788   0.359   8.704  1.00  0.00     0.149 A 
ENDROOT
BRANCH   3  10
HETATM   10  N1  UNL     1      28.909   2.119   5.987  1.00  0.00    -0.365 N 
HETATM   11  C3  UNL     1      28.014   1.281   5.145  1.00  0.00     0.125 C 
HETATM   12  C4  UNL     1      28.191   1.723   3.726  1.00  0.00     0.026 C 
HETATM   13  C5  UNL     1      28.037   3.183   3.475  1.00  0.00     0.014 C 
HETATM   14  C12 UNL     1      28.760   4.010   4.510  1.00  0.00     0.026 C 
HETATM   15  C13 UNL     1      28.599   3.517   5.925  1.00  0.00     0.125 C 
BRANCH  13  16
HETATM   16  C6  UNL     1      26.575   3.573   3.346  1.00  0.00     0.237 C 
BRANCH  16  17
HETATM   17  N2  UNL     1      26.329   4.849   3.985  1.00  0.00    -0.070 N 
ATOM     18  H22 UNL     1      27.196   5.251   4.341  1.00  0.00     0.277 HD
ATOM     19  H21 UNL     1      26.086   5.560   3.295  1.00  0.00     0.277 HD
BRANCH  17  20
HETATM   20  C7  UNL     1      25.331   4.780   5.024  1.00  0.00     0.191 C 
HETATM   21  C8  UNL     1      24.041   5.429   4.662  1.00  0.00     0.039 C 
HETATM   22  C9  UNL     1      22.958   4.400   4.906  1.00  0.00     0.081 C 
HETATM   23  C10 UNL     1      23.600   3.277   5.655  1.00  0.00     0.245 C 
HETATM   24  F2  UNL     1      23.381   3.398   7.006  1.00  0.00    -0.206 F 
HETATM   25  F3  UNL     1      23.114   2.035   5.218  1.00  0.00    -0.206 F 
HETATM   26  C11 UNL     1      25.051   3.354   5.349  1.00  0.00     0.112 C 
ENDBRANCH  17  20
ENDBRANCH  16  17
ENDBRANCH  13  16
ENDBRANCH   3  10
BRANCH   9  27
HETATM   27  N5  UNL     1      30.743  -0.079  10.044  1.00  0.00    -0.332 N 
HETATM   28  C16 UNL     1      31.712   0.437  10.967  1.00  0.00     0.155 C 
HETATM   29  C17 UNL     1      31.140   1.759  11.497  1.00  0.00     0.252 C 
HETATM   30  N6  UNL     1      30.120   1.449  12.457  1.00  0.00    -0.073 N 
HETATM   31  C18 UNL     1      28.932   0.868  11.879  1.00  0.00     0.237 C 
ATOM     32  H62 UNL     1      30.491   0.848  13.194  1.00  0.00     0.277 HD
ATOM     33  H61 UNL     1      29.885   2.273  13.010  1.00  0.00     0.277 HD
HETATM   34  C19 UNL     1      29.016  -0.622  11.691  1.00  0.00     0.086 C 
HETATM   35  C20 UNL     1      29.691  -1.025  10.398  1.00  0.00     0.274 C 
HETATM   36  F4  UNL     1      30.276  -2.255  10.565  1.00  0.00    -0.227 F 
ENDBRANCH   9  27
TORSDOF 5
ENDMDL
MODEL 4
REMARK VINA RESULT: -8.140322805      1.353      1.565
REMARK  5 active torsions:
REMARK  status: ('A' for Active; 'I' for Inactive)
REMARK    1  A    between atoms: C2_3  and  N1_4 
REMARK    2  A    between atoms: C5_7  and  C6_8 
REMARK    3  A    between atoms: C6_8  and  N2_9 
REMARK    4  A    between atoms: N2_9  and  C7_12 
REMARK    5  A    between atoms: C15_26  and  N5_27 
ROOT
HETATM    1  F1  UNL     1      28.887   0.356   8.001  1.00  0.00    -0.198 F 
HETATM    2  C1  UNL     1      30.166   0.415   7.611  1.00  0.00     0.203 A 
HETATM    3  C2  UNL     1      30.459   0.752   6.305  1.00  0.00     0.147 A 
HETATM    4  N3  UNL     1      31.801   0.811   6.010  1.00  0.00    -0.336 N 
ATOM      5  H3  UNL     1      32.074   1.056   5.059  1.00  0.00     0.168 HD
HETATM    6  C14 UNL     1      32.760   0.565   6.890  1.00  0.00     0.183 A 
HETATM    7  N4  UNL     1      32.439   0.243   8.136  1.00  0.00    -0.336 N 
ATOM      8  H4  UNL     1      33.186   0.057   8.806  1.00  0.00     0.168 HD
HETATM    9  C15 UNL     1      31.134   0.153   8.553  1.00  0.00     0.149 A 
ENDROOT
BRANCH   3  10
HETATM   10  N1  UNL     1      29.542   0.994   5.271  1.00  0.00    -0.365 N 
HETATM   11  C3  UNL     1      28.256   1.644   5.638  1.00  0.00     0.125 C 
HETATM   12  C4  UNL     1      27.155   0.709   5.247  1.00  0.00     0.026 C 
HETATM   13  C5  UNL     1      27.186   0.219   3.840  1.00  0.00     0.014 C 
HETATM   14  C12 UNL     1      28.574  -0.198   3.421  1.00  0.00     0.026 C 
HETATM   15  C13 UNL     1      29.667   0.739   3.866  1.00  0.00     0.125 C 
BRANCH  13  16
HETATM   16  C6  UNL     1      26.577   1.232   2.886  1.00  0.00     0.237 C 
BRANCH  16  17
HETATM   17  N2  UNL     1      25.198   1.501   3.239  1.00  0.00    -0.070 N 
ATOM     18  H22 UNL     1      24.686   1.879   2.443  1.00  0.00     0.277 HD
ATOM     19  H21 UNL     1      24.681   0.632   3.373  1.00  0.00     0.277 HD
BRANCH  17  20
HETATM   20  C7  UNL     1      25.065   2.359   4.390  1.00  0.00     0.191 C 
HETATM   21  C8  UNL     1      25.619   3.726   4.187  1.00  0.00     0.039 C 
HETATM   22  C9  UNL     1      24.517   4.696   4.557  1.00  0.00     0.081 C 
HETATM   23  C10 UNL     1      23.447   3.891   5.221  1.00  0.00     0.245 C 
HETATM   24  F2  UNL     1      23.562   3.955   6.589  1.00  0.00    -0.206 F 
HETATM   25  F3  UNL     1      22.172   4.336   4.844  1.00  0.00    -0.206 F 
HETATM   26  C11 UNL     1      23.625   2.496   4.744  1.00  0.00     0.112 C 
ENDBRANCH  17  20
ENDBRANCH  16  17
ENDBRANCH  13  16
ENDBRANCH   3  10
BRANCH   9  27
HETATM   27  N5  UNL     1      30.894  -0.185   9.902  1.00  0.00    -0.332 N 
HETATM   28  C16 UNL     1      31.787   0.319  10.904  1.00  0.00     0.155 C 
HETATM   29  C17 UNL     1      31.271   1.715  11.278  1.00  0.00     0.252 C 
HETATM   30  N6  UNL     1      30.123   1.553  12.122  1.00  0.00    -0.073 N 
HETATM   31  C18 UNL     1      28.966   1.026  11.438  1.00  0.00     0.237 C 
ATOM     32  H62 UNL     1      30.352   0.979  12.934  1.00  0.00     0.277 HD
ATOM     33  H61 UNL     1      29.894   2.430  12.591  1.00  0.00     0.277 HD
HETATM   34  C19 UNL     1      28.945  -0.476  11.353  1.00  0.00     0.086 C 
HETATM   35  C20 UNL     1      29.732  -1.020  10.180  1.00  0.00     0.274 C 
HETATM   36  F4  UNL     1      30.186  -2.276  10.492  1.00  0.00    -0.227 F 
ENDBRANCH   9  27
TORSDOF 5
ENDMDL
MODEL 5
REMARK VINA RESULT: -7.908912400      1.415      1.782
REMARK  5 active torsions:
REMARK  status: ('A' for Active; 'I' for Inactive)
REMARK    1  A    between atoms: C2_3  and  N1_4 
REMARK    2  A    between atoms: C5_7  and  C6_8 
REMARK    3  A    between atoms: C6_8  and  N2_9 
REMARK    4  A    between atoms: N2_9  and  C7_12 
REMARK    5  A    between atoms: C15_26  and  N5_27 
ROOT
HETATM    1  F1  UNL     1      28.556   0.774   8.679  1.00  0.00    -0.198 F 
HETATM    2  C1  UNL     1      29.707   0.696   7.999  1.00  0.00     0.203 A 
HETATM    3  C2  UNL     1      29.730   1.051   6.665  1.00  0.00     0.147 A 
HETATM    4  N3  UNL     1      30.964   0.960   6.064  1.00  0.00    -0.336 N 
ATOM      5  H3  UNL     1      31.037   1.211   5.078  1.00  0.00     0.168 HD
HETATM    6  C14 UNL     1      32.061   0.565   6.691  1.00  0.00     0.183 A 
HETATM    7  N4  UNL     1      32.000   0.231   7.972  1.00  0.00    -0.336 N 
ATOM      8  H4  UNL     1      32.852  -0.072   8.445  1.00  0.00     0.168 HD
HETATM    9  C15 UNL     1      30.827   0.280   8.684  1.00  0.00     0.149 A 
ENDROOT
BRANCH   3  10
HETATM   10  N1  UNL     1      28.637   1.444   5.880  1.00  0.00    -0.365 N 
HETATM   11  C3  UNL     1      27.708   0.379   5.418  1.00  0.00     0.125 C 
HETATM   12  C4  UNL     1      27.707   0.404   3.922  1.00  0.00     0.026 C 
HETATM   13  C5  UNL     1      27.440   1.728   3.294  1.00  0.00     0.014 C 
HETATM   14  C12 UNL     1      28.218   2.835   3.963  1.00  0.00     0.026 C 
HETATM   15  C13 UNL     1      28.239   2.759   5.468  1.00  0.00     0.125 C 
BRANCH  13  16
HETATM   16  C6  UNL     1      25.951   2.026   3.236  1.00  0.00     0.237 C 
BRANCH  16  17
HETATM   17  N2  UNL     1      25.235   1.237   4.218  1.00  0.00    -0.070 N 
ATOM     18  H22 UNL     1      24.893   0.368   3.806  1.00  0.00     0.277 HD
ATOM     19  H21 UNL     1      25.876   0.852   4.912  1.00  0.00     0.277 HD
BRANCH  17  20
HETATM   20  C7  UNL     1      24.163   1.961   4.854  1.00  0.00     0.191 C 
HETATM   21  C8  UNL     1      24.550   2.596   6.144  1.00  0.00     0.039 C 
HETATM   22  C9  UNL     1      24.162   4.055   6.038  1.00  0.00     0.081 C 
HETATM   23  C10 UNL     1      23.319   4.183   4.810  1.00  0.00     0.245 C 
HETATM   24  F2  UNL     1      21.982   4.154   5.127  1.00  0.00    -0.206 F 
HETATM   25  F3  UNL     1      23.604   5.372   4.123  1.00  0.00    -0.206 F 
HETATM   26  C11 UNL     1      23.678   3.034   3.942  1.00  0.00     0.112 C 
ENDBRANCH  17  20
ENDBRANCH  16  17
ENDBRANCH  13  16
ENDBRANCH   3  10
BRANCH   9  27
HETATM   27  N5  UNL     1      30.865  -0.084  10.046  1.00  0.00    -0.332 N 
HETATM   28  C16 UNL     1      31.893   0.474  10.876  1.00  0.00     0.155 C 
HETATM   29  C17 UNL     1      31.364   1.828  11.367  1.00  0.00     0.252 C 
HETATM   30  N6  UNL     1      30.406   1.580  12.405  1.00  0.00    -0.073 N 
HETATM   31  C18 UNL     1      29.180   0.980  11.937  1.00  0.00     0.237 C 
ATOM     32  H62 UNL     1      30.820   1.018  13.149  1.00  0.00     0.277 HD
ATOM     33  H61 UNL     1      30.211   2.435  12.926  1.00  0.00     0.277 HD
HETATM   34  C19 UNL     1      29.244  -0.520  11.828  1.00  0.00     0.086 C 
HETATM   35  C20 UNL     1      29.833  -0.999  10.518  1.00  0.00     0.274 C 
HETATM   36  F4  UNL     1      30.420  -2.223  10.715  1.00  0.00    -0.227 F 
ENDBRANCH   9  27
TORSDOF 5
ENDMDL
