MODEL 1
REMARK VINA RESULT: -9.342508403      0.000      0.000
REMARK  6 active torsions:
REMARK  status: ('A' for Active; 'I' for Inactive)
REMARK    1  A    between atoms: N1_1  and  C1_4 
REMARK    2  A    between atoms: C2_7  and  N3_8 
REMARK    3  A    between atoms: C8_16  and  C9_17 
REMARK    4  A    between atoms: C9_17  and  N4_18 
REMARK    5  A    between atoms: C12_21  and  C13_22 
REMARK    6  A    between atoms: C13_22  and  C14_23 
ROOT
HETATM    1  C1  UNL     1      32.527   0.552   6.642  1.00  0.00     0.678 A 
HETATM    2  N2  UNL     1      31.997   0.744   7.886  1.00  0.00    -0.174 N 
ATOM      3  H2  UNL     1      32.592   1.084   8.641  1.00  0.00     0.186 HD
HETATM    4  C2  UNL     1      30.705   0.489   8.122  1.00  0.00     0.160 A 
HETATM    5  C7  UNL     1      29.930   0.035   7.095  1.00  0.00     0.189 A 
HETATM    6  F1  UNL     1      28.625  -0.220   7.339  1.00  0.00    -0.200 F 
HETATM    7  C8  UNL     1      30.446  -0.174   5.801  1.00  0.00     0.106 A 
HETATM    8  N5  UNL     1      31.744   0.101   5.637  1.00  0.00    -0.188 N 
ATOM      9  H5  UNL     1      32.160  -0.035   4.716  1.00  0.00     0.184 HD
ENDROOT
BRANCH   7  10
HETATM   10  C9  UNL     1      29.570  -0.645   4.745  1.00  0.00     0.119 C 
BRANCH  10  11
HETATM   11  N4  UNL     1      28.324  -0.018   4.542  1.00  0.00    -0.388 N 
HETATM   12  C10 UNL     1      27.155  -0.773   4.775  1.00  0.00     0.122 C 
HETATM   13  C11 UNL     1      25.943  -0.018   4.259  1.00  0.00     0.024 C 
HETATM   14  C12 UNL     1      26.063   1.444   4.747  1.00  0.00    -0.007 C 
HETATM   15  C20 UNL     1      27.172   2.030   3.936  1.00  0.00     0.024 C 
HETATM   16  C21 UNL     1      28.268   1.013   3.598  1.00  0.00     0.122 C 
BRANCH  14  17
HETATM   17  C13 UNL     1      24.712   2.055   4.559  1.00  0.00     0.046 C 
BRANCH  17  18
HETATM   18  C14 UNL     1      24.592   3.497   4.632  1.00  0.00    -0.016 A 
HETATM   19  C15 UNL     1      25.774   4.254   4.584  1.00  0.00     0.055 A 
HETATM   20  C16 UNL     1      25.788   5.625   4.622  1.00  0.00     0.155 A 
HETATM   21  F2  UNL     1      26.956   6.332   4.571  1.00  0.00    -0.203 F 
HETATM   22  C17 UNL     1      24.579   6.317   4.714  1.00  0.00     0.157 A 
HETATM   23  F3  UNL     1      24.622   7.671   4.748  1.00  0.00    -0.203 F 
HETATM   24  C18 UNL     1      23.431   5.599   4.763  1.00  0.00     0.088 A 
HETATM   25  C19 UNL     1      23.430   4.190   4.724  1.00  0.00     0.125 A 
HETATM   26  F4  UNL     1      22.198   3.645   4.817  1.00  0.00    -0.205 F 
ENDBRANCH  17  18
ENDBRANCH  14  17
ENDBRANCH  10  11
ENDBRANCH   7  10
BRANCH   4  27
HETATM   27  N3  UNL     1      30.203   0.701   9.420  1.00  0.00    -0.360 N 
HETATM   28  C3  UNL     1      30.666  -0.215  10.459  1.00  0.00     0.151 C 
HETATM   29  C4  UNL     1      29.518  -0.510  11.432  1.00  0.00     0.187 C 
HETATM   30  O1  UNL     1      29.150   0.728  11.943  1.00  0.00    -0.388 OA
HETATM   31  C5  UNL     1      28.426   1.394  10.957  1.00  0.00     0.187 C 
HETATM   32  C6  UNL     1      29.272   1.754   9.753  1.00  0.00     0.151 C 
ENDBRANCH   4  27
BRANCH   1  33
HETATM   33  N1  UNL     1      33.772   0.790   6.413  1.00  0.00    -0.234 N 
ATOM     34  H12 UNL     1      34.387   1.020   7.193  1.00  0.00     0.174 HD
ATOM     35  H11 UNL     1      34.143   0.755   5.463  1.00  0.00     0.174 HD
ENDBRANCH   1  33
TORSDOF 6
ENDMDL
MODEL 2
REMARK VINA RESULT: -9.049710474      3.170      8.060
REMARK  6 active torsions:
REMARK  status: ('A' for Active; 'I' for Inactive)
REMARK    1  A    between atoms: N1_1  and  C1_4 
REMARK    2  A    between atoms: C2_7  and  N3_8 
REMARK    3  A    between atoms: C8_16  and  C9_17 
REMARK    4  A    between atoms: C9_17  and  N4_18 
REMARK    5  A    between atoms: C12_21  and  C13_22 
REMARK    6  A    between atoms: C13_22  and  C14_23 
ROOT
HETATM    1  C1  UNL     1      25.552   1.099   3.609  1.00  0.00     0.678 A 
HETATM    2  N2  UNL     1      25.262   2.412   3.847  1.00  0.00    -0.174 N 
ATOM      3  H2  UNL     1      24.300   2.740   3.766  1.00  0.00     0.186 HD
HETATM    4  C2  UNL     1      26.231   3.272   4.185  1.00  0.00     0.160 A 
HETATM    5  C7  UNL     1      27.510   2.808   4.286  1.00  0.00     0.189 A 
HETATM    6  F1  UNL     1      28.484   3.682   4.629  1.00  0.00    -0.200 F 
HETATM    7  C8  UNL     1      27.841   1.461   4.046  1.00  0.00     0.106 A 
HETATM    8  N5  UNL     1      26.825   0.658   3.714  1.00  0.00    -0.188 N 
ATOM      9  H5  UNL     1      27.019  -0.327   3.533  1.00  0.00     0.184 HD
ENDROOT
BRANCH   7  10
HETATM   10  C9  UNL     1      29.217   1.023   4.184  1.00  0.00     0.119 C 
BRANCH  10  11
HETATM   11  N4  UNL     1      29.825   1.026   5.456  1.00  0.00    -0.388 N 
HETATM   12  C10 UNL     1      28.991   1.104   6.591  1.00  0.00     0.122 C 
HETATM   13  C11 UNL     1      29.831   1.354   7.831  1.00  0.00     0.024 C 
HETATM   14  C12 UNL     1      31.032   0.382   7.785  1.00  0.00    -0.007 C 
HETATM   15  C20 UNL     1      31.909   0.905   6.696  1.00  0.00     0.024 C 
HETATM   16  C21 UNL     1      31.120   1.549   5.550  1.00  0.00     0.122 C 
BRANCH  14  17
HETATM   17  C13 UNL     1      31.616   0.379   9.161  1.00  0.00     0.046 C 
BRANCH  17  18
HETATM   18  C14 UNL     1      30.717   0.253  10.290  1.00  0.00    -0.016 A 
HETATM   19  C15 UNL     1      30.811   1.214  11.310  1.00  0.00     0.055 A 
HETATM   20  C16 UNL     1      29.999   1.214  12.417  1.00  0.00     0.155 A 
HETATM   21  F2  UNL     1      30.116   2.164  13.391  1.00  0.00    -0.203 F 
HETATM   22  C17 UNL     1      29.031   0.218  12.552  1.00  0.00     0.157 A 
HETATM   23  F3  UNL     1      28.242   0.242  13.654  1.00  0.00    -0.203 F 
HETATM   24  C18 UNL     1      28.930  -0.716  11.575  1.00  0.00     0.088 A 
HETATM   25  C19 UNL     1      29.770  -0.706  10.443  1.00  0.00     0.125 A 
HETATM   26  F4  UNL     1      29.549  -1.732   9.593  1.00  0.00    -0.205 F 
ENDBRANCH  17  18
ENDBRANCH  14  17
ENDBRANCH  10  11
ENDBRANCH   7  10
BRANCH   4  27
HETATM   27  N3  UNL     1      25.885   4.617   4.420  1.00  0.00    -0.360 N 
HETATM   28  C3  UNL     1      24.768   4.858   5.328  1.00  0.00     0.151 C 
HETATM   29  C4  UNL     1      23.951   6.056   4.831  1.00  0.00     0.187 C 
HETATM   30  O1  UNL     1      24.847   7.116   4.800  1.00  0.00    -0.388 OA
HETATM   31  C5  UNL     1      25.669   6.944   3.689  1.00  0.00     0.187 C 
HETATM   32  C6  UNL     1      26.570   5.733   3.811  1.00  0.00     0.151 C 
ENDBRANCH   4  27
BRANCH   1  33
HETATM   33  N1  UNL     1      24.623   0.270   3.277  1.00  0.00    -0.234 N 
ATOM     34  H12 UNL     1      23.750   0.262   3.805  1.00  0.00     0.174 HD
ATOM     35  H11 UNL     1      24.756  -0.376   2.499  1.00  0.00     0.174 HD
ENDBRANCH   1  33
TORSDOF 6
ENDMDL
MODEL 3
REMARK VINA RESULT: -8.207591234      3.107      7.894
REMARK  6 active torsions:
REMARK  status: ('A' for Active; 'I' for Inactive)
REMARK    1  A    between atoms: N1_1  and  C1_4 
REMARK    2  A    between atoms: C2_7  and  N3_8 
REMARK    3  A    between atoms: C8_16  and  C9_17 
REMARK    4  A    between atoms: C9_17  and  N4_18 
REMARK    5  A    between atoms: C12_21  and  C13_22 
REMARK    6  A    between atoms: C13_22  and  C14_23 
ROOT
HETATM    1  C1  UNL     1      25.656   1.162   3.279  1.00  0.00     0.678 A 
HETATM    2  N2  UNL     1      25.351   2.458   3.582  1.00  0.00    -0.174 N 
ATOM      3  H2  UNL     1      24.393   2.790   3.474  1.00  0.00     0.186 HD
HETATM    4  C2  UNL     1      26.299   3.297   4.019  1.00  0.00     0.160 A 
HETATM    5  C7  UNL     1      27.573   2.829   4.154  1.00  0.00     0.189 A 
HETATM    6  F1  UNL     1      28.526   3.680   4.597  1.00  0.00    -0.200 F 
HETATM    7  C8  UNL     1      27.920   1.498   3.850  1.00  0.00     0.106 A 
HETATM    8  N5  UNL     1      26.924   0.717   3.420  1.00  0.00    -0.188 N 
ATOM      9  H5  UNL     1      27.130  -0.255   3.189  1.00  0.00     0.184 HD
ENDROOT
BRANCH   7  10
HETATM   10  C9  UNL     1      29.290   1.054   4.028  1.00  0.00     0.119 C 
BRANCH  10  11
HETATM   11  N4  UNL     1      29.842   1.001   5.324  1.00  0.00    -0.388 N 
HETATM   12  C10 UNL     1      28.957   0.936   6.421  1.00  0.00     0.122 C 
HETATM   13  C11 UNL     1      29.724   1.147   7.714  1.00  0.00     0.024 C 
HETATM   14  C12 UNL     1      30.992   0.265   7.654  1.00  0.00    -0.007 C 
HETATM   15  C20 UNL     1      31.875   0.928   6.649  1.00  0.00     0.024 C 
HETATM   16  C21 UNL     1      31.090   1.602   5.517  1.00  0.00     0.122 C 
BRANCH  14  17
HETATM   17  C13 UNL     1      31.516   0.197   9.052  1.00  0.00     0.046 C 
BRANCH  17  18
HETATM   18  C14 UNL     1      30.583   0.374  10.147  1.00  0.00    -0.016 A 
HETATM   19  C15 UNL     1      29.542   1.300   9.973  1.00  0.00     0.055 A 
HETATM   20  C16 UNL     1      28.584   1.537  10.927  1.00  0.00     0.155 A 
HETATM   21  F2  UNL     1      27.582   2.444  10.727  1.00  0.00    -0.203 F 
HETATM   22  C17 UNL     1      28.634   0.836  12.133  1.00  0.00     0.157 A 
HETATM   23  F3  UNL     1      27.676   1.090  13.057  1.00  0.00    -0.203 F 
HETATM   24  C18 UNL     1      29.635  -0.059  12.314  1.00  0.00     0.088 A 
HETATM   25  C19 UNL     1      30.614  -0.294  11.326  1.00  0.00     0.125 A 
HETATM   26  F4  UNL     1      31.552  -1.193  11.694  1.00  0.00    -0.205 F 
ENDBRANCH  17  18
ENDBRANCH  14  17
ENDBRANCH  10  11
ENDBRANCH   7  10
BRANCH   4  27
HETATM   27  N3  UNL     1      25.938   4.625   4.317  1.00  0.00    -0.360 N 
HETATM   28  C3  UNL     1      24.869   4.809   5.294  1.00  0.00     0.151 C 
HETATM   29  C4  UNL     1      23.998   6.003   4.884  1.00  0.00     0.187 C 
HETATM   30  O1  UNL     1      24.868   7.085   4.839  1.00  0.00    -0.388 OA
HETATM   31  C5  UNL     1      25.629   6.969   3.679  1.00  0.00     0.187 C 
HETATM   32  C6  UNL     1      26.562   5.776   3.709  1.00  0.00     0.151 C 
ENDBRANCH   4  27
BRANCH   1  33
HETATM   33  N1  UNL     1      24.748   0.355   2.853  1.00  0.00    -0.234 N 
ATOM     34  H12 UNL     1      24.448   0.411   1.880  1.00  0.00     0.174 HD
ATOM     35  H11 UNL     1      24.326  -0.331   3.479  1.00  0.00     0.174 HD
ENDBRANCH   1  33
TORSDOF 6
ENDMDL
MODEL 4
REMARK VINA RESULT: -7.996807209      3.137      7.894
REMARK  6 active torsions:
REMARK  status: ('A' for Active; 'I' for Inactive)
REMARK    1  A    between atoms: N1_1  and  C1_4 
REMARK    2  A    between atoms: C2_7  and  N3_8 
REMARK    3  A    between atoms: C8_16  and  C9_17 
REMARK    4  A    between atoms: C9_17  and  N4_18 
REMARK    5  A    between atoms: C12_21  and  C13_22 
REMARK    6  A    between atoms: C13_22  and  C14_23 
ROOT
HETATM    1  C1  UNL     1      25.922   1.233   3.013  1.00  0.00     0.678 A 
HETATM    2  N2  UNL     1      25.540   2.488   3.394  1.00  0.00    -0.174 N 
ATOM      3  H2  UNL     1      24.568   2.776   3.279  1.00  0.00     0.186 HD
HETATM    4  C2  UNL     1      26.429   3.341   3.915  1.00  0.00     0.160 A 
HETATM    5  C7  UNL     1      27.722   2.931   4.058  1.00  0.00     0.189 A 
HETATM    6  F1  UNL     1      28.616   3.797   4.586  1.00  0.00    -0.200 F 
HETATM    7  C8  UNL     1      28.148   1.644   3.674  1.00  0.00     0.106 A 
HETATM    8  N5  UNL     1      27.207   0.845   3.162  1.00  0.00    -0.188 N 
ATOM      9  H5  UNL     1      27.470  -0.097   2.872  1.00  0.00     0.184 HD
ENDROOT
BRANCH   7  10
HETATM   10  C9  UNL     1      29.534   1.259   3.864  1.00  0.00     0.119 C 
BRANCH  10  11
HETATM   11  N4  UNL     1      29.993   0.922   5.154  1.00  0.00    -0.388 N 
HETATM   12  C10 UNL     1      31.189   1.516   5.609  1.00  0.00     0.122 C 
HETATM   13  C11 UNL     1      31.645   0.838   6.889  1.00  0.00     0.024 C 
HETATM   14  C12 UNL     1      30.412   0.708   7.813  1.00  0.00    -0.007 C 
HETATM   15  C20 UNL     1      29.566  -0.346   7.178  1.00  0.00     0.024 C 
HETATM   16  C21 UNL     1      29.652  -0.342   5.648  1.00  0.00     0.122 C 
BRANCH  14  17
HETATM   17  C13 UNL     1      30.945   0.398   9.174  1.00  0.00     0.046 C 
BRANCH  17  18
HETATM   18  C14 UNL     1      30.062   0.556  10.312  1.00  0.00    -0.016 A 
HETATM   19  C15 UNL     1      30.351  -0.183  11.471  1.00  0.00     0.055 A 
HETATM   20  C16 UNL     1      29.603  -0.100  12.618  1.00  0.00     0.155 A 
HETATM   21  F2  UNL     1      29.912  -0.832  13.730  1.00  0.00    -0.203 F 
HETATM   22  C17 UNL     1      28.498   0.751  12.652  1.00  0.00     0.157 A 
HETATM   23  F3  UNL     1      27.777   0.814  13.798  1.00  0.00    -0.203 F 
HETATM   24  C18 UNL     1      28.206   1.468  11.540  1.00  0.00     0.088 A 
HETATM   25  C19 UNL     1      28.983   1.375  10.366  1.00  0.00     0.125 A 
HETATM   26  F4  UNL     1      28.523   2.135   9.349  1.00  0.00    -0.205 F 
ENDBRANCH  17  18
ENDBRANCH  14  17
ENDBRANCH  10  11
ENDBRANCH   7  10
BRANCH   4  27
HETATM   27  N3  UNL     1      25.990   4.625   4.292  1.00  0.00    -0.360 N 
HETATM   28  C3  UNL     1      24.942   4.688   5.306  1.00  0.00     0.151 C 
HETATM   29  C4  UNL     1      23.982   5.838   4.983  1.00  0.00     0.187 C 
HETATM   30  O1  UNL     1      24.776   6.978   4.970  1.00  0.00    -0.388 OA
HETATM   31  C5  UNL     1      25.506   6.971   3.784  1.00  0.00     0.187 C 
HETATM   32  C6  UNL     1      26.517   5.845   3.727  1.00  0.00     0.151 C 
ENDBRANCH   4  27
BRANCH   1  33
HETATM   33  N1  UNL     1      25.069   0.412   2.505  1.00  0.00    -0.234 N 
ATOM     34  H12 UNL     1      25.326  -0.569   2.395  1.00  0.00     0.174 HD
ATOM     35  H11 UNL     1      24.148   0.735   2.210  1.00  0.00     0.174 HD
ENDBRANCH   1  33
TORSDOF 6
ENDMDL
MODEL 5
REMARK VINA RESULT: -7.951302301      3.357      8.184
REMARK  6 active torsions:
REMARK  status: ('A' for Active; 'I' for Inactive)
REMARK    1  A    between atoms: N1_1  and  C1_4 
REMARK    2  A    between atoms: C2_7  and  N3_8 
REMARK    3  A    between atoms: C8_16  and  C9_17 
REMARK    4  A    between atoms: C9_17  and  N4_18 
REMARK    5  A    between atoms: C12_21  and  C13_22 
REMARK    6  A    between atoms: C13_22  and  C14_23 
ROOT
HETATM    1  C1  UNL     1      26.389   1.538   3.241  1.00  0.00     0.678 A 
HETATM    2  N2  UNL     1      25.851   2.767   3.495  1.00  0.00    -0.174 N 
ATOM      3  H2  UNL     1      24.900   2.975   3.190  1.00  0.00     0.186 HD
HETATM    4  C2  UNL     1      26.560   3.701   4.139  1.00  0.00     0.160 A 
HETATM    5  C7  UNL     1      27.830   3.398   4.536  1.00  0.00     0.189 A 
HETATM    6  F1  UNL     1      28.542   4.346   5.188  1.00  0.00    -0.200 F 
HETATM    7  C8  UNL     1      28.414   2.141   4.289  1.00  0.00     0.106 A 
HETATM    8  N5  UNL     1      27.648   1.257   3.642  1.00  0.00    -0.188 N 
ATOM      9  H5  UNL     1      28.030   0.332   3.443  1.00  0.00     0.184 HD
ENDROOT
BRANCH   7  10
HETATM   10  C9  UNL     1      29.764   1.872   4.748  1.00  0.00     0.119 C 
BRANCH  10  11
HETATM   11  N4  UNL     1      29.966   1.307   6.024  1.00  0.00    -0.388 N 
HETATM   12  C10 UNL     1      28.985   1.531   7.013  1.00  0.00     0.122 C 
HETATM   13  C11 UNL     1      29.502   1.071   8.364  1.00  0.00     0.024 C 
HETATM   14  C12 UNL     1      30.140  -0.324   8.169  1.00  0.00    -0.007 C 
HETATM   15  C20 UNL     1      31.403  -0.067   7.416  1.00  0.00     0.024 C 
HETATM   16  C21 UNL     1      31.288   1.107   6.437  1.00  0.00     0.122 C 
BRANCH  14  17
HETATM   17  C13 UNL     1      30.292  -0.905   9.538  1.00  0.00     0.046 C 
BRANCH  17  18
HETATM   18  C14 UNL     1      30.283  -0.004  10.673  1.00  0.00    -0.016 A 
HETATM   19  C15 UNL     1      29.089   0.115  11.402  1.00  0.00     0.055 A 
HETATM   20  C16 UNL     1      28.964   0.917  12.509  1.00  0.00     0.155 A 
HETATM   21  F2  UNL     1      27.788   1.010  13.198  1.00  0.00    -0.203 F 
HETATM   22  C17 UNL     1      30.064   1.657  12.942  1.00  0.00     0.157 A 
HETATM   23  F3  UNL     1      29.914   2.440  14.039  1.00  0.00    -0.203 F 
HETATM   24  C18 UNL     1      31.222   1.552  12.246  1.00  0.00     0.088 A 
HETATM   25  C19 UNL     1      31.339   0.725  11.111  1.00  0.00     0.125 A 
HETATM   26  F4  UNL     1      32.555   0.773  10.526  1.00  0.00    -0.205 F 
ENDBRANCH  17  18
ENDBRANCH  14  17
ENDBRANCH  10  11
ENDBRANCH   7  10
BRANCH   4  27
HETATM   27  N3  UNL     1      25.965   4.955   4.377  1.00  0.00    -0.360 N 
HETATM   28  C3  UNL     1      24.827   4.977   5.292  1.00  0.00     0.151 C 
HETATM   29  C4  UNL     1      23.792   5.996   4.801  1.00  0.00     0.187 C 
HETATM   30  O1  UNL     1      24.469   7.209   4.767  1.00  0.00    -0.388 OA
HETATM   31  C5  UNL     1      25.302   7.198   3.651  1.00  0.00     0.187 C 
HETATM   32  C6  UNL     1      26.420   6.181   3.766  1.00  0.00     0.151 C 
ENDBRANCH   4  27
BRANCH   1  33
HETATM   33  N1  UNL     1      25.710   0.640   2.616  1.00  0.00    -0.234 N 
ATOM     34  H12 UNL     1      25.901   0.468   1.629  1.00  0.00     0.174 HD
ATOM     35  H11 UNL     1      24.986   0.106   3.097  1.00  0.00     0.174 HD
ENDBRANCH   1  33
TORSDOF 6
ENDMDL
