MODEL 1
REMARK VINA RESULT: -6.286792128      0.000      0.000
REMARK  6 active torsions:
REMARK  status: ('A' for Active; 'I' for Inactive)
REMARK    1  A    between atoms: C2_2  and  C4_4 
REMARK    2  A    between atoms: C4_4  and  N1_5 
REMARK    3  A    between atoms: C7_15  and  N5_16 
REMARK    4  A    between atoms: C12_22  and  C13_23 
REMARK    5  A    between atoms: C14_27  and  C15_28 
REMARK    6  A    between atoms: C15_28  and  N6_29 
ROOT
HETATM    1  N1  UNL     1      30.047   0.091   7.240  1.00  0.00    -0.374 N 
ATOM      2  H1  UNL     1      29.511  -0.676   6.834  1.00  0.00     0.161 HD
HETATM    3  C5  UNL     1      29.806   1.319   6.936  1.00  0.00     0.130 A 
HETATM    4  N2  UNL     1      30.451   2.406   7.408  1.00  0.00    -0.283 N 
ATOM      5  H2  UNL     1      31.287   2.382   7.993  1.00  0.00     0.188 HD
HETATM    6  N3  UNL     1      29.848   3.499   7.004  1.00  0.00    -0.283 N 
ATOM      7  H3  UNL     1      30.141   4.450   7.227  1.00  0.00     0.188 HD
HETATM    8  C6  UNL     1      28.779   3.171   6.250  1.00  0.00     0.136 A 
HETATM    9  N4  UNL     1      27.831   3.899   5.681  1.00  0.00    -0.326 N 
ATOM     10  H4  UNL     1      27.893   4.915   5.739  1.00  0.00     0.169 HD
HETATM   11  C7  UNL     1      26.758   3.334   5.011  1.00  0.00     0.119 A 
HETATM   12  C12 UNL     1      26.654   1.974   4.915  1.00  0.00     0.082 A 
HETATM   13  C14 UNL     1      27.672   1.209   5.511  1.00  0.00     0.005 A 
HETATM   14  C18 UNL     1      28.716   1.795   6.177  1.00  0.00     0.063 A 
ENDROOT
BRANCH   1  15
HETATM   15  C4  UNL     1      31.115  -0.148   8.185  1.00  0.00     0.125 C 
BRANCH  15  16
HETATM   16  C2  UNL     1      30.672   0.079   9.606  1.00  0.00    -0.005 C 
HETATM   17  C1  UNL     1      31.860   0.449  10.449  1.00  0.00     0.011 C 
HETATM   18  C3  UNL     1      29.913  -1.077  10.166  1.00  0.00     0.011 C 
ENDBRANCH  15  16
ENDBRANCH   1  15
BRANCH  13  19
HETATM   19  C15 UNL     1      27.567  -0.263   5.344  1.00  0.00     0.312 C 
BRANCH  19  20
HETATM   20  N6  UNL     1      28.561  -0.743   4.386  1.00  0.00     0.084 N 
HETATM   21  C16 UNL     1      28.113  -1.850   3.628  1.00  0.00     0.309 C 
HETATM   22  C17 UNL     1      28.978   0.348   3.561  1.00  0.00     0.309 C 
ENDBRANCH  19  20
ENDBRANCH  13  19
BRANCH  12  23
HETATM   23  C13 UNL     1      25.501   1.336   4.250  1.00  0.00     0.353 C 
HETATM   24  F1  UNL     1      25.410  -0.022   4.397  1.00  0.00    -0.182 F 
HETATM   25  F2  UNL     1      24.301   1.967   4.325  1.00  0.00    -0.182 F 
HETATM   26 CL1  UNL     1      25.809   1.488   2.443  1.00  0.00    -0.042 Cl
ENDBRANCH  12  23
BRANCH  11  27
HETATM   27  N5  UNL     1      25.918   4.320   4.457  1.00  0.00    -0.363 N 
HETATM   28  C8  UNL     1      26.197   5.121   3.321  1.00  0.00     0.150 C 
HETATM   29  C9  UNL     1      25.983   6.585   3.818  1.00  0.00     0.187 C 
HETATM   30  O1  UNL     1      24.688   6.816   4.175  1.00  0.00    -0.388 OA
HETATM   31  C10 UNL     1      23.977   5.665   4.415  1.00  0.00     0.187 C 
HETATM   32  C11 UNL     1      24.724   4.623   5.222  1.00  0.00     0.150 C 
ENDBRANCH  11  27
TORSDOF 6
ENDMDL
MODEL 2
REMARK VINA RESULT: -5.942904446      0.806      1.067
REMARK  6 active torsions:
REMARK  status: ('A' for Active; 'I' for Inactive)
REMARK    1  A    between atoms: C2_2  and  C4_4 
REMARK    2  A    between atoms: C4_4  and  N1_5 
REMARK    3  A    between atoms: C7_15  and  N5_16 
REMARK    4  A    between atoms: C12_22  and  C13_23 
REMARK    5  A    between atoms: C14_27  and  C15_28 
REMARK    6  A    between atoms: C15_28  and  N6_29 
ROOT
HETATM    1  N1  UNL     1      29.947  -0.031   7.416  1.00  0.00    -0.374 N 
ATOM      2  H1  UNL     1      29.461  -0.783   6.927  1.00  0.00     0.161 HD
HETATM    3  C5  UNL     1      29.730   1.207   7.134  1.00  0.00     0.130 A 
HETATM    4  N2  UNL     1      30.315   2.277   7.712  1.00  0.00    -0.283 N 
ATOM      5  H2  UNL     1      31.084   2.233   8.380  1.00  0.00     0.188 HD
HETATM    6  N3  UNL     1      29.749   3.383   7.289  1.00  0.00    -0.283 N 
ATOM      7  H3  UNL     1      30.011   4.326   7.577  1.00  0.00     0.188 HD
HETATM    8  C6  UNL     1      28.768   3.081   6.415  1.00  0.00     0.136 A 
HETATM    9  N4  UNL     1      27.879   3.827   5.778  1.00  0.00    -0.326 N 
ATOM     10  H4  UNL     1      27.927   4.840   5.880  1.00  0.00     0.169 HD
HETATM   11  C7  UNL     1      26.885   3.285   4.978  1.00  0.00     0.119 A 
HETATM   12  C12 UNL     1      26.802   1.929   4.821  1.00  0.00     0.082 A 
HETATM   13  C14 UNL     1      27.758   1.146   5.491  1.00  0.00     0.005 A 
HETATM   14  C18 UNL     1      28.722   1.709   6.284  1.00  0.00     0.063 A 
ENDROOT
BRANCH   1  15
HETATM   15  C4  UNL     1      30.911  -0.302   8.457  1.00  0.00     0.125 C 
BRANCH  15  16
HETATM   16  C2  UNL     1      30.334  -0.085   9.832  1.00  0.00    -0.005 C 
HETATM   17  C1  UNL     1      31.378   0.529  10.723  1.00  0.00     0.011 C 
HETATM   18  C3  UNL     1      29.745  -1.326  10.413  1.00  0.00     0.011 C 
ENDBRANCH  15  16
ENDBRANCH   1  15
BRANCH  13  19
HETATM   19  C15 UNL     1      27.681  -0.320   5.259  1.00  0.00     0.312 C 
BRANCH  19  20
HETATM   20  N6  UNL     1      28.527  -0.705   4.130  1.00  0.00     0.084 N 
HETATM   21  C16 UNL     1      29.856  -1.002   4.509  1.00  0.00     0.309 C 
HETATM   22  C17 UNL     1      27.906  -1.787   3.430  1.00  0.00     0.309 C 
ENDBRANCH  19  20
ENDBRANCH  13  19
BRANCH  12  23
HETATM   23  C13 UNL     1      25.730   1.313   4.015  1.00  0.00     0.353 C 
HETATM   24  F1  UNL     1      25.644   1.743   2.717  1.00  0.00    -0.182 F 
HETATM   25  F2  UNL     1      25.524  -0.022   4.153  1.00  0.00    -0.182 F 
HETATM   26 CL1  UNL     1      24.147   1.937   4.712  1.00  0.00    -0.042 Cl
ENDBRANCH  12  23
BRANCH  11  27
HETATM   27  N5  UNL     1      26.102   4.289   4.377  1.00  0.00    -0.363 N 
HETATM   28  C8  UNL     1      26.429   5.027   3.211  1.00  0.00     0.150 C 
HETATM   29  C9  UNL     1      26.288   6.519   3.646  1.00  0.00     0.187 C 
HETATM   30  O1  UNL     1      25.003   6.830   3.981  1.00  0.00    -0.388 OA
HETATM   31  C10 UNL     1      24.233   5.728   4.262  1.00  0.00     0.187 C 
HETATM   32  C11 UNL     1      24.919   4.684   5.118  1.00  0.00     0.150 C 
ENDBRANCH  11  27
TORSDOF 6
ENDMDL
MODEL 3
REMARK VINA RESULT: -5.371896387      2.805      6.573
REMARK  6 active torsions:
REMARK  status: ('A' for Active; 'I' for Inactive)
REMARK    1  A    between atoms: C2_2  and  C4_4 
REMARK    2  A    between atoms: C4_4  and  N1_5 
REMARK    3  A    between atoms: C7_15  and  N5_16 
REMARK    4  A    between atoms: C12_22  and  C13_23 
REMARK    5  A    between atoms: C14_27  and  C15_28 
REMARK    6  A    between atoms: C15_28  and  N6_29 
ROOT
HETATM    1  N1  UNL     1      25.917   4.839   3.447  1.00  0.00    -0.374 N 
ATOM      2  H1  UNL     1      25.549   4.038   2.935  1.00  0.00     0.161 HD
HETATM    3  C5  UNL     1      26.842   4.706   4.333  1.00  0.00     0.130 A 
HETATM    4  N2  UNL     1      27.398   5.691   5.069  1.00  0.00    -0.283 N 
ATOM      5  H2  UNL     1      27.079   6.660   5.086  1.00  0.00     0.188 HD
HETATM    6  N3  UNL     1      28.410   5.221   5.760  1.00  0.00    -0.283 N 
ATOM      7  H3  UNL     1      28.995   5.767   6.393  1.00  0.00     0.188 HD
HETATM    8  C6  UNL     1      28.559   3.906   5.503  1.00  0.00     0.136 A 
HETATM    9  N4  UNL     1      29.459   3.016   5.891  1.00  0.00    -0.326 N 
ATOM     10  H4  UNL     1      30.173   3.303   6.560  1.00  0.00     0.169 HD
HETATM   11  C7  UNL     1      29.469   1.712   5.425  1.00  0.00     0.119 A 
HETATM   12  C12 UNL     1      28.519   1.301   4.531  1.00  0.00     0.082 A 
HETATM   13  C14 UNL     1      27.560   2.249   4.133  1.00  0.00     0.005 A 
HETATM   14  C18 UNL     1      27.581   3.535   4.603  1.00  0.00     0.063 A 
ENDROOT
BRANCH   1  15
HETATM   15  C4  UNL     1      25.426   6.178   3.214  1.00  0.00     0.125 C 
BRANCH  15  16
HETATM   16  C2  UNL     1      24.150   6.451   3.966  1.00  0.00    -0.005 C 
HETATM   17  C1  UNL     1      24.394   7.514   5.000  1.00  0.00     0.011 C 
HETATM   18  C3  UNL     1      23.548   5.217   4.546  1.00  0.00     0.011 C 
ENDBRANCH  15  16
ENDBRANCH   1  15
BRANCH  13  19
HETATM   19  C15 UNL     1      26.505   1.762   3.207  1.00  0.00     0.312 C 
BRANCH  19  20
HETATM   20  N6  UNL     1      25.401   1.163   3.954  1.00  0.00     0.084 N 
HETATM   21  C16 UNL     1      25.072   1.879   5.128  1.00  0.00     0.309 C 
HETATM   22  C17 UNL     1      24.279   1.004   3.082  1.00  0.00     0.309 C 
ENDBRANCH  19  20
ENDBRANCH  13  19
BRANCH  12  23
HETATM   23  C13 UNL     1      28.526  -0.067   3.977  1.00  0.00     0.353 C 
HETATM   24  F1  UNL     1      27.968  -0.205   2.734  1.00  0.00    -0.182 F 
HETATM   25  F2  UNL     1      29.649  -0.812   4.147  1.00  0.00    -0.182 F 
HETATM   26 CL1  UNL     1      27.359  -1.041   5.012  1.00  0.00    -0.042 Cl
ENDBRANCH  12  23
BRANCH  11  27
HETATM   27  N5  UNL     1      30.494   0.956   6.026  1.00  0.00    -0.363 N 
HETATM   28  C8  UNL     1      30.325  -0.156   6.889  1.00  0.00     0.150 C 
HETATM   29  C9  UNL     1      31.163   0.206   8.155  1.00  0.00     0.187 C 
HETATM   30  O1  UNL     1      32.493   0.306   7.871  1.00  0.00    -0.388 OA
HETATM   31  C10 UNL     1      32.752   0.482   6.534  1.00  0.00     0.187 C 
HETATM   32  C11 UNL     1      31.838   1.472   5.842  1.00  0.00     0.150 C 
ENDBRANCH  11  27
TORSDOF 6
ENDMDL
MODEL 4
REMARK VINA RESULT: -5.313857729      1.319      1.742
REMARK  6 active torsions:
REMARK  status: ('A' for Active; 'I' for Inactive)
REMARK    1  A    between atoms: C2_2  and  C4_4 
REMARK    2  A    between atoms: C4_4  and  N1_5 
REMARK    3  A    between atoms: C7_15  and  N5_16 
REMARK    4  A    between atoms: C12_22  and  C13_23 
REMARK    5  A    between atoms: C14_27  and  C15_28 
REMARK    6  A    between atoms: C15_28  and  N6_29 
ROOT
HETATM    1  N1  UNL     1      30.967   0.472   5.574  1.00  0.00    -0.374 N 
ATOM      2  H1  UNL     1      30.630  -0.195   4.879  1.00  0.00     0.161 HD
HETATM    3  C5  UNL     1      30.414   1.625   5.726  1.00  0.00     0.130 A 
HETATM    4  N2  UNL     1      30.777   2.581   6.607  1.00  0.00    -0.283 N 
ATOM      5  H2  UNL     1      31.608   2.546   7.199  1.00  0.00     0.188 HD
HETATM    6  N3  UNL     1      29.906   3.562   6.592  1.00  0.00    -0.283 N 
ATOM      7  H3  UNL     1      29.956   4.403   7.168  1.00  0.00     0.188 HD
HETATM    8  C6  UNL     1      28.935   3.288   5.698  1.00  0.00     0.136 A 
HETATM    9  N4  UNL     1      27.817   3.918   5.372  1.00  0.00    -0.326 N 
ATOM     10  H4  UNL     1      27.622   4.822   5.803  1.00  0.00     0.169 HD
HETATM   11  C7  UNL     1      26.903   3.400   4.470  1.00  0.00     0.119 A 
HETATM   12  C12 UNL     1      27.144   2.193   3.875  1.00  0.00     0.082 A 
HETATM   13  C14 UNL     1      28.339   1.535   4.217  1.00  0.00     0.005 A 
HETATM   14  C18 UNL     1      29.219   2.067   5.121  1.00  0.00     0.063 A 
ENDROOT
BRANCH   1  15
HETATM   15  C4  UNL     1      32.086   0.167   6.436  1.00  0.00     0.125 C 
BRANCH  15  16
HETATM   16  C2  UNL     1      31.640  -0.263   7.809  1.00  0.00    -0.005 C 
HETATM   17  C1  UNL     1      30.139  -0.281   7.867  1.00  0.00     0.011 C 
HETATM   18  C3  UNL     1      32.244   0.561   8.896  1.00  0.00     0.011 C 
ENDBRANCH  15  16
ENDBRANCH   1  15
BRANCH  13  19
HETATM   19  C15 UNL     1      28.604   0.254   3.515  1.00  0.00     0.312 C 
BRANCH  19  20
HETATM   20  N6  UNL     1      28.566  -0.865   4.455  1.00  0.00     0.084 N 
HETATM   21  C16 UNL     1      27.252  -1.231   4.829  1.00  0.00     0.309 C 
HETATM   22  C17 UNL     1      29.301  -1.962   3.905  1.00  0.00     0.309 C 
ENDBRANCH  19  20
ENDBRANCH  13  19
BRANCH  12  23
HETATM   23  C13 UNL     1      26.172   1.587   2.943  1.00  0.00     0.353 C 
HETATM   24  F1  UNL     1      25.527   2.462   2.110  1.00  0.00    -0.182 F 
HETATM   25  F2  UNL     1      26.521   0.423   2.336  1.00  0.00    -0.182 F 
HETATM   26 CL1  UNL     1      24.782   0.980   3.983  1.00  0.00    -0.042 Cl
ENDBRANCH  12  23
BRANCH  11  27
HETATM   27  N5  UNL     1      25.827   4.284   4.260  1.00  0.00    -0.363 N 
HETATM   28  C8  UNL     1      25.835   5.441   3.441  1.00  0.00     0.150 C 
HETATM   29  C9  UNL     1      25.338   6.584   4.380  1.00  0.00     0.187 C 
HETATM   30  O1  UNL     1      24.054   6.381   4.790  1.00  0.00    -0.388 OA
HETATM   31  C10 UNL     1      23.637   5.079   4.648  1.00  0.00     0.187 C 
HETATM   32  C11 UNL     1      24.655   4.043   5.079  1.00  0.00     0.150 C 
ENDBRANCH  11  27
TORSDOF 6
ENDMDL
MODEL 5
REMARK VINA RESULT: -5.044190571      1.481      1.966
REMARK  6 active torsions:
REMARK  status: ('A' for Active; 'I' for Inactive)
REMARK    1  A    between atoms: C2_2  and  C4_4 
REMARK    2  A    between atoms: C4_4  and  N1_5 
REMARK    3  A    between atoms: C7_15  and  N5_16 
REMARK    4  A    between atoms: C12_22  and  C13_23 
REMARK    5  A    between atoms: C14_27  and  C15_28 
REMARK    6  A    between atoms: C15_28  and  N6_29 
ROOT
HETATM    1  N1  UNL     1      29.604   0.006   6.054  1.00  0.00    -0.374 N 
ATOM      2  H1  UNL     1      28.764  -0.552   5.905  1.00  0.00     0.161 HD
HETATM    3  C5  UNL     1      29.632   1.268   5.793  1.00  0.00     0.130 A 
HETATM    4  N2  UNL     1      30.685   2.097   5.949  1.00  0.00    -0.283 N 
ATOM      5  H2  UNL     1      31.629   1.804   6.199  1.00  0.00     0.188 HD
HETATM    6  N3  UNL     1      30.317   3.338   5.730  1.00  0.00    -0.283 N 
ATOM      7  H3  UNL     1      30.929   4.152   5.785  1.00  0.00     0.188 HD
HETATM    8  C6  UNL     1      29.004   3.371   5.424  1.00  0.00     0.136 A 
HETATM    9  N4  UNL     1      28.166   4.369   5.193  1.00  0.00    -0.326 N 
ATOM     10  H4  UNL     1      28.531   5.320   5.173  1.00  0.00     0.169 HD
HETATM   11  C7  UNL     1      26.811   4.172   4.978  1.00  0.00     0.119 A 
HETATM   12  C12 UNL     1      26.297   2.905   4.995  1.00  0.00     0.082 A 
HETATM   13  C14 UNL     1      27.196   1.850   5.229  1.00  0.00     0.005 A 
HETATM   14  C18 UNL     1      28.529   2.076   5.448  1.00  0.00     0.063 A 
ENDROOT
BRANCH   1  15
HETATM   15  C4  UNL     1      30.821  -0.579   6.569  1.00  0.00     0.125 C 
BRANCH  15  16
HETATM   16  C2  UNL     1      31.484   0.304   7.592  1.00  0.00    -0.005 C 
HETATM   17  C1  UNL     1      32.977   0.217   7.439  1.00  0.00     0.011 C 
HETATM   18  C3  UNL     1      31.035   0.012   8.984  1.00  0.00     0.011 C 
ENDBRANCH  15  16
ENDBRANCH   1  15
BRANCH  13  19
HETATM   19  C15 UNL     1      26.622   0.480   5.186  1.00  0.00     0.312 C 
BRANCH  19  20
HETATM   20  N6  UNL     1      27.309  -0.332   4.183  1.00  0.00     0.084 N 
HETATM   21  C16 UNL     1      26.976  -1.704   4.258  1.00  0.00     0.309 C 
HETATM   22  C17 UNL     1      27.060   0.219   2.887  1.00  0.00     0.309 C 
ENDBRANCH  19  20
ENDBRANCH  13  19
BRANCH  12  23
HETATM   23  C13 UNL     1      24.852   2.660   4.817  1.00  0.00     0.353 C 
HETATM   24  F1  UNL     1      24.211   3.504   3.950  1.00  0.00    -0.182 F 
HETATM   25  F2  UNL     1      24.439   1.370   4.715  1.00  0.00    -0.182 F 
HETATM   26 CL1  UNL     1      24.059   3.106   6.415  1.00  0.00    -0.042 Cl
ENDBRANCH  12  23
BRANCH  11  27
HETATM   27  N5  UNL     1      26.149   5.386   4.709  1.00  0.00    -0.363 N 
HETATM   28  C8  UNL     1      25.251   6.064   5.571  1.00  0.00     0.150 C 
HETATM   29  C9  UNL     1      23.974   6.285   4.703  1.00  0.00     0.187 C 
HETATM   30  O1  UNL     1      24.218   7.103   3.640  1.00  0.00    -0.388 OA
HETATM   31  C10 UNL     1      25.552   7.208   3.331  1.00  0.00     0.187 C 
HETATM   32  C11 UNL     1      26.310   5.897   3.361  1.00  0.00     0.150 C 
ENDBRANCH  11  27
TORSDOF 6
ENDMDL
