MODEL 1
REMARK VINA RESULT: -7.612085821      0.000      0.000
REMARK  8 active torsions:
REMARK  status: ('A' for Active; 'I' for Inactive)
REMARK    1  A    between atoms: N1_2  and  C2_4 
REMARK    2  A    between atoms: C7_11  and  N3_12 
REMARK    3  A    between atoms: N3_12  and  C8_14 
REMARK    4  A    between atoms: C8_14  and  C9_15 
REMARK    5  A    between atoms: N4_18  and  C12_19 
REMARK    6  A    between atoms: C14_24  and  O1_25 
REMARK    7  A    between atoms: O1_25  and  C15_26 
REMARK    8  A    between atoms: C15_26  and  C16_27 
ROOT
HETATM    1  C9  UNL     1      28.828   0.191   3.628  1.00  0.00     0.105 C 
HETATM    2  C10 UNL     1      29.507  -0.758   2.676  1.00  0.00     0.047 C 
HETATM    3  C11 UNL     1      29.671  -1.608   3.922  1.00  0.00     0.127 C 
HETATM    4  N4  UNL     1      29.599  -0.399   4.726  1.00  0.00    -0.358 N 
ENDROOT
BRANCH   1   5
HETATM    5  C8  UNL     1      27.342  -0.113   3.707  1.00  0.00     0.146 C 
BRANCH   5   6
HETATM    6  N3  UNL     1      26.589   0.948   3.130  1.00  0.00    -0.373 N 
ATOM      7  H3  UNL     1      26.117   0.719   2.256  1.00  0.00     0.161 HD
BRANCH   6   8
HETATM    8  C7  UNL     1      26.417   2.138   3.542  1.00  0.00     0.124 A 
HETATM    9  C5  UNL     1      25.142   2.476   4.011  1.00  0.00     0.005 A 
HETATM   10  C3  UNL     1      24.844   3.735   4.479  1.00  0.00     0.032 A 
HETATM   11  C6  UNL     1      24.087   1.443   4.001  1.00  0.00     0.054 C 
HETATM   12  N2  UNL     1      25.794   4.675   4.491  1.00  0.00    -0.195 N 
HETATM   13  C4  UNL     1      23.493   4.099   4.979  1.00  0.00     0.069 C 
HETATM   14  C2  UNL     1      27.016   4.355   4.043  1.00  0.00     0.679 A 
ATOM     15  H2  UNL     1      25.594   5.615   4.833  1.00  0.00     0.184 HD
HETATM   16  N7  UNL     1      27.332   3.114   3.574  1.00  0.00    -0.176 N 
ATOM     17  H7  UNL     1      28.278   2.927   3.245  1.00  0.00     0.186 HD
BRANCH  14  18
HETATM   18  N1  UNL     1      27.968   5.250   4.041  1.00  0.00    -0.230 N 
HETATM   19  C1  UNL     1      27.933   6.390   4.931  1.00  0.00     0.165 C 
ATOM     20  H1  UNL     1      28.753   5.142   3.397  1.00  0.00     0.177 HD
ENDBRANCH  14  18
ENDBRANCH   6   8
ENDBRANCH   5   6
ENDBRANCH   1   5
BRANCH   4  21
HETATM   21  C12 UNL     1      30.063   0.030   5.999  1.00  0.00     0.145 A 
HETATM   22  N5  UNL     1      31.179  -0.246   6.678  1.00  0.00    -0.280 N 
HETATM   23  N6  UNL     1      31.174   0.399   7.850  1.00  0.00    -0.272 N 
ATOM     24  H5  UNL     1      31.926  -0.859   6.351  1.00  0.00     0.189 HD
HETATM   25  C13 UNL     1      32.255   0.306   8.828  1.00  0.00     0.180 C 
HETATM   26  C14 UNL     1      30.051   1.123   7.979  1.00  0.00     0.185 A 
HETATM   27  C17 UNL     1      29.342   0.898   6.816  1.00  0.00     0.131 A 
HETATM   28 CL1  UNL     1      27.785   1.624   6.485  1.00  0.00    -0.075 Cl
BRANCH  26  29
HETATM   29  O1  UNL     1      29.732   1.912   9.080  1.00  0.00    -0.324 OA
BRANCH  29  30
HETATM   30  C15 UNL     1      28.860   1.329  10.031  1.00  0.00     0.294 C 
BRANCH  30  31
HETATM   31  C16 UNL     1      29.539   0.928  11.298  1.00  0.00     0.408 C 
HETATM   32  F1  UNL     1      30.766   1.580  11.414  1.00  0.00    -0.169 F 
HETATM   33  F2  UNL     1      28.758   1.045  12.403  1.00  0.00    -0.169 F 
HETATM   34  F3  UNL     1      29.867  -0.428  11.162  1.00  0.00    -0.169 F 
ENDBRANCH  30  31
ENDBRANCH  29  30
ENDBRANCH  26  29
ENDBRANCH   4  21
TORSDOF 8
ENDMDL
MODEL 2
REMARK VINA RESULT: -7.593625126      0.682      1.012
REMARK  8 active torsions:
REMARK  status: ('A' for Active; 'I' for Inactive)
REMARK    1  A    between atoms: N1_2  and  C2_4 
REMARK    2  A    between atoms: C7_11  and  N3_12 
REMARK    3  A    between atoms: N3_12  and  C8_14 
REMARK    4  A    between atoms: C8_14  and  C9_15 
REMARK    5  A    between atoms: N4_18  and  C12_19 
REMARK    6  A    between atoms: C14_24  and  O1_25 
REMARK    7  A    between atoms: O1_25  and  C15_26 
REMARK    8  A    between atoms: C15_26  and  C16_27 
ROOT
HETATM    1  C9  UNL     1      28.855   0.620   3.814  1.00  0.00     0.105 C 
HETATM    2  C10 UNL     1      29.492  -0.364   2.868  1.00  0.00     0.047 C 
HETATM    3  C11 UNL     1      29.474  -1.271   4.085  1.00  0.00     0.127 C 
HETATM    4  N4  UNL     1      29.478  -0.091   4.934  1.00  0.00    -0.358 N 
ENDROOT
BRANCH   1   5
HETATM    5  C8  UNL     1      27.344   0.482   3.782  1.00  0.00     0.146 C 
BRANCH   5   6
HETATM    6  N3  UNL     1      26.757   1.611   3.145  1.00  0.00    -0.373 N 
ATOM      7  H3  UNL     1      26.813   1.613   2.127  1.00  0.00     0.161 HD
BRANCH   6   8
HETATM    8  C7  UNL     1      26.173   2.618   3.656  1.00  0.00     0.124 A 
HETATM    9  C5  UNL     1      24.816   2.481   3.969  1.00  0.00     0.005 A 
HETATM   10  C3  UNL     1      24.086   3.507   4.525  1.00  0.00     0.032 A 
HETATM   11  C6  UNL     1      24.151   1.191   3.693  1.00  0.00     0.054 C 
HETATM   12  N2  UNL     1      24.680   4.677   4.778  1.00  0.00    -0.195 N 
HETATM   13  C4  UNL     1      22.645   3.367   4.861  1.00  0.00     0.069 C 
HETATM   14  C2  UNL     1      25.980   4.811   4.479  1.00  0.00     0.679 A 
ATOM     15  H2  UNL     1      24.157   5.450   5.188  1.00  0.00     0.184 HD
HETATM   16  N7  UNL     1      26.721   3.808   3.927  1.00  0.00    -0.176 N 
ATOM     17  H7  UNL     1      27.707   3.967   3.720  1.00  0.00     0.186 HD
BRANCH  14  18
HETATM   18  N1  UNL     1      26.593   5.941   4.713  1.00  0.00    -0.230 N 
HETATM   19  C1  UNL     1      28.037   6.025   4.738  1.00  0.00     0.165 C 
ATOM     20  H1  UNL     1      26.041   6.783   4.883  1.00  0.00     0.177 HD
ENDBRANCH  14  18
ENDBRANCH   6   8
ENDBRANCH   5   6
ENDBRANCH   1   5
BRANCH   4  21
HETATM   21  C12 UNL     1      29.895   0.237   6.252  1.00  0.00     0.145 A 
HETATM   22  N5  UNL     1      30.931  -0.177   6.986  1.00  0.00    -0.280 N 
HETATM   23  N6  UNL     1      30.911   0.418   8.185  1.00  0.00    -0.272 N 
ATOM     24  H5  UNL     1      31.634  -0.848   6.679  1.00  0.00     0.189 HD
HETATM   25  C13 UNL     1      31.909   0.178   9.222  1.00  0.00     0.180 C 
HETATM   26  C14 UNL     1      29.858   1.246   8.276  1.00  0.00     0.185 A 
HETATM   27  C17 UNL     1      29.210   1.141   7.062  1.00  0.00     0.131 A 
HETATM   28 CL1  UNL     1      27.757   2.032   6.667  1.00  0.00    -0.075 Cl
BRANCH  26  29
HETATM   29  O1  UNL     1      29.545   2.019   9.390  1.00  0.00    -0.324 OA
BRANCH  29  30
HETATM   30  C15 UNL     1      28.575   1.478  10.269  1.00  0.00     0.294 C 
BRANCH  30  31
HETATM   31  C16 UNL     1      29.155   0.895  11.514  1.00  0.00     0.408 C 
HETATM   32  F1  UNL     1      29.142  -0.498  11.444  1.00  0.00    -0.169 F 
HETATM   33  F2  UNL     1      30.368   1.408  11.851  1.00  0.00    -0.169 F 
HETATM   34  F3  UNL     1      28.267   1.208  12.552  1.00  0.00    -0.169 F 
ENDBRANCH  30  31
ENDBRANCH  29  30
ENDBRANCH  26  29
ENDBRANCH   4  21
TORSDOF 8
ENDMDL
MODEL 3
REMARK VINA RESULT: -7.214796697      1.179      2.431
REMARK  8 active torsions:
REMARK  status: ('A' for Active; 'I' for Inactive)
REMARK    1  A    between atoms: N1_2  and  C2_4 
REMARK    2  A    between atoms: C7_11  and  N3_12 
REMARK    3  A    between atoms: N3_12  and  C8_14 
REMARK    4  A    between atoms: C8_14  and  C9_15 
REMARK    5  A    between atoms: N4_18  and  C12_19 
REMARK    6  A    between atoms: C14_24  and  O1_25 
REMARK    7  A    between atoms: O1_25  and  C15_26 
REMARK    8  A    between atoms: C15_26  and  C16_27 
ROOT
HETATM    1  C9  UNL     1      28.136   0.445   3.292  1.00  0.00     0.105 C 
HETATM    2  C10 UNL     1      28.195  -0.821   2.479  1.00  0.00     0.047 C 
HETATM    3  C11 UNL     1      28.230  -1.483   3.846  1.00  0.00     0.127 C 
HETATM    4  N4  UNL     1      28.794  -0.260   4.395  1.00  0.00    -0.358 N 
ENDROOT
BRANCH   1   5
HETATM    5  C8  UNL     1      26.694   0.815   3.590  1.00  0.00     0.146 C 
BRANCH   5   6
HETATM    6  N3  UNL     1      26.408   2.123   3.107  1.00  0.00    -0.373 N 
ATOM      7  H3  UNL     1      26.506   2.243   2.099  1.00  0.00     0.161 HD
BRANCH   6   8
HETATM    8  C7  UNL     1      26.047   3.162   3.743  1.00  0.00     0.124 A 
HETATM    9  C5  UNL     1      27.036   4.109   4.036  1.00  0.00     0.005 A 
HETATM   10  C3  UNL     1      26.757   5.270   4.720  1.00  0.00     0.032 A 
HETATM   11  C6  UNL     1      28.421   3.847   3.594  1.00  0.00     0.054 C 
HETATM   12  N2  UNL     1      25.507   5.513   5.124  1.00  0.00    -0.195 N 
HETATM   13  C4  UNL     1      27.802   6.278   5.034  1.00  0.00     0.069 C 
HETATM   14  C2  UNL     1      24.558   4.609   4.844  1.00  0.00     0.679 A 
ATOM     15  H2  UNL     1      25.279   6.367   5.632  1.00  0.00     0.184 HD
HETATM   16  N7  UNL     1      24.812   3.452   4.168  1.00  0.00    -0.176 N 
ATOM     17  H7  UNL     1      24.051   2.799   3.984  1.00  0.00     0.186 HD
BRANCH  14  18
HETATM   18  N1  UNL     1      23.324   4.815   5.223  1.00  0.00    -0.230 N 
HETATM   19  C1  UNL     1      22.243   3.972   4.760  1.00  0.00     0.165 C 
ATOM     20  H1  UNL     1      23.119   5.586   5.858  1.00  0.00     0.177 HD
ENDBRANCH  14  18
ENDBRANCH   6   8
ENDBRANCH   5   6
ENDBRANCH   1   5
BRANCH   4  21
HETATM   21  C12 UNL     1      29.612   0.100   5.499  1.00  0.00     0.145 A 
HETATM   22  N5  UNL     1      30.864  -0.234   5.825  1.00  0.00    -0.280 N 
HETATM   23  N6  UNL     1      31.213   0.359   6.972  1.00  0.00    -0.272 N 
ATOM     24  H5  UNL     1      31.466  -0.850   5.279  1.00  0.00     0.189 HD
HETATM   25  C13 UNL     1      32.520   0.196   7.600  1.00  0.00     0.180 C 
HETATM   26  C14 UNL     1      30.199   1.105   7.439  1.00  0.00     0.185 A 
HETATM   27  C17 UNL     1      29.183   0.949   6.517  1.00  0.00     0.131 A 
HETATM   28 CL1  UNL     1      27.623   1.728   6.665  1.00  0.00    -0.075 Cl
BRANCH  26  29
HETATM   29  O1  UNL     1      30.231   1.853   8.611  1.00  0.00    -0.324 OA
BRANCH  29  30
HETATM   30  C15 UNL     1      29.469   1.347   9.693  1.00  0.00     0.294 C 
BRANCH  30  31
HETATM   31  C16 UNL     1      30.217   0.386  10.555  1.00  0.00     0.408 C 
HETATM   32  F1  UNL     1      30.170  -0.893  10.002  1.00  0.00    -0.169 F 
HETATM   33  F2  UNL     1      31.474   0.793  10.872  1.00  0.00    -0.169 F 
HETATM   34  F3  UNL     1      29.498   0.284  11.754  1.00  0.00    -0.169 F 
ENDBRANCH  30  31
ENDBRANCH  29  30
ENDBRANCH  26  29
ENDBRANCH   4  21
TORSDOF 8
ENDMDL
MODEL 4
REMARK VINA RESULT: -7.141096790      3.843      7.220
REMARK  8 active torsions:
REMARK  status: ('A' for Active; 'I' for Inactive)
REMARK    1  A    between atoms: N1_2  and  C2_4 
REMARK    2  A    between atoms: C7_11  and  N3_12 
REMARK    3  A    between atoms: N3_12  and  C8_14 
REMARK    4  A    between atoms: C8_14  and  C9_15 
REMARK    5  A    between atoms: N4_18  and  C12_19 
REMARK    6  A    between atoms: C14_24  and  O1_25 
REMARK    7  A    between atoms: O1_25  and  C15_26 
REMARK    8  A    between atoms: C15_26  and  C16_27 
ROOT
HETATM    1  C9  UNL     1      28.663   0.019   5.251  1.00  0.00     0.105 C 
HETATM    2  C10 UNL     1      28.954  -0.853   4.058  1.00  0.00     0.047 C 
HETATM    3  C11 UNL     1      29.562   0.422   3.501  1.00  0.00     0.127 C 
HETATM    4  N4  UNL     1      28.684   1.189   4.370  1.00  0.00    -0.358 N 
ENDROOT
BRANCH   1   5
HETATM    5  C8  UNL     1      29.823  -0.018   6.229  1.00  0.00     0.146 C 
BRANCH   5   6
HETATM    6  N3  UNL     1      29.691   1.021   7.193  1.00  0.00    -0.373 N 
ATOM      7  H3  UNL     1      29.452   1.937   6.812  1.00  0.00     0.161 HD
BRANCH   6   8
HETATM    8  C7  UNL     1      29.826   0.979   8.456  1.00  0.00     0.124 A 
HETATM    9  C5  UNL     1      31.092   0.649   8.954  1.00  0.00     0.005 A 
HETATM   10  C3  UNL     1      31.350   0.574  10.304  1.00  0.00     0.032 A 
HETATM   11  C6  UNL     1      32.182   0.376   7.995  1.00  0.00     0.054 C 
HETATM   12  N2  UNL     1      30.369   0.820  11.177  1.00  0.00    -0.195 N 
HETATM   13  C4  UNL     1      32.692   0.226  10.838  1.00  0.00     0.069 C 
HETATM   14  C2  UNL     1      29.156   1.136  10.703  1.00  0.00     0.679 A 
ATOM     15  H2  UNL     1      30.540   0.769  12.181  1.00  0.00     0.184 HD
HETATM   16  N7  UNL     1      28.878   1.216   9.370  1.00  0.00    -0.176 N 
ATOM     17  H7  UNL     1      27.936   1.460   9.066  1.00  0.00     0.186 HD
BRANCH  14  18
HETATM   18  N1  UNL     1      28.174   1.383  11.529  1.00  0.00    -0.230 N 
HETATM   19  C1  UNL     1      28.212   0.931  12.903  1.00  0.00     0.165 C 
ATOM     20  H1  UNL     1      27.363   1.906  11.197  1.00  0.00     0.177 HD
ENDBRANCH  14  18
ENDBRANCH   6   8
ENDBRANCH   5   6
ENDBRANCH   1   5
BRANCH   4  21
HETATM   21  C12 UNL     1      28.103   2.486   4.373  1.00  0.00     0.145 A 
HETATM   22  N5  UNL     1      28.585   3.676   4.740  1.00  0.00    -0.280 N 
HETATM   23  N6  UNL     1      27.656   4.623   4.561  1.00  0.00    -0.272 N 
ATOM     24  H5  UNL     1      29.524   3.840   5.103  1.00  0.00     0.189 HD
HETATM   25  C13 UNL     1      27.871   6.033   4.869  1.00  0.00     0.180 C 
HETATM   26  C14 UNL     1      26.530   4.083   4.069  1.00  0.00     0.185 A 
HETATM   27  C17 UNL     1      26.800   2.735   3.945  1.00  0.00     0.131 A 
HETATM   28 CL1  UNL     1      25.641   1.574   3.338  1.00  0.00    -0.075 Cl
BRANCH  26  29
HETATM   29  O1  UNL     1      25.371   4.791   3.768  1.00  0.00    -0.324 OA
BRANCH  29  30
HETATM   30  C15 UNL     1      24.525   5.094   4.863  1.00  0.00     0.294 C 
BRANCH  30  31
HETATM   31  C16 UNL     1      23.509   4.038   5.144  1.00  0.00     0.408 C 
HETATM   32  F1  UNL     1      23.439   3.142   4.078  1.00  0.00    -0.169 F 
HETATM   33  F2  UNL     1      23.662   3.433   6.351  1.00  0.00    -0.169 F 
HETATM   34  F3  UNL     1      22.262   4.679   5.154  1.00  0.00    -0.169 F 
ENDBRANCH  30  31
ENDBRANCH  29  30
ENDBRANCH  26  29
ENDBRANCH   4  21
TORSDOF 8
ENDMDL
MODEL 5
REMARK VINA RESULT: -7.105190158      1.040      2.308
REMARK  8 active torsions:
REMARK  status: ('A' for Active; 'I' for Inactive)
REMARK    1  A    between atoms: N1_2  and  C2_4 
REMARK    2  A    between atoms: C7_11  and  N3_12 
REMARK    3  A    between atoms: N3_12  and  C8_14 
REMARK    4  A    between atoms: C8_14  and  C9_15 
REMARK    5  A    between atoms: N4_18  and  C12_19 
REMARK    6  A    between atoms: C14_24  and  O1_25 
REMARK    7  A    between atoms: O1_25  and  C15_26 
REMARK    8  A    between atoms: C15_26  and  C16_27 
ROOT
HETATM    1  C9  UNL     1      29.201   0.577   3.916  1.00  0.00     0.105 C 
HETATM    2  C10 UNL     1      29.805  -0.500   3.055  1.00  0.00     0.047 C 
HETATM    3  C11 UNL     1      29.620  -1.348   4.300  1.00  0.00     0.127 C 
HETATM    4  N4  UNL     1      29.677  -0.138   5.103  1.00  0.00    -0.358 N 
ENDROOT
BRANCH   1   5
HETATM    5  C8  UNL     1      27.688   0.576   3.780  1.00  0.00     0.146 C 
BRANCH   5   6
HETATM    6  N3  UNL     1      27.237   1.820   3.257  1.00  0.00    -0.373 N 
ATOM      7  H3  UNL     1      27.613   2.067   2.342  1.00  0.00     0.161 HD
BRANCH   6   8
HETATM    8  C7  UNL     1      26.436   2.669   3.760  1.00  0.00     0.124 A 
HETATM    9  C5  UNL     1      26.913   3.973   3.939  1.00  0.00     0.005 A 
HETATM   10  C3  UNL     1      26.131   4.971   4.475  1.00  0.00     0.032 A 
HETATM   11  C6  UNL     1      28.300   4.281   3.536  1.00  0.00     0.054 C 
HETATM   12  N2  UNL     1      24.875   4.699   4.841  1.00  0.00    -0.195 N 
HETATM   13  C4  UNL     1      26.632   6.357   4.665  1.00  0.00     0.069 C 
HETATM   14  C2  UNL     1      24.416   3.452   4.671  1.00  0.00     0.679 A 
ATOM     15  H2  UNL     1      24.280   5.424   5.241  1.00  0.00     0.184 HD
HETATM   16  N7  UNL     1      25.173   2.448   4.143  1.00  0.00    -0.176 N 
ATOM     17  H7  UNL     1      24.771   1.517   4.038  1.00  0.00     0.186 HD
BRANCH  14  18
HETATM   18  N1  UNL     1      23.192   3.151   5.018  1.00  0.00    -0.230 N 
HETATM   19  C1  UNL     1      22.100   4.076   4.805  1.00  0.00     0.165 C 
ATOM     20  H1  UNL     1      23.003   2.246   5.449  1.00  0.00     0.177 HD
ENDBRANCH  14  18
ENDBRANCH   6   8
ENDBRANCH   5   6
ENDBRANCH   1   5
BRANCH   4  21
HETATM   21  C12 UNL     1      30.032   0.208   6.434  1.00  0.00     0.145 A 
HETATM   22  N5  UNL     1      31.041  -0.183   7.217  1.00  0.00    -0.280 N 
HETATM   23  N6  UNL     1      30.961   0.422   8.407  1.00  0.00    -0.272 N 
ATOM     24  H5  UNL     1      31.767  -0.847   6.946  1.00  0.00     0.189 HD
HETATM   25  C13 UNL     1      31.917   0.206   9.489  1.00  0.00     0.180 C 
HETATM   26  C14 UNL     1      29.894   1.235   8.446  1.00  0.00     0.185 A 
HETATM   27  C17 UNL     1      29.300   1.109   7.206  1.00  0.00     0.131 A 
HETATM   28 CL1  UNL     1      27.852   1.975   6.741  1.00  0.00    -0.075 Cl
BRANCH  26  29
HETATM   29  O1  UNL     1      29.521   2.013   9.537  1.00  0.00    -0.324 OA
BRANCH  29  30
HETATM   30  C15 UNL     1      28.514   1.471  10.373  1.00  0.00     0.294 C 
BRANCH  30  31
HETATM   31  C16 UNL     1      29.046   0.804  11.596  1.00  0.00     0.408 C 
HETATM   32  F1  UNL     1      29.146  -0.572  11.390  1.00  0.00    -0.169 F 
HETATM   33  F2  UNL     1      30.187   1.363  12.078  1.00  0.00    -0.169 F 
HETATM   34  F3  UNL     1      28.063   0.945  12.586  1.00  0.00    -0.169 F 
ENDBRANCH  30  31
ENDBRANCH  29  30
ENDBRANCH  26  29
ENDBRANCH   4  21
TORSDOF 8
ENDMDL
