MODEL 1
REMARK VINA RESULT: -9.763282180      0.000      0.000
REMARK  6 active torsions:
REMARK  status: ('A' for Active; 'I' for Inactive)
REMARK    1  A    between atoms: C3_4  and  N1_5 
REMARK    2  A    between atoms: N1_5  and  C4_7 
REMARK    3  A    between atoms: C6_11  and  C7_12 
REMARK    4  A    between atoms: C10_17  and  O1_18 
REMARK    5  A    between atoms: O1_18  and  C11_19 
REMARK    6  A    between atoms: C19_32  and  C20_33 
ROOT
HETATM    1  C4  UNL     1      29.137   2.147   5.338  1.00  0.00     0.158 A 
HETATM    2  N2  UNL     1      29.380   1.784   4.066  1.00  0.00    -0.347 N 
ATOM      3  H2  UNL     1      29.465   2.491   3.335  1.00  0.00     0.167 HD
HETATM    4  C5  UNL     1      29.506   0.492   3.770  1.00  0.00     0.115 A 
HETATM    5  C6  UNL     1      29.390  -0.459   4.760  1.00  0.00     0.031 A 
HETATM    6  N3  UNL     1      29.147  -0.066   6.027  1.00  0.00    -0.336 N 
ATOM      7  H3  UNL     1      29.062  -0.776   6.754  1.00  0.00     0.168 HD
HETATM    8  C10 UNL     1      29.013   1.233   6.365  1.00  0.00     0.188 A 
ENDROOT
BRANCH   1   9
HETATM    9  N1  UNL     1      29.021   3.391   5.587  1.00  0.00    -0.338 N 
ATOM     10  H1  UNL     1      29.786   3.846   6.085  1.00  0.00     0.167 HD
BRANCH   9  11
HETATM   11  C3  UNL     1      27.916   4.185   5.224  1.00  0.00     0.052 A 
HETATM   12  C2  UNL     1      26.662   3.642   5.349  1.00  0.00     0.075 A 
HETATM   13  C1  UNL     1      25.573   4.409   4.998  1.00  0.00     0.146 A 
HETATM   14  F1  UNL     1      24.327   3.884   5.117  1.00  0.00    -0.204 F 
HETATM   15  C19 UNL     1      25.763   5.691   4.536  1.00  0.00     0.113 A 
HETATM   16  N5  UNL     1      27.007   6.184   4.429  1.00  0.00    -0.360 N 
HETATM   17  C18 UNL     1      28.082   5.460   4.763  1.00  0.00     0.117 A 
ATOM     18  H5  UNL     1      27.136   7.136   4.085  1.00  0.00     0.165 HD
BRANCH  15  19
HETATM   19  C20 UNL     1      24.576   6.531   4.153  1.00  0.00     0.406 C 
HETATM   20  F4  UNL     1      24.951   7.379   3.151  1.00  0.00    -0.207 F 
HETATM   21  F5  UNL     1      24.231   7.277   5.279  1.00  0.00    -0.207 F 
ENDBRANCH  15  19
ENDBRANCH   9  11
ENDBRANCH   1   9
BRANCH   8  22
HETATM   22  O1  UNL     1      28.768   1.700   7.618  1.00  0.00    -0.326 OA
BRANCH  22  23
HETATM   23  C11 UNL     1      29.481   1.530   8.777  1.00  0.00     0.164 C 
HETATM   24  C12 UNL     1      28.540   1.854   9.947  1.00  0.00     0.305 C 
HETATM   25  N4  UNL     1      28.724   0.825  10.913  1.00  0.00     0.101 N 
HETATM   26  C13 UNL     1      28.515   1.110  12.291  1.00  0.00     0.275 C 
HETATM   27  C15 UNL     1      30.174   0.864  11.205  1.00  0.00     0.296 C 
HETATM   28  C14 UNL     1      29.839   0.367  12.555  1.00  0.00     0.072 C 
HETATM   29  C16 UNL     1      30.792  -0.051  10.211  1.00  0.00     0.276 C 
HETATM   30  F2  UNL     1      32.148   0.242  10.049  1.00  0.00    -0.204 F 
HETATM   31  F3  UNL     1      30.720  -1.362  10.627  1.00  0.00    -0.204 F 
HETATM   32  C17 UNL     1      30.047   0.131   8.901  1.00  0.00     0.115 C 
ENDBRANCH  22  23
ENDBRANCH   8  22
BRANCH   5  33
HETATM   33  C7  UNL     1      29.540  -1.890   4.381  1.00  0.00     0.037 A 
HETATM   34  C8  UNL     1      30.903  -2.465   4.256  1.00  0.00     0.011 A 
HETATM   35  C9  UNL     1      30.051  -2.191   3.041  1.00  0.00     0.011 A 
ENDBRANCH   5  33
TORSDOF 6
ENDMDL
MODEL 2
REMARK VINA RESULT: -9.213704202      1.814      7.263
REMARK  6 active torsions:
REMARK  status: ('A' for Active; 'I' for Inactive)
REMARK    1  A    between atoms: C3_4  and  N1_5 
REMARK    2  A    between atoms: N1_5  and  C4_7 
REMARK    3  A    between atoms: C6_11  and  C7_12 
REMARK    4  A    between atoms: C10_17  and  O1_18 
REMARK    5  A    between atoms: O1_18  and  C11_19 
REMARK    6  A    between atoms: C19_32  and  C20_33 
ROOT
HETATM    1  C4  UNL     1      29.845   1.089   6.880  1.00  0.00     0.158 A 
HETATM    2  N2  UNL     1      30.905   0.262   6.846  1.00  0.00    -0.347 N 
ATOM      3  H2  UNL     1      31.607   0.292   7.586  1.00  0.00     0.167 HD
HETATM    4  C5  UNL     1      31.029  -0.597   5.836  1.00  0.00     0.115 A 
HETATM    5  C6  UNL     1      30.079  -0.634   4.838  1.00  0.00     0.031 A 
HETATM    6  N3  UNL     1      29.026   0.207   4.899  1.00  0.00    -0.336 N 
ATOM      7  H3  UNL     1      28.327   0.174   4.157  1.00  0.00     0.168 HD
HETATM    8  C10 UNL     1      28.866   1.089   5.906  1.00  0.00     0.188 A 
ENDROOT
BRANCH   1   9
HETATM    9  N1  UNL     1      29.757   1.898   7.860  1.00  0.00    -0.338 N 
ATOM     10  H1  UNL     1      29.835   2.894   7.658  1.00  0.00     0.167 HD
BRANCH   9  11
HETATM   11  C3  UNL     1      29.560   1.518   9.202  1.00  0.00     0.052 A 
HETATM   12  C2  UNL     1      30.478   0.676   9.777  1.00  0.00     0.075 A 
HETATM   13  C1  UNL     1      30.296   0.299  11.090  1.00  0.00     0.146 A 
HETATM   14  F1  UNL     1      31.198  -0.533  11.670  1.00  0.00    -0.204 F 
HETATM   15  C19 UNL     1      29.210   0.770  11.789  1.00  0.00     0.113 A 
HETATM   16  N5  UNL     1      28.334   1.592  11.189  1.00  0.00    -0.360 N 
HETATM   17  C18 UNL     1      28.487   1.974   9.916  1.00  0.00     0.117 A 
ATOM     18  H5  UNL     1      27.532   1.935  11.718  1.00  0.00     0.165 HD
BRANCH  15  19
HETATM   19  C20 UNL     1      29.008   0.360  13.222  1.00  0.00     0.406 C 
HETATM   20  F4  UNL     1      28.983  -1.003  13.284  1.00  0.00    -0.207 F 
HETATM   21  F5  UNL     1      27.766   0.859  13.611  1.00  0.00    -0.207 F 
ENDBRANCH  15  19
ENDBRANCH   9  11
ENDBRANCH   1   9
BRANCH   8  22
HETATM   22  O1  UNL     1      27.833   1.965   6.030  1.00  0.00    -0.326 OA
BRANCH  22  23
HETATM   23  C11 UNL     1      27.380   2.922   5.160  1.00  0.00     0.164 C 
HETATM   24  C12 UNL     1      25.903   3.184   5.493  1.00  0.00     0.305 C 
HETATM   25  N4  UNL     1      25.733   4.598   5.499  1.00  0.00     0.101 N 
HETATM   26  C13 UNL     1      24.468   5.153   5.162  1.00  0.00     0.275 C 
HETATM   27  C15 UNL     1      26.188   5.017   4.155  1.00  0.00     0.296 C 
HETATM   28  C14 UNL     1      25.240   6.143   4.268  1.00  0.00     0.072 C 
HETATM   29  C16 UNL     1      27.647   5.259   4.301  1.00  0.00     0.276 C 
HETATM   30  F2  UNL     1      28.282   5.194   3.059  1.00  0.00    -0.204 F 
HETATM   31  F3  UNL     1      27.896   6.518   4.803  1.00  0.00    -0.204 F 
HETATM   32  C17 UNL     1      28.194   4.197   5.236  1.00  0.00     0.115 C 
ENDBRANCH  22  23
ENDBRANCH   8  22
BRANCH   5  33
HETATM   33  C7  UNL     1      30.261  -1.611   3.731  1.00  0.00     0.037 A 
HETATM   34  C8  UNL     1      29.462  -2.863   3.734  1.00  0.00     0.011 A 
HETATM   35  C9  UNL     1      30.941  -2.872   4.039  1.00  0.00     0.011 A 
ENDBRANCH   5  33
TORSDOF 6
ENDMDL
MODEL 3
REMARK VINA RESULT: -9.205283331      0.873      1.369
REMARK  6 active torsions:
REMARK  status: ('A' for Active; 'I' for Inactive)
REMARK    1  A    between atoms: C3_4  and  N1_5 
REMARK    2  A    between atoms: N1_5  and  C4_7 
REMARK    3  A    between atoms: C6_11  and  C7_12 
REMARK    4  A    between atoms: C10_17  and  O1_18 
REMARK    5  A    between atoms: O1_18  and  C11_19 
REMARK    6  A    between atoms: C19_32  and  C20_33 
ROOT
HETATM    1  C4  UNL     1      29.351   2.021   5.496  1.00  0.00     0.158 A 
HETATM    2  N2  UNL     1      29.691   1.637   4.252  1.00  0.00    -0.347 N 
ATOM      3  H2  UNL     1      29.691   2.310   3.487  1.00  0.00     0.167 HD
HETATM    4  C5  UNL     1      30.027   0.367   4.031  1.00  0.00     0.115 A 
HETATM    5  C6  UNL     1      30.025  -0.540   5.069  1.00  0.00     0.031 A 
HETATM    6  N3  UNL     1      29.680  -0.126   6.305  1.00  0.00    -0.336 N 
ATOM      7  H3  UNL     1      29.680  -0.803   7.068  1.00  0.00     0.168 HD
HETATM    8  C10 UNL     1      29.334   1.151   6.568  1.00  0.00     0.188 A 
ENDROOT
BRANCH   1   9
HETATM    9  N1  UNL     1      29.034   3.242   5.672  1.00  0.00    -0.338 N 
ATOM     10  H1  UNL     1      29.745   3.862   6.060  1.00  0.00     0.167 HD
BRANCH   9  11
HETATM   11  C3  UNL     1      27.776   3.799   5.371  1.00  0.00     0.052 A 
HETATM   12  C2  UNL     1      27.743   5.044   4.794  1.00  0.00     0.075 A 
HETATM   13  C1  UNL     1      26.518   5.600   4.495  1.00  0.00     0.146 A 
HETATM   14  F1  UNL     1      26.471   6.829   3.924  1.00  0.00    -0.204 F 
HETATM   15  C19 UNL     1      25.367   4.902   4.777  1.00  0.00     0.113 A 
HETATM   16  N5  UNL     1      25.443   3.687   5.342  1.00  0.00    -0.360 N 
HETATM   17  C18 UNL     1      26.620   3.124   5.643  1.00  0.00     0.117 A 
ATOM     18  H5  UNL     1      24.583   3.178   5.547  1.00  0.00     0.165 HD
BRANCH  15  19
HETATM   19  C20 UNL     1      24.028   5.505   4.451  1.00  0.00     0.406 C 
HETATM   20  F4  UNL     1      24.006   6.789   4.914  1.00  0.00    -0.207 F 
HETATM   21  F5  UNL     1      23.073   4.755   5.136  1.00  0.00    -0.207 F 
ENDBRANCH  15  19
ENDBRANCH   9  11
ENDBRANCH   1   9
BRANCH   8  22
HETATM   22  O1  UNL     1      28.975   1.636   7.786  1.00  0.00    -0.326 OA
BRANCH  22  23
HETATM   23  C11 UNL     1      29.596   1.510   9.002  1.00  0.00     0.164 C 
HETATM   24  C12 UNL     1      28.546   1.794  10.087  1.00  0.00     0.305 C 
HETATM   25  N4  UNL     1      28.699   0.782  11.076  1.00  0.00     0.101 N 
HETATM   26  C13 UNL     1      28.361   1.065  12.428  1.00  0.00     0.275 C 
HETATM   27  C15 UNL     1      30.115   0.896  11.486  1.00  0.00     0.296 C 
HETATM   28  C14 UNL     1      29.694   0.392  12.809  1.00  0.00     0.072 C 
HETATM   29  C16 UNL     1      30.859   0.007  10.558  1.00  0.00     0.276 C 
HETATM   30  F2  UNL     1      32.207   0.366  10.506  1.00  0.00    -0.204 F 
HETATM   31  F3  UNL     1      30.818  -1.304  10.981  1.00  0.00    -0.204 F 
HETATM   32  C17 UNL     1      30.219   0.142   9.188  1.00  0.00     0.115 C 
ENDBRANCH  22  23
ENDBRANCH   8  22
BRANCH   5  33
HETATM   33  C7  UNL     1      30.409  -1.946   4.773  1.00  0.00     0.037 A 
HETATM   34  C8  UNL     1      31.160  -2.243   3.527  1.00  0.00     0.011 A 
HETATM   35  C9  UNL     1      29.709  -2.629   3.682  1.00  0.00     0.011 A 
ENDBRANCH   5  33
TORSDOF 6
ENDMDL
MODEL 4
REMARK VINA RESULT: -9.061360442      1.171      1.616
REMARK  6 active torsions:
REMARK  status: ('A' for Active; 'I' for Inactive)
REMARK    1  A    between atoms: C3_4  and  N1_5 
REMARK    2  A    between atoms: N1_5  and  C4_7 
REMARK    3  A    between atoms: C6_11  and  C7_12 
REMARK    4  A    between atoms: C10_17  and  O1_18 
REMARK    5  A    between atoms: O1_18  and  C11_19 
REMARK    6  A    between atoms: C19_32  and  C20_33 
ROOT
HETATM    1  C4  UNL     1      29.038   2.130   5.236  1.00  0.00     0.158 A 
HETATM    2  N2  UNL     1      28.964   1.807   3.933  1.00  0.00    -0.347 N 
ATOM      3  H2  UNL     1      28.822   2.533   3.229  1.00  0.00     0.167 HD
HETATM    4  C5  UNL     1      29.077   0.531   3.569  1.00  0.00     0.115 A 
HETATM    5  C6  UNL     1      29.268  -0.445   4.523  1.00  0.00     0.031 A 
HETATM    6  N3  UNL     1      29.338  -0.092   5.823  1.00  0.00    -0.336 N 
ATOM      7  H3  UNL     1      29.479  -0.821   6.523  1.00  0.00     0.168 HD
HETATM    8  C10 UNL     1      29.229   1.189   6.229  1.00  0.00     0.188 A 
ENDROOT
BRANCH   1   9
HETATM    9  N1  UNL     1      28.925   3.359   5.549  1.00  0.00    -0.338 N 
ATOM     10  H1  UNL     1      29.683   3.782   6.085  1.00  0.00     0.167 HD
BRANCH   9  11
HETATM   11  C3  UNL     1      27.831   4.180   5.210  1.00  0.00     0.052 A 
HETATM   12  C2  UNL     1      26.567   3.687   5.415  1.00  0.00     0.075 A 
HETATM   13  C1  UNL     1      25.489   4.480   5.088  1.00  0.00     0.146 A 
HETATM   14  F1  UNL     1      24.233   4.005   5.286  1.00  0.00    -0.204 F 
HETATM   15  C19 UNL     1      25.700   5.737   4.570  1.00  0.00     0.113 A 
HETATM   16  N5  UNL     1      26.954   6.181   4.386  1.00  0.00    -0.360 N 
HETATM   17  C18 UNL     1      28.018   5.431   4.694  1.00  0.00     0.117 A 
ATOM     18  H5  UNL     1      27.099   7.115   4.000  1.00  0.00     0.165 HD
BRANCH  15  19
HETATM   19  C20 UNL     1      24.526   6.606   4.212  1.00  0.00     0.406 C 
HETATM   20  F4  UNL     1      24.889   7.423   3.182  1.00  0.00    -0.207 F 
HETATM   21  F5  UNL     1      24.244   7.382   5.336  1.00  0.00    -0.207 F 
ENDBRANCH  15  19
ENDBRANCH   9  11
ENDBRANCH   1   9
BRANCH   8  22
HETATM   22  O1  UNL     1      29.289   1.615   7.518  1.00  0.00    -0.326 OA
BRANCH  22  23
HETATM   23  C11 UNL     1      29.316   0.895   8.684  1.00  0.00     0.164 C 
HETATM   24  C12 UNL     1      30.761   0.421   8.900  1.00  0.00     0.305 C 
HETATM   25  N4  UNL     1      31.070   0.668  10.267  1.00  0.00     0.101 N 
HETATM   26  C13 UNL     1      32.015  -0.160  10.934  1.00  0.00     0.275 C 
HETATM   27  C15 UNL     1      30.021  -0.066  11.008  1.00  0.00     0.296 C 
HETATM   28  C14 UNL     1      31.006  -0.224  12.096  1.00  0.00     0.072 C 
HETATM   29  C16 UNL     1      28.904   0.903  11.155  1.00  0.00     0.276 C 
HETATM   30  F2  UNL     1      27.702   0.235  11.395  1.00  0.00    -0.204 F 
HETATM   31  F3  UNL     1      29.109   1.741  12.230  1.00  0.00    -0.204 F 
HETATM   32  C17 UNL     1      28.822   1.702   9.867  1.00  0.00     0.115 C 
ENDBRANCH  22  23
ENDBRANCH   8  22
BRANCH   5  33
HETATM   33  C7  UNL     1      29.390  -1.856   4.068  1.00  0.00     0.037 A 
HETATM   34  C8  UNL     1      30.704  -2.539   4.176  1.00  0.00     0.011 A 
HETATM   35  C9  UNL     1      30.145  -2.115   2.840  1.00  0.00     0.011 A 
ENDBRANCH   5  33
TORSDOF 6
ENDMDL
MODEL 5
REMARK VINA RESULT: -8.930249860      1.093      1.275
REMARK  6 active torsions:
REMARK  status: ('A' for Active; 'I' for Inactive)
REMARK    1  A    between atoms: C3_4  and  N1_5 
REMARK    2  A    between atoms: N1_5  and  C4_7 
REMARK    3  A    between atoms: C6_11  and  C7_12 
REMARK    4  A    between atoms: C10_17  and  O1_18 
REMARK    5  A    between atoms: O1_18  and  C11_19 
REMARK    6  A    between atoms: C19_32  and  C20_33 
ROOT
HETATM    1  C4  UNL     1      27.592   1.207   5.606  1.00  0.00     0.158 A 
HETATM    2  N2  UNL     1      27.090   0.408   4.648  1.00  0.00    -0.347 N 
ATOM      3  H2  UNL     1      26.098   0.446   4.413  1.00  0.00     0.167 HD
HETATM    4  C5  UNL     1      27.900  -0.434   4.009  1.00  0.00     0.115 A 
HETATM    5  C6  UNL     1      29.240  -0.482   4.331  1.00  0.00     0.031 A 
HETATM    6  N3  UNL     1      29.716   0.331   5.296  1.00  0.00    -0.336 N 
ATOM      7  H3  UNL     1      30.708   0.289   5.529  1.00  0.00     0.168 HD
HETATM    8  C10 UNL     1      28.926   1.196   5.964  1.00  0.00     0.188 A 
ENDROOT
BRANCH   1   9
HETATM    9  N1  UNL     1      26.789   2.000   6.197  1.00  0.00    -0.338 N 
ATOM     10  H1  UNL     1      26.518   1.771   7.153  1.00  0.00     0.167 HD
BRANCH   9  11
HETATM   11  C3  UNL     1      26.248   3.169   5.628  1.00  0.00     0.052 A 
HETATM   12  C2  UNL     1      24.893   3.365   5.721  1.00  0.00     0.075 A 
HETATM   13  C1  UNL     1      24.352   4.505   5.169  1.00  0.00     0.146 A 
HETATM   14  F1  UNL     1      23.013   4.711   5.254  1.00  0.00    -0.204 F 
HETATM   15  C19 UNL     1      25.173   5.415   4.544  1.00  0.00     0.113 A 
HETATM   16  N5  UNL     1      26.494   5.185   4.475  1.00  0.00    -0.360 N 
HETATM   17  C18 UNL     1      27.045   4.086   5.003  1.00  0.00     0.117 A 
ATOM     18  H5  UNL     1      27.093   5.867   4.009  1.00  0.00     0.165 HD
BRANCH  15  19
HETATM   19  C20 UNL     1      24.586   6.661   3.941  1.00  0.00     0.406 C 
HETATM   20  F4  UNL     1      25.545   7.272   3.188  1.00  0.00    -0.207 F 
HETATM   21  F5  UNL     1      24.235   7.495   5.002  1.00  0.00    -0.207 F 
ENDBRANCH  15  19
ENDBRANCH   9  11
ENDBRANCH   1   9
BRANCH   8  22
HETATM   22  O1  UNL     1      29.337   2.042   6.946  1.00  0.00    -0.326 OA
BRANCH  22  23
HETATM   23  C11 UNL     1      29.876   1.768   8.176  1.00  0.00     0.164 C 
HETATM   24  C12 UNL     1      28.830   2.155   9.233  1.00  0.00     0.305 C 
HETATM   25  N4  UNL     1      28.787   1.086  10.172  1.00  0.00     0.101 N 
HETATM   26  C13 UNL     1      28.433   1.353  11.524  1.00  0.00     0.275 C 
HETATM   27  C15 UNL     1      30.184   0.968  10.642  1.00  0.00     0.296 C 
HETATM   28  C14 UNL     1      29.633   0.471  11.919  1.00  0.00     0.072 C 
HETATM   29  C16 UNL     1      30.831   0.022   9.697  1.00  0.00     0.276 C 
HETATM   30  F2  UNL     1      32.219   0.178   9.717  1.00  0.00    -0.204 F 
HETATM   31  F3  UNL     1      30.578  -1.286  10.048  1.00  0.00    -0.204 F 
HETATM   32  C17 UNL     1      30.281   0.315   8.313  1.00  0.00     0.115 C 
ENDBRANCH  22  23
ENDBRANCH   8  22
BRANCH   5  33
HETATM   33  C7  UNL     1      30.106  -1.438   3.590  1.00  0.00     0.037 A 
HETATM   34  C8  UNL     1      29.867  -2.895   3.742  1.00  0.00     0.011 A 
HETATM   35  C9  UNL     1      31.069  -2.226   4.363  1.00  0.00     0.011 A 
ENDBRANCH   5  33
TORSDOF 6
ENDMDL
