MODEL 1
REMARK VINA RESULT: -6.681053822      0.000      0.000
REMARK  7 active torsions:
REMARK  status: ('A' for Active; 'I' for Inactive)
REMARK    1  A    between atoms: C2_2  and  O1_3 
REMARK    2  A    between atoms: O1_3  and  C3_4 
REMARK    3  A    between atoms: C3_4  and  C4_5 
REMARK    4  A    between atoms: C12_13  and  N1_14 
REMARK    5  A    between atoms: N1_14  and  C13_16 
REMARK    6  A    between atoms: C13_16  and  C14_17 
REMARK    7  A    between atoms: C14_17  and  O2_18 
ROOT
HETATM    1  C4  UNL     1      37.635  41.794  -2.456  1.00  0.00     0.021 C 
HETATM    2  C5  UNL     1      38.579  42.866  -1.824  1.00  0.00     0.022 C 
HETATM    3  C6  UNL     1      37.873  43.590  -0.754  1.00  0.00    -0.012 C 
HETATM    4  C7  UNL     1      37.498  42.632   0.360  1.00  0.00     0.009 C 
HETATM    5  C8  UNL     1      36.567  41.599  -0.185  1.00  0.00    -0.012 C 
HETATM    6  C9  UNL     1      35.321  42.186  -0.802  1.00  0.00     0.015 C 
HETATM    7  C10 UNL     1      35.704  43.166  -1.863  1.00  0.00     0.033 C 
HETATM    8  C11 UNL     1      36.584  44.216  -1.253  1.00  0.00     0.015 C 
HETATM    9  C12 UNL     1      36.507  42.513  -3.012  1.00  0.00    -0.003 C 
HETATM   10  C15 UNL     1      37.260  40.858  -1.292  1.00  0.00     0.022 C 
ENDROOT
BRANCH   9  11
HETATM   11  N1  UNL     1      35.637  42.033  -3.985  1.00  0.00    -0.393 N 
ATOM     12  H1  UNL     1      35.186  41.131  -3.831  1.00  0.00     0.159 HD
BRANCH  11  13
HETATM   13  C13 UNL     1      35.348  42.730  -5.169  1.00  0.00     0.145 C 
BRANCH  13  14
HETATM   14  C14 UNL     1      35.609  41.853  -6.416  1.00  0.00     0.183 C 
BRANCH  14  15
HETATM   15  O2  UNL     1      36.449  42.444  -7.319  1.00  0.00    -0.399 OA
ATOM     16  H2  UNL     1      36.246  42.216  -8.218  1.00  0.00     0.209 HD
ENDBRANCH  14  15
ENDBRANCH  13  14
ENDBRANCH  11  13
ENDBRANCH   9  11
BRANCH   1  17
HETATM   17  C3  UNL     1      38.498  40.922  -3.324  1.00  0.00     0.183 C 
BRANCH  17  18
HETATM   18  O1  UNL     1      37.905  40.298  -4.371  1.00  0.00    -0.390 OA
BRANCH  18  19
HETATM   19  C2  UNL     1      38.330  38.979  -4.416  1.00  0.00     0.163 C 
HETATM   20  C1  UNL     1      39.385  38.585  -3.443  1.00  0.00     0.033 C 
ENDBRANCH  18  19
ENDBRANCH  17  18
ENDBRANCH   1  17
TORSDOF 7
ENDMDL
MODEL 2
REMARK VINA RESULT: -5.631166910      4.353      8.200
REMARK  7 active torsions:
REMARK  status: ('A' for Active; 'I' for Inactive)
REMARK    1  A    between atoms: C2_2  and  O1_3 
REMARK    2  A    between atoms: O1_3  and  C3_4 
REMARK    3  A    between atoms: C3_4  and  C4_5 
REMARK    4  A    between atoms: C12_13  and  N1_14 
REMARK    5  A    between atoms: N1_14  and  C13_16 
REMARK    6  A    between atoms: C13_16  and  C14_17 
REMARK    7  A    between atoms: C14_17  and  O2_18 
ROOT
HETATM    1  C4  UNL     1      33.673  40.046  -8.949  1.00  0.00     0.021 C 
HETATM    2  C5  UNL     1      34.304  39.143 -10.055  1.00  0.00     0.022 C 
HETATM    3  C6  UNL     1      33.983  37.730  -9.797  1.00  0.00    -0.012 C 
HETATM    4  C7  UNL     1      32.482  37.519  -9.869  1.00  0.00     0.009 C 
HETATM    5  C8  UNL     1      31.827  38.339  -8.806  1.00  0.00    -0.012 C 
HETATM    6  C9  UNL     1      32.327  38.024  -7.418  1.00  0.00     0.015 C 
HETATM    7  C10 UNL     1      33.811  38.186  -7.373  1.00  0.00     0.033 C 
HETATM    8  C11 UNL     1      34.425  37.296  -8.412  1.00  0.00     0.015 C 
HETATM    9  C12 UNL     1      34.260  39.631  -7.692  1.00  0.00    -0.003 C 
HETATM   10  C15 UNL     1      32.157  39.785  -9.040  1.00  0.00     0.022 C 
ENDROOT
BRANCH   9  11
HETATM   11  N1  UNL     1      34.296  40.385  -6.523  1.00  0.00    -0.393 N 
ATOM     12  H1  UNL     1      33.413  40.702  -6.122  1.00  0.00     0.159 HD
BRANCH  11  13
HETATM   13  C13 UNL     1      35.489  40.731  -5.868  1.00  0.00     0.145 C 
BRANCH  13  14
HETATM   14  C14 UNL     1      35.778  42.245  -5.987  1.00  0.00     0.183 C 
BRANCH  14  15
HETATM   15  O2  UNL     1      36.305  42.595  -7.199  1.00  0.00    -0.399 OA
ATOM     16  H2  UNL     1      36.182  41.927  -7.864  1.00  0.00     0.209 HD
ENDBRANCH  14  15
ENDBRANCH  13  14
ENDBRANCH  11  13
ENDBRANCH   9  11
BRANCH   1  17
HETATM   17  C3  UNL     1      33.799  41.465  -9.429  1.00  0.00     0.183 C 
BRANCH  17  18
HETATM   18  O1  UNL     1      33.545  42.453  -8.538  1.00  0.00    -0.390 OA
BRANCH  18  19
HETATM   19  C2  UNL     1      33.044  43.557  -9.211  1.00  0.00     0.163 C 
HETATM   20  C1  UNL     1      33.628  43.841 -10.551  1.00  0.00     0.033 C 
ENDBRANCH  18  19
ENDBRANCH  17  18
ENDBRANCH   1  17
TORSDOF 7
ENDMDL
MODEL 3
REMARK VINA RESULT: -5.463960783      4.128      7.715
REMARK  7 active torsions:
REMARK  status: ('A' for Active; 'I' for Inactive)
REMARK    1  A    between atoms: C2_2  and  O1_3 
REMARK    2  A    between atoms: O1_3  and  C3_4 
REMARK    3  A    between atoms: C3_4  and  C4_5 
REMARK    4  A    between atoms: C12_13  and  N1_14 
REMARK    5  A    between atoms: N1_14  and  C13_16 
REMARK    6  A    between atoms: C13_16  and  C14_17 
REMARK    7  A    between atoms: C14_17  and  O2_18 
ROOT
HETATM    1  C4  UNL     1      34.587  40.403  -8.140  1.00  0.00     0.021 C 
HETATM    2  C5  UNL     1      33.604  39.473  -7.362  1.00  0.00     0.022 C 
HETATM    3  C6  UNL     1      32.751  38.736  -8.310  1.00  0.00    -0.012 C 
HETATM    4  C7  UNL     1      33.604  37.834  -9.181  1.00  0.00     0.009 C 
HETATM    5  C8  UNL     1      34.546  38.679  -9.974  1.00  0.00    -0.012 C 
HETATM    6  C9  UNL     1      33.848  39.710 -10.827  1.00  0.00     0.015 C 
HETATM    7  C10 UNL     1      32.972  40.559  -9.965  1.00  0.00     0.033 C 
HETATM    8  C11 UNL     1      32.004  39.673  -9.240  1.00  0.00     0.015 C 
HETATM    9  C12 UNL     1      33.770  41.334  -8.889  1.00  0.00    -0.003 C 
HETATM   10  C15 UNL     1      35.415  39.453  -9.026  1.00  0.00     0.022 C 
ENDROOT
BRANCH   9  11
HETATM   11  N1  UNL     1      34.192  42.557  -9.402  1.00  0.00    -0.393 N 
ATOM     12  H1  UNL     1      35.193  42.739  -9.459  1.00  0.00     0.159 HD
BRANCH  11  13
HETATM   13  C13 UNL     1      33.305  43.551  -9.845  1.00  0.00     0.145 C 
BRANCH  13  14
HETATM   14  C14 UNL     1      33.511  43.860 -11.346  1.00  0.00     0.183 C 
BRANCH  14  15
HETATM   15  O2  UNL     1      33.820  45.170 -11.585  1.00  0.00    -0.399 OA
ATOM     16  H2  UNL     1      34.668  45.420 -11.239  1.00  0.00     0.209 HD
ENDBRANCH  14  15
ENDBRANCH  13  14
ENDBRANCH  11  13
ENDBRANCH   9  11
BRANCH   1  17
HETATM   17  C3  UNL     1      35.596  40.893  -7.139  1.00  0.00     0.183 C 
BRANCH  17  18
HETATM   18  O1  UNL     1      35.885  42.217  -7.138  1.00  0.00    -0.390 OA
BRANCH  18  19
HETATM   19  C2  UNL     1      35.444  42.779  -5.950  1.00  0.00     0.163 C 
HETATM   20  C1  UNL     1      36.187  42.400  -4.717  1.00  0.00     0.033 C 
ENDBRANCH  18  19
ENDBRANCH  17  18
ENDBRANCH   1  17
TORSDOF 7
ENDMDL
MODEL 4
REMARK VINA RESULT: -5.455284194      5.498      9.400
REMARK  7 active torsions:
REMARK  status: ('A' for Active; 'I' for Inactive)
REMARK    1  A    between atoms: C2_2  and  O1_3 
REMARK    2  A    between atoms: O1_3  and  C3_4 
REMARK    3  A    between atoms: C3_4  and  C4_5 
REMARK    4  A    between atoms: C12_13  and  N1_14 
REMARK    5  A    between atoms: N1_14  and  C13_16 
REMARK    6  A    between atoms: C13_16  and  C14_17 
REMARK    7  A    between atoms: C14_17  and  O2_18 
ROOT
HETATM    1  C4  UNL     1      33.041  41.097 -10.247  1.00  0.00     0.021 C 
HETATM    2  C5  UNL     1      32.962  40.784 -11.775  1.00  0.00     0.022 C 
HETATM    3  C6  UNL     1      32.883  39.329 -11.988  1.00  0.00    -0.012 C 
HETATM    4  C7  UNL     1      31.611  38.784 -11.367  1.00  0.00     0.009 C 
HETATM    5  C8  UNL     1      31.649  39.029  -9.894  1.00  0.00    -0.012 C 
HETATM    6  C9  UNL     1      32.855  38.421  -9.220  1.00  0.00     0.015 C 
HETATM    7  C10 UNL     1      34.099  38.928  -9.874  1.00  0.00     0.033 C 
HETATM    8  C11 UNL     1      34.043  38.601 -11.336  1.00  0.00     0.015 C 
HETATM    9  C12 UNL     1      34.248  40.463  -9.758  1.00  0.00    -0.003 C 
HETATM   10  C15 UNL     1      31.748  40.508  -9.653  1.00  0.00     0.022 C 
ENDROOT
BRANCH   9  11
HETATM   11  N1  UNL     1      34.917  40.787  -8.582  1.00  0.00    -0.393 N 
ATOM     12  H1  UNL     1      35.937  40.786  -8.588  1.00  0.00     0.159 HD
BRANCH  11  13
HETATM   13  C13 UNL     1      34.257  41.114  -7.387  1.00  0.00     0.145 C 
BRANCH  13  14
HETATM   14  C14 UNL     1      34.733  42.479  -6.837  1.00  0.00     0.183 C 
BRANCH  14  15
HETATM   15  O2  UNL     1      35.502  43.175  -7.728  1.00  0.00    -0.399 OA
ATOM     16  H2  UNL     1      36.285  42.705  -7.989  1.00  0.00     0.209 HD
ENDBRANCH  14  15
ENDBRANCH  13  14
ENDBRANCH  11  13
ENDBRANCH   9  11
BRANCH   1  17
HETATM   17  C3  UNL     1      32.834  42.578 -10.101  1.00  0.00     0.183 C 
BRANCH  17  18
HETATM   18  O1  UNL     1      33.923  43.377 -10.208  1.00  0.00    -0.390 OA
BRANCH  18  19
HETATM   19  C2  UNL     1      33.681  44.352 -11.164  1.00  0.00     0.163 C 
HETATM   20  C1  UNL     1      32.321  44.957 -11.169  1.00  0.00     0.033 C 
ENDBRANCH  18  19
ENDBRANCH  17  18
ENDBRANCH   1  17
TORSDOF 7
ENDMDL
MODEL 5
REMARK VINA RESULT: -5.413081653      3.940      7.841
REMARK  7 active torsions:
REMARK  status: ('A' for Active; 'I' for Inactive)
REMARK    1  A    between atoms: C2_2  and  O1_3 
REMARK    2  A    between atoms: O1_3  and  C3_4 
REMARK    3  A    between atoms: C3_4  and  C4_5 
REMARK    4  A    between atoms: C12_13  and  N1_14 
REMARK    5  A    between atoms: N1_14  and  C13_16 
REMARK    6  A    between atoms: C13_16  and  C14_17 
REMARK    7  A    between atoms: C14_17  and  O2_18 
ROOT
HETATM    1  C4  UNL     1      33.921  40.552  -8.816  1.00  0.00     0.021 C 
HETATM    2  C5  UNL     1      34.886  39.682  -9.683  1.00  0.00     0.022 C 
HETATM    3  C6  UNL     1      34.977  38.322  -9.125  1.00  0.00    -0.012 C 
HETATM    4  C7  UNL     1      33.619  37.649  -9.179  1.00  0.00     0.009 C 
HETATM    5  C8  UNL     1      32.661  38.426  -8.337  1.00  0.00    -0.012 C 
HETATM    6  C9  UNL     1      33.109  38.570  -6.903  1.00  0.00     0.015 C 
HETATM    7  C10 UNL     1      34.469  39.189  -6.866  1.00  0.00     0.033 C 
HETATM    8  C11 UNL     1      35.407  38.338  -7.670  1.00  0.00     0.015 C 
HETATM    9  C12 UNL     1      34.495  40.604  -7.487  1.00  0.00    -0.003 C 
HETATM   10  C15 UNL     1      32.566  39.824  -8.878  1.00  0.00     0.022 C 
ENDROOT
BRANCH   9  11
HETATM   11  N1  UNL     1      34.204  41.554  -6.513  1.00  0.00    -0.393 N 
ATOM     12  H1  UNL     1      33.370  41.423  -5.941  1.00  0.00     0.159 HD
BRANCH  11  13
HETATM   13  C13 UNL     1      35.003  42.685  -6.279  1.00  0.00     0.145 C 
BRANCH  13  14
HETATM   14  C14 UNL     1      36.217  42.339  -5.386  1.00  0.00     0.183 C 
BRANCH  14  15
HETATM   15  O2  UNL     1      37.347  43.030  -5.728  1.00  0.00    -0.399 OA
ATOM     16  H2  UNL     1      38.146  42.564  -5.512  1.00  0.00     0.209 HD
ENDBRANCH  14  15
ENDBRANCH  13  14
ENDBRANCH  11  13
ENDBRANCH   9  11
BRANCH   1  17
HETATM   17  C3  UNL     1      33.662  41.811  -9.595  1.00  0.00     0.183 C 
BRANCH  17  18
HETATM   18  O1  UNL     1      33.501  41.696 -10.936  1.00  0.00    -0.390 OA
BRANCH  18  19
HETATM   19  C2  UNL     1      33.115  42.923 -11.455  1.00  0.00     0.163 C 
HETATM   20  C1  UNL     1      33.442  44.124 -10.639  1.00  0.00     0.033 C 
ENDBRANCH  18  19
ENDBRANCH  17  18
ENDBRANCH   1  17
TORSDOF 7
ENDMDL
