MODEL 1
REMARK VINA RESULT: -5.618848005      0.000      0.000
REMARK  7 active torsions:
REMARK  status: ('A' for Active; 'I' for Inactive)
REMARK    1  A    between atoms: N1_1  and  C1_5 
REMARK    2  A    between atoms: C1_5  and  C2_6 
REMARK    3  A    between atoms: C2_6  and  C3_7 
REMARK    4  A    between atoms: C3_7  and  C4_8 
REMARK    5  A    between atoms: C4_8  and  C5_9 
REMARK    6  A    between atoms: C5_9  and  C6_10 
REMARK    7  A    between atoms: C6_10  and  N2_11 
ROOT
HETATM    1  N2  UNL     1      33.955  41.777  -7.446  1.00  0.00     0.088 N 
HETATM    2  C7  UNL     1      34.037  40.499  -8.107  1.00  0.00     0.273 C 
HETATM    3  C8  UNL     1      34.262  40.503  -9.564  1.00  0.00     0.040 C 
HETATM    4  C9  UNL     1      33.048  41.228 -10.175  1.00  0.00    -0.034 C 
HETATM    5  C10 UNL     1      31.801  40.558  -9.671  1.00  0.00     0.037 C 
HETATM    6  C11 UNL     1      30.596  40.771 -10.560  1.00  0.00     0.233 C 
HETATM    7  N3  UNL     1      30.827  41.762 -11.582  1.00  0.00    -0.075 N 
ATOM      8  H31 UNL     1      30.992  42.691 -11.193  1.00  0.00     0.277 HD
ATOM      9  H32 UNL     1      29.984  41.979 -12.114  1.00  0.00     0.277 HD
HETATM   10  C12 UNL     1      31.916  41.313 -12.426  1.00  0.00     0.233 C 
HETATM   11  C13 UNL     1      33.187  41.105 -11.650  1.00  0.00     0.037 C 
HETATM   12  C14 UNL     1      33.195  42.637  -9.659  1.00  0.00     0.040 C 
HETATM   13  C15 UNL     1      33.155  42.729  -8.168  1.00  0.00     0.273 C 
ENDROOT
BRANCH   1  14
HETATM   14  C6  UNL     1      35.287  42.294  -7.142  1.00  0.00     0.272 C 
BRANCH  14  15
HETATM   15  C5  UNL     1      35.397  42.646  -5.693  1.00  0.00     0.030 C 
BRANCH  15  16
HETATM   16  C4  UNL     1      36.427  41.728  -5.041  1.00  0.00     0.002 C 
BRANCH  16  17
HETATM   17  C3  UNL     1      37.463  42.553  -4.318  1.00  0.00     0.002 C 
BRANCH  17  18
HETATM   18  C2  UNL     1      36.834  43.151  -3.070  1.00  0.00     0.027 C 
BRANCH  18  19
HETATM   19  C1  UNL     1      36.416  42.100  -2.065  1.00  0.00     0.229 C 
BRANCH  19  20
HETATM   20  N1  UNL     1      34.980  42.179  -1.899  1.00  0.00    -0.079 N 
ATOM     21  H13 UNL     1      34.477  41.559  -2.533  1.00  0.00     0.274 HD
ATOM     22  H12 UNL     1      34.663  41.765  -1.022  1.00  0.00     0.274 HD
ATOM     23  H11 UNL     1      34.701  43.155  -1.998  1.00  0.00     0.274 HD
ENDBRANCH  19  20
ENDBRANCH  18  19
ENDBRANCH  17  18
ENDBRANCH  16  17
ENDBRANCH  15  16
ENDBRANCH  14  15
ENDBRANCH   1  14
TORSDOF 7
ENDMDL
MODEL 2
REMARK VINA RESULT: -5.584489169      3.255      5.021
REMARK  7 active torsions:
REMARK  status: ('A' for Active; 'I' for Inactive)
REMARK    1  A    between atoms: N1_1  and  C1_5 
REMARK    2  A    between atoms: C1_5  and  C2_6 
REMARK    3  A    between atoms: C2_6  and  C3_7 
REMARK    4  A    between atoms: C3_7  and  C4_8 
REMARK    5  A    between atoms: C4_8  and  C5_9 
REMARK    6  A    between atoms: C5_9  and  C6_10 
REMARK    7  A    between atoms: C6_10  and  N2_11 
ROOT
HETATM    1  N2  UNL     1      31.517  38.693 -11.039  1.00  0.00     0.088 N 
HETATM    2  C7  UNL     1      32.837  39.030 -11.510  1.00  0.00     0.273 C 
HETATM    3  C8  UNL     1      33.683  39.851 -10.626  1.00  0.00     0.040 C 
HETATM    4  C9  UNL     1      32.935  41.185 -10.449  1.00  0.00    -0.034 C 
HETATM    5  C10 UNL     1      32.628  41.734 -11.815  1.00  0.00     0.037 C 
HETATM    6  C11 UNL     1      32.405  43.230 -11.833  1.00  0.00     0.233 C 
HETATM    7  N3  UNL     1      32.300  43.791 -10.509  1.00  0.00    -0.075 N 
ATOM      8  H31 UNL     1      31.486  43.445 -10.001  1.00  0.00     0.277 HD
ATOM      9  H32 UNL     1      32.048  44.780 -10.523  1.00  0.00     0.277 HD
HETATM   10  C12 UNL     1      33.540  43.546  -9.801  1.00  0.00     0.233 C 
HETATM   11  C13 UNL     1      33.847  42.079  -9.686  1.00  0.00     0.037 C 
HETATM   12  C14 UNL     1      31.693  40.785  -9.694  1.00  0.00     0.040 C 
HETATM   13  C15 UNL     1      30.839  39.808 -10.436  1.00  0.00     0.273 C 
ENDROOT
BRANCH   1  14
HETATM   14  C6  UNL     1      31.559  37.530 -10.157  1.00  0.00     0.272 C 
BRANCH  14  15
HETATM   15  C5  UNL     1      30.465  37.600  -9.141  1.00  0.00     0.030 C 
BRANCH  15  16
HETATM   16  C4  UNL     1      31.020  37.160  -7.789  1.00  0.00     0.002 C 
BRANCH  16  17
HETATM   17  C3  UNL     1      32.513  37.376  -7.754  1.00  0.00     0.002 C 
BRANCH  17  18
HETATM   18  C2  UNL     1      32.840  38.385  -6.665  1.00  0.00     0.027 C 
BRANCH  18  19
HETATM   19  C1  UNL     1      34.046  39.236  -6.999  1.00  0.00     0.229 C 
BRANCH  19  20
HETATM   20  N1  UNL     1      34.213  40.216  -5.948  1.00  0.00    -0.079 N 
ATOM     21  H13 UNL     1      34.391  39.791  -5.039  1.00  0.00     0.274 HD
ATOM     22  H12 UNL     1      35.087  40.736  -6.031  1.00  0.00     0.274 HD
ATOM     23  H11 UNL     1      33.393  40.823  -5.944  1.00  0.00     0.274 HD
ENDBRANCH  19  20
ENDBRANCH  18  19
ENDBRANCH  17  18
ENDBRANCH  16  17
ENDBRANCH  15  16
ENDBRANCH  14  15
ENDBRANCH   1  14
TORSDOF 7
ENDMDL
MODEL 3
REMARK VINA RESULT: -5.514943366      3.526      6.515
REMARK  7 active torsions:
REMARK  status: ('A' for Active; 'I' for Inactive)
REMARK    1  A    between atoms: N1_1  and  C1_5 
REMARK    2  A    between atoms: C1_5  and  C2_6 
REMARK    3  A    between atoms: C2_6  and  C3_7 
REMARK    4  A    between atoms: C3_7  and  C4_8 
REMARK    5  A    between atoms: C4_8  and  C5_9 
REMARK    6  A    between atoms: C5_9  and  C6_10 
REMARK    7  A    between atoms: C6_10  and  N2_11 
ROOT
HETATM    1  N2  UNL     1      34.285  41.326  -9.112  1.00  0.00     0.088 N 
HETATM    2  C7  UNL     1      33.315  40.577  -9.871  1.00  0.00     0.273 C 
HETATM    3  C8  UNL     1      32.339  39.771  -9.115  1.00  0.00     0.040 C 
HETATM    4  C9  UNL     1      33.166  38.736  -8.331  1.00  0.00    -0.034 C 
HETATM    5  C10 UNL     1      34.052  38.010  -9.305  1.00  0.00     0.037 C 
HETATM    6  C11 UNL     1      34.500  36.649  -8.822  1.00  0.00     0.233 C 
HETATM    7  N3  UNL     1      34.181  36.420  -7.434  1.00  0.00    -0.075 N 
ATOM      8  H31 UNL     1      34.675  37.058  -6.810  1.00  0.00     0.277 HD
ATOM      9  H32 UNL     1      34.574  35.546  -7.082  1.00  0.00     0.277 HD
HETATM   10  C12 UNL     1      32.744  36.487  -7.271  1.00  0.00     0.233 C 
HETATM   11  C13 UNL     1      32.187  37.821  -7.686  1.00  0.00     0.037 C 
HETATM   12  C14 UNL     1      33.947  39.584  -7.360  1.00  0.00     0.040 C 
HETATM   13  C15 UNL     1      34.852  40.568  -8.029  1.00  0.00     0.273 C 
ENDROOT
BRANCH   1  14
HETATM   14  C6  UNL     1      33.728  42.598  -8.662  1.00  0.00     0.272 C 
BRANCH  14  15
HETATM   15  C5  UNL     1      32.827  43.176  -9.706  1.00  0.00     0.030 C 
BRANCH  15  16
HETATM   16  C4  UNL     1      33.646  44.096 -10.608  1.00  0.00     0.002 C 
BRANCH  16  17
HETATM   17  C3  UNL     1      33.431  43.720 -12.053  1.00  0.00     0.002 C 
BRANCH  17  18
HETATM   18  C2  UNL     1      33.340  44.989 -12.885  1.00  0.00     0.027 C 
BRANCH  18  19
HETATM   19  C1  UNL     1      32.591  46.098 -12.179  1.00  0.00     0.229 C 
BRANCH  19  20
HETATM   20  N1  UNL     1      33.172  47.362 -12.579  1.00  0.00    -0.079 N 
ATOM     21  H13 UNL     1      33.159  48.054 -11.831  1.00  0.00     0.274 HD
ATOM     22  H12 UNL     1      34.183  47.309 -12.701  1.00  0.00     0.274 HD
ATOM     23  H11 UNL     1      32.690  47.682 -13.420  1.00  0.00     0.274 HD
ENDBRANCH  19  20
ENDBRANCH  18  19
ENDBRANCH  17  18
ENDBRANCH  16  17
ENDBRANCH  15  16
ENDBRANCH  14  15
ENDBRANCH   1  14
TORSDOF 7
ENDMDL
MODEL 4
REMARK VINA RESULT: -5.466869735      3.987      6.471
REMARK  7 active torsions:
REMARK  status: ('A' for Active; 'I' for Inactive)
REMARK    1  A    between atoms: N1_1  and  C1_5 
REMARK    2  A    between atoms: C1_5  and  C2_6 
REMARK    3  A    between atoms: C2_6  and  C3_7 
REMARK    4  A    between atoms: C3_7  and  C4_8 
REMARK    5  A    between atoms: C4_8  and  C5_9 
REMARK    6  A    between atoms: C5_9  and  C6_10 
REMARK    7  A    between atoms: C6_10  and  N2_11 
ROOT
HETATM    1  N2  UNL     1      33.396  40.899  -9.607  1.00  0.00     0.088 N 
HETATM    2  C7  UNL     1      32.305  40.353 -10.375  1.00  0.00     0.273 C 
HETATM    3  C8  UNL     1      31.266  39.610  -9.640  1.00  0.00     0.040 C 
HETATM    4  C9  UNL     1      31.984  38.410  -8.996  1.00  0.00    -0.034 C 
HETATM    5  C10 UNL     1      32.725  37.673 -10.076  1.00  0.00     0.037 C 
HETATM    6  C11 UNL     1      33.011  36.227  -9.739  1.00  0.00     0.233 C 
HETATM    7  N3  UNL     1      32.726  35.911  -8.361  1.00  0.00    -0.075 N 
ATOM      8  H31 UNL     1      33.325  36.420  -7.712  1.00  0.00     0.277 HD
ATOM      9  H32 UNL     1      33.015  34.965  -8.109  1.00  0.00     0.277 HD
HETATM   10  C12 UNL     1      31.317  36.143  -8.115  1.00  0.00     0.233 C 
HETATM   11  C13 UNL     1      30.922  37.569  -8.381  1.00  0.00     0.037 C 
HETATM   12  C14 UNL     1      32.910  39.058  -7.999  1.00  0.00     0.040 C 
HETATM   13  C15 UNL     1      33.905  39.978  -8.628  1.00  0.00     0.273 C 
ENDROOT
BRANCH   1  14
HETATM   14  C6  UNL     1      33.029  42.184  -9.019  1.00  0.00     0.272 C 
BRANCH  14  15
HETATM   15  C5  UNL     1      33.906  43.274  -9.546  1.00  0.00     0.030 C 
BRANCH  15  16
HETATM   16  C4  UNL     1      33.097  44.130 -10.516  1.00  0.00     0.002 C 
BRANCH  16  17
HETATM   17  C3  UNL     1      33.435  43.752 -11.937  1.00  0.00     0.002 C 
BRANCH  17  18
HETATM   18  C2  UNL     1      33.057  44.901 -12.857  1.00  0.00     0.027 C 
BRANCH  18  19
HETATM   19  C1  UNL     1      32.451  46.071 -12.112  1.00  0.00     0.229 C 
BRANCH  19  20
HETATM   20  N1  UNL     1      33.120  47.279 -12.546  1.00  0.00    -0.079 N 
ATOM     21  H13 UNL     1      34.082  47.336 -12.215  1.00  0.00     0.274 HD
ATOM     22  H12 UNL     1      33.318  47.281 -13.547  1.00  0.00     0.274 HD
ATOM     23  H11 UNL     1      32.556  48.078 -12.256  1.00  0.00     0.274 HD
ENDBRANCH  19  20
ENDBRANCH  18  19
ENDBRANCH  17  18
ENDBRANCH  16  17
ENDBRANCH  15  16
ENDBRANCH  14  15
ENDBRANCH   1  14
TORSDOF 7
ENDMDL
MODEL 5
REMARK VINA RESULT: -5.438958043      3.183      6.570
REMARK  7 active torsions:
REMARK  status: ('A' for Active; 'I' for Inactive)
REMARK    1  A    between atoms: N1_1  and  C1_5 
REMARK    2  A    between atoms: C1_5  and  C2_6 
REMARK    3  A    between atoms: C2_6  and  C3_7 
REMARK    4  A    between atoms: C3_7  and  C4_8 
REMARK    5  A    between atoms: C4_8  and  C5_9 
REMARK    6  A    between atoms: C5_9  and  C6_10 
REMARK    7  A    between atoms: C6_10  and  N2_11 
ROOT
HETATM    1  N2  UNL     1      33.426  41.954  -8.316  1.00  0.00     0.088 N 
HETATM    2  C7  UNL     1      34.204  41.558  -7.168  1.00  0.00     0.273 C 
HETATM    3  C8  UNL     1      35.312  40.611  -7.395  1.00  0.00     0.040 C 
HETATM    4  C9  UNL     1      34.661  39.326  -7.939  1.00  0.00    -0.034 C 
HETATM    5  C10 UNL     1      33.580  38.907  -6.982  1.00  0.00     0.037 C 
HETATM    6  C11 UNL     1      33.233  37.438  -7.064  1.00  0.00     0.233 C 
HETATM    7  N3  UNL     1      33.838  36.786  -8.199  1.00  0.00    -0.075 N 
ATOM      8  H31 UNL     1      33.495  37.152  -9.087  1.00  0.00     0.277 HD
ATOM      9  H32 UNL     1      33.522  35.822  -8.311  1.00  0.00     0.277 HD
HETATM   10  C12 UNL     1      35.278  36.885  -8.077  1.00  0.00     0.233 C 
HETATM   11  C13 UNL     1      35.746  38.313  -8.027  1.00  0.00     0.037 C 
HETATM   12  C14 UNL     1      34.114  39.758  -9.276  1.00  0.00     0.040 C 
HETATM   13  C15 UNL     1      33.097  40.849  -9.174  1.00  0.00     0.273 C 
ENDROOT
BRANCH   1  14
HETATM   14  C6  UNL     1      34.080  43.040  -9.040  1.00  0.00     0.272 C 
BRANCH  14  15
HETATM   15  C5  UNL     1      33.078  43.830  -9.819  1.00  0.00     0.030 C 
BRANCH  15  16
HETATM   16  C4  UNL     1      33.535  43.907 -11.273  1.00  0.00     0.002 C 
BRANCH  16  17
HETATM   17  C3  UNL     1      32.334  43.966 -12.185  1.00  0.00     0.002 C 
BRANCH  17  18
HETATM   18  C2  UNL     1      32.163  45.392 -12.683  1.00  0.00     0.027 C 
BRANCH  18  19
HETATM   19  C1  UNL     1      33.473  46.144 -12.766  1.00  0.00     0.229 C 
BRANCH  19  20
HETATM   20  N1  UNL     1      33.196  47.556 -12.610  1.00  0.00    -0.079 N 
ATOM     21  H13 UNL     1      33.883  48.145 -13.079  1.00  0.00     0.274 HD
ATOM     22  H12 UNL     1      32.376  47.856 -13.137  1.00  0.00     0.274 HD
ATOM     23  H11 UNL     1      33.119  47.758 -11.613  1.00  0.00     0.274 HD
ENDBRANCH  19  20
ENDBRANCH  18  19
ENDBRANCH  17  18
ENDBRANCH  16  17
ENDBRANCH  15  16
ENDBRANCH  14  15
ENDBRANCH   1  14
TORSDOF 7
ENDMDL
