MODEL 1
REMARK VINA RESULT: -8.532275975      0.000      0.000
REMARK  8 active torsions:
REMARK  status: ('A' for Active; 'I' for Inactive)
REMARK    1  A    between atoms: C2_2  and  C3_3 
REMARK    2  A    between atoms: C2_2  and  C11_18 
REMARK    3  A    between atoms: C3_3  and  C4_4 
REMARK    4  A    between atoms: C4_4  and  C5_5 
REMARK    5  A    between atoms: C7_7  and  O1_8 
REMARK    6  A    between atoms: C8_10  and  O2_11 
REMARK    7  A    between atoms: C9_13  and  O3_14 
REMARK    8  A    between atoms: C11_18  and  C12_19 
ROOT
HETATM    1  C5  UNL     1      17.725   6.591  12.166  1.00  0.00    -0.045 C 
HETATM    2  C6  UNL     1      17.172   6.777  10.975  1.00  0.00     0.013 C 
HETATM    3  C7  UNL     1      16.979   5.580  10.099  1.00  0.00     0.172 C 
HETATM    4  C8  UNL     1      16.425   4.458  10.911  1.00  0.00     0.182 C 
HETATM    5  C9  UNL     1      17.003   4.296  12.272  1.00  0.00     0.188 C 
HETATM    6  C10 UNL     1      18.134   5.229  12.599  1.00  0.00     0.230 C 
HETATM    7  F1  UNL     1      19.327   4.840  12.029  1.00  0.00    -0.242 F 
ENDROOT
BRANCH   1   8
HETATM    8  C4  UNL     1      17.933   7.739  13.058  1.00  0.00     0.041 C 
BRANCH   8   9
HETATM    9  C3  UNL     1      16.680   8.483  13.392  1.00  0.00     0.038 C 
BRANCH   9  10
HETATM   10  C2  UNL     1      16.277   8.124  14.770  1.00  0.00    -0.086 C 
HETATM   11  C1  UNL     1      16.974   8.610  15.779  1.00  0.00     0.014 C 
BRANCH  10  12
HETATM   12  C11 UNL     1      15.122   7.244  14.995  1.00  0.00     0.065 C 
BRANCH  12  13
HETATM   13  C12 UNL     1      15.475   6.010  15.797  1.00  0.00     0.129 C 
HETATM   14  C13 UNL     1      14.727   6.004  17.112  1.00  0.00     0.066 C 
HETATM   15  C14 UNL     1      14.807   4.648  17.718  1.00  0.00    -0.081 C 
HETATM   16  C15 UNL     1      14.960   4.499  19.021  1.00  0.00     0.015 C 
HETATM   17  C16 UNL     1      14.708   3.480  16.801  1.00  0.00     0.033 C 
HETATM   18  C17 UNL     1      15.126   2.193  17.434  1.00  0.00     0.017 C 
HETATM   19  C18 UNL     1      15.660   3.776  15.635  1.00  0.00     0.176 C 
HETATM   20  O4  UNL     1      15.182   4.907  15.011  1.00  0.00    -0.385 OA
ENDBRANCH  12  13
ENDBRANCH  10  12
ENDBRANCH   9  10
ENDBRANCH   8   9
ENDBRANCH   1   8
BRANCH   3  21
HETATM   21  O1  UNL     1      18.133   5.261   9.403  1.00  0.00    -0.389 OA
ATOM     22  H1  UNL     1      18.033   5.408   8.469  1.00  0.00     0.210 HD
ENDBRANCH   3  21
BRANCH   5  23
HETATM   23  O3  UNL     1      17.445   2.969  12.485  1.00  0.00    -0.390 OA
ATOM     24  H3  UNL     1      16.820   2.478  13.005  1.00  0.00     0.210 HD
ENDBRANCH   5  23
BRANCH   4  25
HETATM   25  O2  UNL     1      16.498   3.232  10.239  1.00  0.00    -0.390 OA
ATOM     26  H2  UNL     1      16.761   2.522  10.814  1.00  0.00     0.210 HD
ENDBRANCH   4  25
TORSDOF 8
ENDMDL
MODEL 2
REMARK VINA RESULT: -8.146380113      1.954      4.725
REMARK  8 active torsions:
REMARK  status: ('A' for Active; 'I' for Inactive)
REMARK    1  A    between atoms: C2_2  and  C3_3 
REMARK    2  A    between atoms: C2_2  and  C11_18 
REMARK    3  A    between atoms: C3_3  and  C4_4 
REMARK    4  A    between atoms: C4_4  and  C5_5 
REMARK    5  A    between atoms: C7_7  and  O1_8 
REMARK    6  A    between atoms: C8_10  and  O2_11 
REMARK    7  A    between atoms: C9_13  and  O3_14 
REMARK    8  A    between atoms: C11_18  and  C12_19 
ROOT
HETATM    1  C5  UNL     1      16.478   4.651  13.448  1.00  0.00    -0.045 C 
HETATM    2  C6  UNL     1      17.430   5.560  13.283  1.00  0.00     0.013 C 
HETATM    3  C7  UNL     1      18.245   5.497  12.030  1.00  0.00     0.172 C 
HETATM    4  C8  UNL     1      17.343   5.273  10.864  1.00  0.00     0.182 C 
HETATM    5  C9  UNL     1      16.236   4.303  11.077  1.00  0.00     0.188 C 
HETATM    6  C10 UNL     1      16.243   3.612  12.412  1.00  0.00     0.230 C 
HETATM    7  F1  UNL     1      17.169   2.594  12.478  1.00  0.00    -0.242 F 
ENDROOT
BRANCH   1   8
HETATM    8  C4  UNL     1      15.653   4.676  14.663  1.00  0.00     0.041 C 
BRANCH   8   9
HETATM    9  C3  UNL     1      16.319   5.320  15.836  1.00  0.00     0.038 C 
BRANCH   9  10
HETATM   10  C2  UNL     1      15.441   6.402  16.334  1.00  0.00    -0.086 C 
HETATM   11  C1  UNL     1      14.625   6.141  17.339  1.00  0.00     0.014 C 
BRANCH  10  12
HETATM   12  C11 UNL     1      15.487   7.733  15.716  1.00  0.00     0.065 C 
BRANCH  12  13
HETATM   13  C12 UNL     1      16.889   8.301  15.654  1.00  0.00     0.129 C 
HETATM   14  C13 UNL     1      17.247   8.666  14.230  1.00  0.00     0.066 C 
HETATM   15  C14 UNL     1      18.459   9.530  14.233  1.00  0.00    -0.081 C 
HETATM   16  C15 UNL     1      19.389   9.389  13.308  1.00  0.00     0.015 C 
HETATM   17  C16 UNL     1      18.573  10.547  15.313  1.00  0.00     0.033 C 
HETATM   18  C17 UNL     1      19.944  11.128  15.437  1.00  0.00     0.017 C 
HETATM   19  C18 UNL     1      18.239   9.816  16.620  1.00  0.00     0.176 C 
HETATM   20  O4  UNL     1      16.934   9.388  16.512  1.00  0.00    -0.385 OA
ENDBRANCH  12  13
ENDBRANCH  10  12
ENDBRANCH   9  10
ENDBRANCH   8   9
ENDBRANCH   1   8
BRANCH   3  21
HETATM   21  O1  UNL     1      19.277   4.579  12.134  1.00  0.00    -0.389 OA
ATOM     22  H1  UNL     1      20.035   4.840  11.624  1.00  0.00     0.210 HD
ENDBRANCH   3  21
BRANCH   5  23
HETATM   23  O3  UNL     1      16.219   3.315  10.065  1.00  0.00    -0.390 OA
ATOM     24  H3  UNL     1      15.728   2.549  10.340  1.00  0.00     0.210 HD
ENDBRANCH   5  23
BRANCH   4  25
HETATM   25  O2  UNL     1      18.048   4.909   9.711  1.00  0.00    -0.390 OA
ATOM     26  H2  UNL     1      17.578   4.269   9.189  1.00  0.00     0.210 HD
ENDBRANCH   4  25
TORSDOF 8
ENDMDL
MODEL 3
REMARK VINA RESULT: -8.016081038      2.354      6.294
REMARK  8 active torsions:
REMARK  status: ('A' for Active; 'I' for Inactive)
REMARK    1  A    between atoms: C2_2  and  C3_3 
REMARK    2  A    between atoms: C2_2  and  C11_18 
REMARK    3  A    between atoms: C3_3  and  C4_4 
REMARK    4  A    between atoms: C4_4  and  C5_5 
REMARK    5  A    between atoms: C7_7  and  O1_8 
REMARK    6  A    between atoms: C8_10  and  O2_11 
REMARK    7  A    between atoms: C9_13  and  O3_14 
REMARK    8  A    between atoms: C11_18  and  C12_19 
ROOT
HETATM    1  C5  UNL     1      15.148   5.225  16.723  1.00  0.00    -0.045 C 
HETATM    2  C6  UNL     1      14.153   4.706  17.430  1.00  0.00     0.013 C 
HETATM    3  C7  UNL     1      13.999   3.218  17.433  1.00  0.00     0.172 C 
HETATM    4  C8  UNL     1      15.336   2.584  17.620  1.00  0.00     0.182 C 
HETATM    5  C9  UNL     1      16.461   3.212  16.876  1.00  0.00     0.188 C 
HETATM    6  C10 UNL     1      16.071   4.341  15.965  1.00  0.00     0.230 C 
HETATM    7  F1  UNL     1      15.515   3.902  14.783  1.00  0.00    -0.242 F 
ENDROOT
BRANCH   1   8
HETATM    8  C4  UNL     1      15.336   6.681  16.693  1.00  0.00     0.041 C 
BRANCH   8   9
HETATM    9  C3  UNL     1      15.278   7.273  15.322  1.00  0.00     0.038 C 
BRANCH   9  10
HETATM   10  C2  UNL     1      16.571   7.938  15.046  1.00  0.00    -0.086 C 
HETATM   11  C1  UNL     1      17.018   8.832  15.908  1.00  0.00     0.014 C 
BRANCH  10  12
HETATM   12  C11 UNL     1      17.330   7.601  13.835  1.00  0.00     0.065 C 
BRANCH  12  13
HETATM   13  C12 UNL     1      16.493   7.691  12.576  1.00  0.00     0.129 C 
HETATM   14  C13 UNL     1      15.755   9.010  12.527  1.00  0.00     0.066 C 
HETATM   15  C14 UNL     1      15.231   9.230  11.152  1.00  0.00    -0.081 C 
HETATM   16  C15 UNL     1      14.042   9.769  10.961  1.00  0.00     0.015 C 
HETATM   17  C16 UNL     1      16.098   8.819  10.014  1.00  0.00     0.033 C 
HETATM   18  C17 UNL     1      15.374   8.765   8.708  1.00  0.00     0.017 C 
HETATM   19  C18 UNL     1      16.595   7.407  10.349  1.00  0.00     0.176 C 
HETATM   20  O4  UNL     1      17.347   7.515  11.499  1.00  0.00    -0.385 OA
ENDBRANCH  12  13
ENDBRANCH  10  12
ENDBRANCH   9  10
ENDBRANCH   8   9
ENDBRANCH   1   8
BRANCH   3  21
HETATM   21  O1  UNL     1      13.310   2.771  16.318  1.00  0.00    -0.389 OA
ATOM     22  H1  UNL     1      12.389   2.632  16.506  1.00  0.00     0.210 HD
ENDBRANCH   3  21
BRANCH   5  23
HETATM   23  O3  UNL     1      17.173   2.253  16.118  1.00  0.00    -0.390 OA
ATOM     24  H3  UNL     1      17.249   2.521  15.210  1.00  0.00     0.210 HD
ENDBRANCH   5  23
BRANCH   4  25
HETATM   25  O2  UNL     1      15.316   1.213  17.337  1.00  0.00    -0.390 OA
ATOM     26  H2  UNL     1      15.938   0.977  16.658  1.00  0.00     0.210 HD
ENDBRANCH   4  25
TORSDOF 8
ENDMDL
MODEL 4
REMARK VINA RESULT: -8.007002124      2.809      6.479
REMARK  8 active torsions:
REMARK  status: ('A' for Active; 'I' for Inactive)
REMARK    1  A    between atoms: C2_2  and  C3_3 
REMARK    2  A    between atoms: C2_2  and  C11_18 
REMARK    3  A    between atoms: C3_3  and  C4_4 
REMARK    4  A    between atoms: C4_4  and  C5_5 
REMARK    5  A    between atoms: C7_7  and  O1_8 
REMARK    6  A    between atoms: C8_10  and  O2_11 
REMARK    7  A    between atoms: C9_13  and  O3_14 
REMARK    8  A    between atoms: C11_18  and  C12_19 
ROOT
HETATM    1  C5  UNL     1      15.184   5.237  16.728  1.00  0.00    -0.045 C 
HETATM    2  C6  UNL     1      14.181   4.722  17.426  1.00  0.00     0.013 C 
HETATM    3  C7  UNL     1      14.017   3.235  17.421  1.00  0.00     0.172 C 
HETATM    4  C8  UNL     1      15.347   2.591  17.614  1.00  0.00     0.182 C 
HETATM    5  C9  UNL     1      16.482   3.214  16.881  1.00  0.00     0.188 C 
HETATM    6  C10 UNL     1      16.106   4.350  15.972  1.00  0.00     0.230 C 
HETATM    7  F1  UNL     1      15.555   3.920  14.784  1.00  0.00    -0.242 F 
ENDROOT
BRANCH   1   8
HETATM    8  C4  UNL     1      15.382   6.692  16.706  1.00  0.00     0.041 C 
BRANCH   8   9
HETATM    9  C3  UNL     1      15.244   7.303  15.349  1.00  0.00     0.038 C 
BRANCH   9  10
HETATM   10  C2  UNL     1      16.538   7.918  14.980  1.00  0.00    -0.086 C 
HETATM   11  C1  UNL     1      17.059   8.826  15.784  1.00  0.00     0.014 C 
BRANCH  10  12
HETATM   12  C11 UNL     1      17.220   7.517  13.742  1.00  0.00     0.065 C 
BRANCH  12  13
HETATM   13  C12 UNL     1      16.815   8.361  12.552  1.00  0.00     0.129 C 
HETATM   14  C13 UNL     1      15.318   8.576  12.543  1.00  0.00     0.066 C 
HETATM   15  C14 UNL     1      14.984   9.673  11.595  1.00  0.00    -0.081 C 
HETATM   16  C15 UNL     1      13.911   9.601  10.830  1.00  0.00     0.015 C 
HETATM   17  C16 UNL     1      15.905  10.842  11.547  1.00  0.00     0.033 C 
HETATM   18  C17 UNL     1      15.686  11.719  10.358  1.00  0.00     0.017 C 
HETATM   19  C18 UNL     1      17.322  10.261  11.465  1.00  0.00     0.176 C 
HETATM   20  O4  UNL     1      17.526   9.548  12.626  1.00  0.00    -0.385 OA
ENDBRANCH  12  13
ENDBRANCH  10  12
ENDBRANCH   9  10
ENDBRANCH   8   9
ENDBRANCH   1   8
BRANCH   3  21
HETATM   21  O1  UNL     1      13.331   2.797  16.300  1.00  0.00    -0.389 OA
ATOM     22  H1  UNL     1      12.801   2.032  16.488  1.00  0.00     0.210 HD
ENDBRANCH   3  21
BRANCH   5  23
HETATM   23  O3  UNL     1      17.192   2.253  16.123  1.00  0.00    -0.390 OA
ATOM     24  H3  UNL     1      17.639   2.657  15.389  1.00  0.00     0.210 HD
ENDBRANCH   5  23
BRANCH   4  25
HETATM   25  O2  UNL     1      15.320   1.221  17.325  1.00  0.00    -0.390 OA
ATOM     26  H2  UNL     1      16.113   0.930  16.888  1.00  0.00     0.210 HD
ENDBRANCH   4  25
TORSDOF 8
ENDMDL
MODEL 5
REMARK VINA RESULT: -7.978166700      2.965      6.565
REMARK  8 active torsions:
REMARK  status: ('A' for Active; 'I' for Inactive)
REMARK    1  A    between atoms: C2_2  and  C3_3 
REMARK    2  A    between atoms: C2_2  and  C11_18 
REMARK    3  A    between atoms: C3_3  and  C4_4 
REMARK    4  A    between atoms: C4_4  and  C5_5 
REMARK    5  A    between atoms: C7_7  and  O1_8 
REMARK    6  A    between atoms: C8_10  and  O2_11 
REMARK    7  A    between atoms: C9_13  and  O3_14 
REMARK    8  A    between atoms: C11_18  and  C12_19 
ROOT
HETATM    1  C5  UNL     1      15.271   5.275  16.514  1.00  0.00    -0.045 C 
HETATM    2  C6  UNL     1      14.284   4.839  17.286  1.00  0.00     0.013 C 
HETATM    3  C7  UNL     1      14.106   3.359  17.424  1.00  0.00     0.172 C 
HETATM    4  C8  UNL     1      15.436   2.720  17.638  1.00  0.00     0.182 C 
HETATM    5  C9  UNL     1      16.554   3.259  16.818  1.00  0.00     0.188 C 
HETATM    6  C10 UNL     1      16.161   4.310  15.818  1.00  0.00     0.230 C 
HETATM    7  F1  UNL     1      15.572   3.778  14.692  1.00  0.00    -0.242 F 
ENDROOT
BRANCH   1   8
HETATM    8  C4  UNL     1      15.481   6.719  16.351  1.00  0.00     0.041 C 
BRANCH   8   9
HETATM    9  C3  UNL     1      14.893   7.280  15.097  1.00  0.00     0.038 C 
BRANCH   9  10
HETATM   10  C2  UNL     1      15.991   7.835  14.274  1.00  0.00    -0.086 C 
HETATM   11  C1  UNL     1      15.726   8.208  13.036  1.00  0.00     0.014 C 
BRANCH  10  12
HETATM   12  C11 UNL     1      17.342   7.962  14.835  1.00  0.00     0.065 C 
BRANCH  12  13
HETATM   13  C12 UNL     1      18.149   9.060  14.175  1.00  0.00     0.129 C 
HETATM   14  C13 UNL     1      18.619  10.062  15.206  1.00  0.00     0.066 C 
HETATM   15  C14 UNL     1      19.681  10.918  14.612  1.00  0.00    -0.081 C 
HETATM   16  C15 UNL     1      19.738  12.208  14.883  1.00  0.00     0.015 C 
HETATM   17  C16 UNL     1      20.665  10.262  13.709  1.00  0.00     0.033 C 
HETATM   18  C17 UNL     1      21.473  11.231  12.910  1.00  0.00     0.017 C 
HETATM   19  C18 UNL     1      19.843   9.404  12.739  1.00  0.00     0.176 C 
HETATM   20  O4  UNL     1      19.197   8.454  13.501  1.00  0.00    -0.385 OA
ENDBRANCH  12  13
ENDBRANCH  10  12
ENDBRANCH   9  10
ENDBRANCH   8   9
ENDBRANCH   1   8
BRANCH   3  21
HETATM   21  O1  UNL     1      13.384   2.828  16.369  1.00  0.00    -0.389 OA
ATOM     22  H1  UNL     1      13.789   2.039  16.026  1.00  0.00     0.210 HD
ENDBRANCH   3  21
BRANCH   5  23
HETATM   23  O3  UNL     1      17.233   2.224  16.133  1.00  0.00    -0.390 OA
ATOM     24  H3  UNL     1      18.077   2.520  15.812  1.00  0.00     0.210 HD
ENDBRANCH   5  23
BRANCH   4  25
HETATM   25  O2  UNL     1      15.388   1.330  17.479  1.00  0.00    -0.390 OA
ATOM     26  H2  UNL     1      15.564   0.869  18.291  1.00  0.00     0.210 HD
ENDBRANCH   4  25
TORSDOF 8
ENDMDL
