MODEL 1
REMARK VINA RESULT: -6.181627792      0.000      0.000
REMARK  6 active torsions:
REMARK  status: ('A' for Active; 'I' for Inactive)
REMARK    1  A    between atoms: N1_1  and  N2_4 
REMARK    2  A    between atoms: N2_4  and  C1_5 
REMARK    3  A    between atoms: C3_10  and  O1_11 
REMARK    4  A    between atoms: C4_13  and  C5_14 
REMARK    5  A    between atoms: C5_14  and  N4_15 
REMARK    6  A    between atoms: N4_15  and  C6_18 
ROOT
HETATM    1  C1  UNL     1      17.362  45.182  14.648  1.00  0.00     0.260 C 
HETATM    2  C2  UNL     1      17.480  44.691  16.061  1.00  0.00     0.286 C 
HETATM    3  N3  UNL     1      18.591  45.278  16.771  1.00  0.00    -0.043 N 
ATOM      4  H31 UNL     1      19.462  44.783  16.581  1.00  0.00     0.280 HD
ATOM      5  H32 UNL     1      18.529  45.104  17.774  1.00  0.00     0.280 HD
HETATM    6  C3  UNL     1      18.703  46.683  16.480  1.00  0.00     0.349 C 
HETATM    7  C4  UNL     1      17.510  47.226  15.722  1.00  0.00     0.205 C 
HETATM    8  O2  UNL     1      17.434  46.542  14.514  1.00  0.00    -0.355 OA
ENDROOT
BRANCH   7   9
HETATM    9  C5  UNL     1      17.827  48.686  15.431  1.00  0.00     0.268 C 
BRANCH   9  10
HETATM   10  N4  UNL     1      17.959  49.472  16.616  1.00  0.00    -0.068 N 
ATOM     11  H42 UNL     1      17.490  49.044  17.415  1.00  0.00     0.277 HD
ATOM     12  H41 UNL     1      18.912  49.461  16.981  1.00  0.00     0.277 HD
BRANCH  10  13
HETATM   13  C6  UNL     1      17.493  50.800  16.367  1.00  0.00     0.186 C 
HETATM   14  C7  UNL     1      18.436  51.607  15.502  1.00  0.00     0.033 C 
HETATM   15  C8  UNL     1      17.757  52.337  14.386  1.00  0.00     0.002 C 
HETATM   16  C9  UNL     1      16.553  53.126  14.843  1.00  0.00     0.000 C 
HETATM   17  C10 UNL     1      15.717  52.369  15.835  1.00  0.00     0.002 C 
HETATM   18  C11 UNL     1      16.136  50.894  15.729  1.00  0.00     0.033 C 
ENDBRANCH  10  13
ENDBRANCH   9  10
ENDBRANCH   7   9
BRANCH   6  19
HETATM   19  O1  UNL     1      19.845  47.031  15.800  1.00  0.00    -0.368 OA
ATOM     20  H1  UNL     1      20.120  46.397  15.149  1.00  0.00     0.212 HD
ENDBRANCH   6  19
BRANCH   1  21
HETATM   21  N2  UNL     1      18.346  44.495  13.805  1.00  0.00    -0.114 NA
BRANCH  21  22
HETATM   22  N1  UNL     1      17.802  43.426  13.133  1.00  0.00    -0.346 N 
ATOM     23  H12 UNL     1      17.162  43.533  12.345  1.00  0.00     0.172 HD
ATOM     24  H11 UNL     1      18.113  42.531  13.511  1.00  0.00     0.172 HD
ENDBRANCH  21  22
ENDBRANCH   1  21
TORSDOF 6
ENDMDL
MODEL 2
REMARK VINA RESULT: -6.061208875      1.868      2.900
REMARK  6 active torsions:
REMARK  status: ('A' for Active; 'I' for Inactive)
REMARK    1  A    between atoms: N1_1  and  N2_4 
REMARK    2  A    between atoms: N2_4  and  C1_5 
REMARK    3  A    between atoms: C3_10  and  O1_11 
REMARK    4  A    between atoms: C4_13  and  C5_14 
REMARK    5  A    between atoms: C5_14  and  N4_15 
REMARK    6  A    between atoms: N4_15  and  C6_18 
ROOT
HETATM    1  C1  UNL     1      16.642  42.995  15.789  1.00  0.00     0.260 C 
HETATM    2  C2  UNL     1      18.047  42.470  15.746  1.00  0.00     0.286 C 
HETATM    3  N3  UNL     1      18.935  43.297  14.966  1.00  0.00    -0.043 N 
ATOM      4  H31 UNL     1      18.877  43.076  13.972  1.00  0.00     0.280 HD
ATOM      5  H32 UNL     1      19.912  43.052  15.123  1.00  0.00     0.280 HD
HETATM    6  C3  UNL     1      18.691  44.694  15.216  1.00  0.00     0.349 C 
HETATM    7  C4  UNL     1      17.762  44.930  16.388  1.00  0.00     0.205 C 
HETATM    8  O2  UNL     1      16.545  44.327  16.088  1.00  0.00    -0.355 OA
ENDROOT
BRANCH   7   9
HETATM    9  C5  UNL     1      17.550  46.435  16.460  1.00  0.00     0.268 C 
BRANCH   9  10
HETATM   10  N4  UNL     1      18.746  47.148  16.781  1.00  0.00    -0.068 N 
ATOM     11  H42 UNL     1      18.830  47.326  17.783  1.00  0.00     0.277 HD
ATOM     12  H41 UNL     1      19.581  46.573  16.663  1.00  0.00     0.277 HD
BRANCH  10  13
HETATM   13  C6  UNL     1      18.809  48.353  16.014  1.00  0.00     0.186 C 
HETATM   14  C7  UNL     1      17.506  48.681  15.319  1.00  0.00     0.033 C 
HETATM   15  C8  UNL     1      17.077  50.106  15.481  1.00  0.00     0.002 C 
HETATM   16  C9  UNL     1      18.178  51.092  15.171  1.00  0.00     0.000 C 
HETATM   17  C10 UNL     1      19.504  50.661  15.728  1.00  0.00     0.002 C 
HETATM   18  C11 UNL     1      19.210  49.581  16.780  1.00  0.00     0.033 C 
ENDBRANCH  10  13
ENDBRANCH   9  10
ENDBRANCH   7   9
BRANCH   6  19
HETATM   19  O1  UNL     1      18.207  45.386  14.133  1.00  0.00    -0.368 OA
ATOM     20  H1  UNL     1      17.886  46.257  14.337  1.00  0.00     0.212 HD
ENDBRANCH   6  19
BRANCH   1  21
HETATM   21  N2  UNL     1      15.955  42.663  14.538  1.00  0.00    -0.114 NA
BRANCH  21  22
HETATM   22  N1  UNL     1      14.804  41.941  14.750  1.00  0.00    -0.346 N 
ATOM     23  H12 UNL     1      14.584  41.083  14.243  1.00  0.00     0.172 HD
ATOM     24  H11 UNL     1      14.209  42.361  15.464  1.00  0.00     0.172 HD
ENDBRANCH  21  22
ENDBRANCH   1  21
TORSDOF 6
ENDMDL
MODEL 3
REMARK VINA RESULT: -6.033901283      1.923      2.781
REMARK  6 active torsions:
REMARK  status: ('A' for Active; 'I' for Inactive)
REMARK    1  A    between atoms: N1_1  and  N2_4 
REMARK    2  A    between atoms: N2_4  and  C1_5 
REMARK    3  A    between atoms: C3_10  and  O1_11 
REMARK    4  A    between atoms: C4_13  and  C5_14 
REMARK    5  A    between atoms: C5_14  and  N4_15 
REMARK    6  A    between atoms: N4_15  and  C6_18 
ROOT
HETATM    1  C1  UNL     1      16.258  43.185  14.984  1.00  0.00     0.260 C 
HETATM    2  C2  UNL     1      16.881  42.102  15.814  1.00  0.00     0.286 C 
HETATM    3  N3  UNL     1      18.266  42.357  16.126  1.00  0.00    -0.043 N 
ATOM      4  H31 UNL     1      18.882  42.059  15.369  1.00  0.00     0.280 HD
ATOM      5  H32 UNL     1      18.608  41.733  16.857  1.00  0.00     0.280 HD
HETATM    6  C3  UNL     1      18.472  43.740  16.467  1.00  0.00     0.349 C 
HETATM    7  C4  UNL     1      17.176  44.501  16.651  1.00  0.00     0.205 C 
HETATM    8  O2  UNL     1      16.486  44.453  15.446  1.00  0.00    -0.355 OA
ENDROOT
BRANCH   7   9
HETATM    9  C5  UNL     1      17.573  45.945  16.924  1.00  0.00     0.268 C 
BRANCH   9  10
HETATM   10  N4  UNL     1      17.527  46.764  15.754  1.00  0.00    -0.068 N 
ATOM     11  H42 UNL     1      18.239  46.500  15.072  1.00  0.00     0.277 HD
ATOM     12  H41 UNL     1      16.701  46.575  15.185  1.00  0.00     0.277 HD
BRANCH  10  13
HETATM   13  C6  UNL     1      17.622  48.141  16.126  1.00  0.00     0.186 C 
HETATM   14  C7  UNL     1      19.000  48.529  16.614  1.00  0.00     0.033 C 
HETATM   15  C8  UNL     1      19.521  49.794  16.006  1.00  0.00     0.002 C 
HETATM   16  C9  UNL     1      18.529  50.930  16.068  1.00  0.00     0.000 C 
HETATM   17  C10 UNL     1      17.132  50.488  15.743  1.00  0.00     0.002 C 
HETATM   18  C11 UNL     1      17.252  49.122  15.050  1.00  0.00     0.033 C 
ENDBRANCH  10  13
ENDBRANCH   9  10
ENDBRANCH   7   9
BRANCH   6  19
HETATM   19  O1  UNL     1      19.259  44.431  15.578  1.00  0.00    -0.368 OA
ATOM     20  H1  UNL     1      19.102  45.368  15.563  1.00  0.00     0.212 HD
ENDBRANCH   6  19
BRANCH   1  21
HETATM   21  N2  UNL     1      16.667  43.029  13.585  1.00  0.00    -0.114 NA
BRANCH  21  22
HETATM   22  N1  UNL     1      15.785  42.257  12.866  1.00  0.00    -0.346 N 
ATOM     23  H12 UNL     1      15.217  42.626  12.103  1.00  0.00     0.172 HD
ATOM     24  H11 UNL     1      15.770  41.288  13.184  1.00  0.00     0.172 HD
ENDBRANCH  21  22
ENDBRANCH   1  21
TORSDOF 6
ENDMDL
MODEL 4
REMARK VINA RESULT: -6.027055961      1.835      2.629
REMARK  6 active torsions:
REMARK  status: ('A' for Active; 'I' for Inactive)
REMARK    1  A    between atoms: N1_1  and  N2_4 
REMARK    2  A    between atoms: N2_4  and  C1_5 
REMARK    3  A    between atoms: C3_10  and  O1_11 
REMARK    4  A    between atoms: C4_13  and  C5_14 
REMARK    5  A    between atoms: C5_14  and  N4_15 
REMARK    6  A    between atoms: N4_15  and  C6_18 
ROOT
HETATM    1  C1  UNL     1      16.652  42.965  15.695  1.00  0.00     0.260 C 
HETATM    2  C2  UNL     1      18.084  42.517  15.675  1.00  0.00     0.286 C 
HETATM    3  N3  UNL     1      18.951  43.433  14.974  1.00  0.00    -0.043 N 
ATOM      4  H31 UNL     1      18.939  43.267  13.968  1.00  0.00     0.280 HD
ATOM      5  H32 UNL     1      19.935  43.231  15.153  1.00  0.00     0.280 HD
HETATM    6  C3  UNL     1      18.624  44.799  15.292  1.00  0.00     0.349 C 
HETATM    7  C4  UNL     1      17.644  44.918  16.441  1.00  0.00     0.205 C 
HETATM    8  O2  UNL     1      16.473  44.271  16.064  1.00  0.00    -0.355 OA
ENDROOT
BRANCH   7   9
HETATM    9  C5  UNL     1      17.350  46.404  16.588  1.00  0.00     0.268 C 
BRANCH   9  10
HETATM   10  N4  UNL     1      18.534  47.198  16.685  1.00  0.00    -0.068 N 
ATOM     11  H42 UNL     1      19.069  46.987  17.527  1.00  0.00     0.277 HD
ATOM     12  H41 UNL     1      19.235  46.929  15.994  1.00  0.00     0.277 HD
BRANCH  10  13
HETATM   13  C6  UNL     1      18.193  48.583  16.596  1.00  0.00     0.186 C 
HETATM   14  C7  UNL     1      19.381  49.500  16.789  1.00  0.00     0.033 C 
HETATM   15  C8  UNL     1      19.479  50.587  15.765  1.00  0.00     0.002 C 
HETATM   16  C9  UNL     1      18.181  51.333  15.572  1.00  0.00     0.000 C 
HETATM   17  C10 UNL     1      16.991  50.417  15.552  1.00  0.00     0.002 C 
HETATM   18  C11 UNL     1      17.532  48.999  15.312  1.00  0.00     0.033 C 
ENDBRANCH  10  13
ENDBRANCH   9  10
ENDBRANCH   7   9
BRANCH   6  19
HETATM   19  O1  UNL     1      18.140  45.526  14.232  1.00  0.00    -0.368 OA
ATOM     20  H1  UNL     1      17.198  45.643  14.235  1.00  0.00     0.212 HD
ENDBRANCH   6  19
BRANCH   1  21
HETATM   21  N2  UNL     1      16.027  42.669  14.403  1.00  0.00    -0.114 NA
BRANCH  21  22
HETATM   22  N1  UNL     1      14.928  41.852  14.529  1.00  0.00    -0.346 N 
ATOM     23  H12 UNL     1      14.238  41.961  15.273  1.00  0.00     0.172 HD
ATOM     24  H11 UNL     1      14.890  41.138  13.802  1.00  0.00     0.172 HD
ENDBRANCH  21  22
ENDBRANCH   1  21
TORSDOF 6
ENDMDL
MODEL 5
REMARK VINA RESULT: -6.024823163      1.913      3.115
REMARK  6 active torsions:
REMARK  status: ('A' for Active; 'I' for Inactive)
REMARK    1  A    between atoms: N1_1  and  N2_4 
REMARK    2  A    between atoms: N2_4  and  C1_5 
REMARK    3  A    between atoms: C3_10  and  O1_11 
REMARK    4  A    between atoms: C4_13  and  C5_14 
REMARK    5  A    between atoms: C5_14  and  N4_15 
REMARK    6  A    between atoms: N4_15  and  C6_18 
ROOT
HETATM    1  C1  UNL     1      16.885  43.000  15.767  1.00  0.00     0.260 C 
HETATM    2  C2  UNL     1      17.675  42.484  14.601  1.00  0.00     0.286 C 
HETATM    3  N3  UNL     1      17.900  43.483  13.585  1.00  0.00    -0.043 N 
ATOM      4  H31 UNL     1      17.106  43.556  12.948  1.00  0.00     0.280 HD
ATOM      5  H32 UNL     1      18.609  43.185  12.915  1.00  0.00     0.280 HD
HETATM    6  C3  UNL     1      18.227  44.754  14.175  1.00  0.00     0.349 C 
HETATM    7  C4  UNL     1      18.492  44.662  15.664  1.00  0.00     0.205 C 
HETATM    8  O2  UNL     1      17.332  44.192  16.269  1.00  0.00    -0.355 OA
ENDROOT
BRANCH   7   9
HETATM    9  C5  UNL     1      18.739  46.088  16.135  1.00  0.00     0.268 C 
BRANCH   9  10
HETATM   10  N4  UNL     1      17.567  46.708  16.667  1.00  0.00    -0.068 N 
ATOM     11  H42 UNL     1      16.723  46.426  16.167  1.00  0.00     0.277 HD
ATOM     12  H41 UNL     1      17.322  46.343  17.587  1.00  0.00     0.277 HD
BRANCH  10  13
HETATM   13  C6  UNL     1      17.736  48.127  16.678  1.00  0.00     0.186 C 
HETATM   14  C7  UNL     1      19.127  48.555  17.095  1.00  0.00     0.033 C 
HETATM   15  C8  UNL     1      19.733  49.592  16.202  1.00  0.00     0.002 C 
HETATM   16  C9  UNL     1      18.809  50.757  15.941  1.00  0.00     0.000 C 
HETATM   17  C10 UNL     1      17.393  50.321  15.695  1.00  0.00     0.002 C 
HETATM   18  C11 UNL     1      17.445  48.819  15.377  1.00  0.00     0.033 C 
ENDBRANCH  10  13
ENDBRANCH   9  10
ENDBRANCH   7   9
BRANCH   6  19
HETATM   19  O1  UNL     1      17.291  45.736  13.961  1.00  0.00    -0.368 OA
ATOM     20  H1  UNL     1      17.640  46.619  13.974  1.00  0.00     0.212 HD
ENDBRANCH   6  19
BRANCH   1  21
HETATM   21  N2  UNL     1      15.464  43.051  15.414  1.00  0.00    -0.114 NA
BRANCH  21  22
HETATM   22  N1  UNL     1      15.047  41.916  14.760  1.00  0.00    -0.346 N 
ATOM     23  H12 UNL     1      15.584  41.476  14.012  1.00  0.00     0.172 HD
ATOM     24  H11 UNL     1      14.152  41.574  15.109  1.00  0.00     0.172 HD
ENDBRANCH  21  22
ENDBRANCH   1  21
TORSDOF 6
ENDMDL
