MODEL 1
REMARK VINA RESULT: -6.137914901      0.000      0.000
REMARK  9 active torsions:
REMARK  status: ('A' for Active; 'I' for Inactive)
REMARK    1  A    between atoms: C2_2  and  C3_3 
REMARK    2  A    between atoms: C3_3  and  N1_4 
REMARK    3  A    between atoms: N1_4  and  C4_6 
REMARK    4  A    between atoms: C5_9  and  N3_10 
REMARK    5  A    between atoms: N3_10  and  C6_12 
REMARK    6  A    between atoms: C6_12  and  C7_13 
REMARK    7  A    between atoms: C9_17  and  N5_18 
REMARK    8  A    between atoms: N5_18  and  C10_20 
REMARK    9  A    between atoms: C10_20  and  C11_21 
ROOT
HETATM    1  C4  UNL     1      37.395  40.672  -4.325  1.00  0.00     0.707 A 
HETATM    2  N2  UNL     1      36.362  40.916  -5.161  1.00  0.00    -0.022 N 
ATOM      3  H2  UNL     1      36.046  40.209  -5.825  1.00  0.00     0.203 HD
HETATM    4  C5  UNL     1      35.767  42.112  -5.095  1.00  0.00     0.707 A 
HETATM    5  N4  UNL     1      36.185  43.054  -4.214  1.00  0.00    -0.022 N 
ATOM      6  H4  UNL     1      35.715  43.959  -4.181  1.00  0.00     0.203 HD
HETATM    7  C9  UNL     1      37.210  42.807  -3.387  1.00  0.00     0.707 A 
HETATM    8  N6  UNL     1      37.812  41.599  -3.453  1.00  0.00    -0.022 N 
ATOM      9  H6  UNL     1      38.594  41.391  -2.831  1.00  0.00     0.203 HD
ENDROOT
BRANCH   1  10
HETATM   10  N1  UNL     1      37.972  39.509  -4.392  1.00  0.00    -0.225 N 
ATOM     11  H1  UNL     1      37.692  38.831  -5.101  1.00  0.00     0.177 HD
BRANCH  10  12
HETATM   12  C3  UNL     1      39.031  39.190  -3.433  1.00  0.00     0.137 C 
BRANCH  12  13
HETATM   13  C2  UNL     1      38.542  38.078  -2.524  1.00  0.00     0.016 C 
HETATM   14  C1  UNL     1      37.955  38.598  -1.252  1.00  0.00     0.006 C 
ENDBRANCH  12  13
ENDBRANCH  10  12
ENDBRANCH   1  10
BRANCH   4  15
HETATM   15  N3  UNL     1      34.787  42.432  -5.841  1.00  0.00    -0.225 N 
ATOM     16  H3  UNL     1      33.899  42.687  -5.410  1.00  0.00     0.177 HD
BRANCH  15  17
HETATM   17  C6  UNL     1      34.893  42.445  -7.262  1.00  0.00     0.137 C 
BRANCH  17  18
HETATM   18  C7  UNL     1      33.579  42.840  -7.951  1.00  0.00     0.016 C 
HETATM   19  C8  UNL     1      33.927  43.167  -9.384  1.00  0.00     0.006 C 
ENDBRANCH  17  18
ENDBRANCH  15  17
ENDBRANCH   4  15
BRANCH   7  20
HETATM   20  N5  UNL     1      37.618  43.708  -2.537  1.00  0.00    -0.225 N 
ATOM     21  H5  UNL     1      38.364  44.358  -2.784  1.00  0.00     0.177 HD
BRANCH  20  22
HETATM   22  C10 UNL     1      36.996  43.763  -1.253  1.00  0.00     0.137 C 
BRANCH  22  23
HETATM   23  C11 UNL     1      37.783  43.125  -0.163  1.00  0.00     0.016 C 
HETATM   24  C12 UNL     1      37.176  41.884   0.396  1.00  0.00     0.006 C 
ENDBRANCH  22  23
ENDBRANCH  20  22
ENDBRANCH   7  20
TORSDOF 9
ENDMDL
MODEL 2
REMARK VINA RESULT: -6.108031633      0.379      5.324
REMARK  9 active torsions:
REMARK  status: ('A' for Active; 'I' for Inactive)
REMARK    1  A    between atoms: C2_2  and  C3_3 
REMARK    2  A    between atoms: C3_3  and  N1_4 
REMARK    3  A    between atoms: N1_4  and  C4_6 
REMARK    4  A    between atoms: C5_9  and  N3_10 
REMARK    5  A    between atoms: N3_10  and  C6_12 
REMARK    6  A    between atoms: C6_12  and  C7_13 
REMARK    7  A    between atoms: C9_17  and  N5_18 
REMARK    8  A    between atoms: N5_18  and  C10_20 
REMARK    9  A    between atoms: C10_20  and  C11_21 
ROOT
HETATM    1  C4  UNL     1      35.736  42.111  -5.088  1.00  0.00     0.707 A 
HETATM    2  N2  UNL     1      36.317  40.899  -5.227  1.00  0.00    -0.022 N 
ATOM      3  H2  UNL     1      35.988  40.237  -5.930  1.00  0.00     0.203 HD
HETATM    4  C5  UNL     1      37.337  40.593  -4.417  1.00  0.00     0.707 A 
HETATM    5  N4  UNL     1      37.776  41.471  -3.483  1.00  0.00    -0.022 N 
ATOM      6  H4  UNL     1      38.556  41.215  -2.877  1.00  0.00     0.203 HD
HETATM    7  C9  UNL     1      37.196  42.670  -3.348  1.00  0.00     0.707 A 
HETATM    8  N6  UNL     1      36.166  42.982  -4.165  1.00  0.00    -0.022 N 
ATOM      9  H6  UNL     1      35.710  43.891  -4.079  1.00  0.00     0.203 HD
ENDROOT
BRANCH   1  10
HETATM   10  N1  UNL     1      34.745  42.405  -5.876  1.00  0.00    -0.225 N 
ATOM     11  H1  UNL     1      33.821  42.609  -5.495  1.00  0.00     0.177 HD
BRANCH  10  12
HETATM   12  C3  UNL     1      34.978  42.439  -7.320  1.00  0.00     0.137 C 
BRANCH  12  13
HETATM   13  C2  UNL     1      33.680  42.814  -8.012  1.00  0.00     0.016 C 
HETATM   14  C1  UNL     1      33.886  43.206  -9.439  1.00  0.00     0.006 C 
ENDBRANCH  12  13
ENDBRANCH  10  12
ENDBRANCH   1  10
BRANCH   4  15
HETATM   15  N3  UNL     1      37.946  39.477  -4.475  1.00  0.00    -0.225 N 
ATOM     16  H3  UNL     1      37.738  38.839  -5.244  1.00  0.00     0.177 HD
BRANCH  15  17
HETATM   17  C6  UNL     1      38.910  39.090  -3.501  1.00  0.00     0.137 C 
BRANCH  17  18
HETATM   18  C7  UNL     1      38.429  37.931  -2.617  1.00  0.00     0.016 C 
HETATM   19  C8  UNL     1      38.015  38.539  -1.298  1.00  0.00     0.006 C 
ENDBRANCH  17  18
ENDBRANCH  15  17
ENDBRANCH   4  15
BRANCH   7  20
HETATM   20  N5  UNL     1      37.613  43.520  -2.451  1.00  0.00    -0.225 N 
ATOM     21  H5  UNL     1      38.530  43.957  -2.534  1.00  0.00     0.177 HD
BRANCH  20  22
HETATM   22  C10 UNL     1      36.755  43.824  -1.351  1.00  0.00     0.137 C 
BRANCH  22  23
HETATM   23  C11 UNL     1      36.246  42.631  -0.623  1.00  0.00     0.016 C 
HETATM   24  C12 UNL     1      37.209  42.040   0.350  1.00  0.00     0.006 C 
ENDBRANCH  22  23
ENDBRANCH  20  22
ENDBRANCH   7  20
TORSDOF 9
ENDMDL
MODEL 3
REMARK VINA RESULT: -6.102257505      2.547      5.387
REMARK  9 active torsions:
REMARK  status: ('A' for Active; 'I' for Inactive)
REMARK    1  A    between atoms: C2_2  and  C3_3 
REMARK    2  A    between atoms: C3_3  and  N1_4 
REMARK    3  A    between atoms: N1_4  and  C4_6 
REMARK    4  A    between atoms: C5_9  and  N3_10 
REMARK    5  A    between atoms: N3_10  and  C6_12 
REMARK    6  A    between atoms: C6_12  and  C7_13 
REMARK    7  A    between atoms: C9_17  and  N5_18 
REMARK    8  A    between atoms: N5_18  and  C10_20 
REMARK    9  A    between atoms: C10_20  and  C11_21 
ROOT
HETATM    1  C4  UNL     1      35.383  41.735  -5.125  1.00  0.00     0.707 A 
HETATM    2  N2  UNL     1      34.768  42.673  -5.879  1.00  0.00    -0.022 N 
ATOM      3  H2  UNL     1      34.702  43.639  -5.563  1.00  0.00     0.203 HD
HETATM    4  C5  UNL     1      34.249  42.295  -7.053  1.00  0.00     0.707 A 
HETATM    5  N4  UNL     1      34.336  41.010  -7.475  1.00  0.00    -0.022 N 
ATOM      6  H4  UNL     1      33.932  40.745  -8.374  1.00  0.00     0.203 HD
HETATM    7  C9  UNL     1      34.945  40.084  -6.723  1.00  0.00     0.707 A 
HETATM    8  N6  UNL     1      35.471  40.464  -5.537  1.00  0.00    -0.022 N 
ATOM      9  H6  UNL     1      35.940  39.774  -4.950  1.00  0.00     0.203 HD
ENDROOT
BRANCH   1  10
HETATM   10  N1  UNL     1      35.886  42.105  -3.984  1.00  0.00    -0.225 N 
ATOM     11  H1  UNL     1      35.349  42.005  -3.123  1.00  0.00     0.177 HD
BRANCH  10  12
HETATM   12  C3  UNL     1      37.237  42.667  -3.958  1.00  0.00     0.137 C 
BRANCH  12  13
HETATM   13  C2  UNL     1      37.696  42.760  -2.514  1.00  0.00     0.016 C 
HETATM   14  C1  UNL     1      37.334  44.065  -1.884  1.00  0.00     0.006 C 
ENDBRANCH  12  13
ENDBRANCH  10  12
ENDBRANCH   1  10
BRANCH   4  15
HETATM   15  N3  UNL     1      33.653  43.107  -7.830  1.00  0.00    -0.225 N 
ATOM     16  H3  UNL     1      32.975  43.761  -7.438  1.00  0.00     0.177 HD
BRANCH  15  17
HETATM   17  C6  UNL     1      33.902  43.131  -9.233  1.00  0.00     0.137 C 
BRANCH  17  18
HETATM   18  C7  UNL     1      32.877  43.976 -10.003  1.00  0.00     0.016 C 
HETATM   19  C8  UNL     1      33.549  44.400 -11.287  1.00  0.00     0.006 C 
ENDBRANCH  17  18
ENDBRANCH  15  17
ENDBRANCH   4  15
BRANCH   7  20
HETATM   20  N5  UNL     1      35.032  38.846  -7.123  1.00  0.00    -0.225 N 
ATOM     21  H5  UNL     1      35.874  38.299  -6.944  1.00  0.00     0.177 HD
BRANCH  20  22
HETATM   22  C10 UNL     1      33.923  38.275  -7.817  1.00  0.00     0.137 C 
BRANCH  22  23
HETATM   23  C11 UNL     1      32.818  37.815  -6.933  1.00  0.00     0.016 C 
HETATM   24  C12 UNL     1      31.575  37.413  -7.651  1.00  0.00     0.006 C 
ENDBRANCH  22  23
ENDBRANCH  20  22
ENDBRANCH   7  20
TORSDOF 9
ENDMDL
MODEL 4
REMARK VINA RESULT: -6.095623775      0.148      5.369
REMARK  9 active torsions:
REMARK  status: ('A' for Active; 'I' for Inactive)
REMARK    1  A    between atoms: C2_2  and  C3_3 
REMARK    2  A    between atoms: C3_3  and  N1_4 
REMARK    3  A    between atoms: N1_4  and  C4_6 
REMARK    4  A    between atoms: C5_9  and  N3_10 
REMARK    5  A    between atoms: N3_10  and  C6_12 
REMARK    6  A    between atoms: C6_12  and  C7_13 
REMARK    7  A    between atoms: C9_17  and  N5_18 
REMARK    8  A    between atoms: N5_18  and  C10_20 
REMARK    9  A    between atoms: C10_20  and  C11_21 
ROOT
HETATM    1  C4  UNL     1      37.334  40.630  -4.417  1.00  0.00     0.707 A 
HETATM    2  N2  UNL     1      37.826  41.531  -3.539  1.00  0.00    -0.022 N 
ATOM      3  H2  UNL     1      38.624  41.304  -2.946  1.00  0.00     0.203 HD
HETATM    4  C5  UNL     1      37.238  42.731  -3.472  1.00  0.00     0.707 A 
HETATM    5  N4  UNL     1      36.177  43.035  -4.259  1.00  0.00    -0.022 N 
ATOM      6  H4  UNL     1      35.745  43.957  -4.190  1.00  0.00     0.203 HD
HETATM    7  C9  UNL     1      35.692  42.138  -5.127  1.00  0.00     0.707 A 
HETATM    8  N6  UNL     1      36.286  40.925  -5.197  1.00  0.00    -0.022 N 
ATOM      9  H6  UNL     1      35.931  40.228  -5.852  1.00  0.00     0.203 HD
ENDROOT
BRANCH   1  10
HETATM   10  N1  UNL     1      37.908  39.465  -4.481  1.00  0.00    -0.225 N 
ATOM     11  H1  UNL     1      37.557  38.747  -5.115  1.00  0.00     0.177 HD
BRANCH  10  12
HETATM   12  C3  UNL     1      39.066  39.201  -3.625  1.00  0.00     0.137 C 
BRANCH  12  13
HETATM   13  C2  UNL     1      38.717  38.073  -2.672  1.00  0.00     0.016 C 
HETATM   14  C1  UNL     1      38.107  38.568  -1.401  1.00  0.00     0.006 C 
ENDBRANCH  12  13
ENDBRANCH  10  12
ENDBRANCH   1  10
BRANCH   4  15
HETATM   15  N3  UNL     1      37.632  43.643  -2.677  1.00  0.00    -0.225 N 
ATOM     16  H3  UNL     1      38.391  44.259  -2.969  1.00  0.00     0.177 HD
BRANCH  15  17
HETATM   17  C6  UNL     1      37.047  43.832  -1.392  1.00  0.00     0.137 C 
BRANCH  17  18
HETATM   18  C7  UNL     1      37.889  43.226  -0.261  1.00  0.00     0.016 C 
HETATM   19  C8  UNL     1      37.144  42.006   0.224  1.00  0.00     0.006 C 
ENDBRANCH  17  18
ENDBRANCH  15  17
ENDBRANCH   4  15
BRANCH   7  20
HETATM   20  N5  UNL     1      34.672  42.423  -5.887  1.00  0.00    -0.225 N 
ATOM     21  H5  UNL     1      33.754  42.605  -5.482  1.00  0.00     0.177 HD
BRANCH  20  22
HETATM   22  C10 UNL     1      34.871  42.475  -7.300  1.00  0.00     0.137 C 
BRANCH  22  23
HETATM   23  C11 UNL     1      33.651  42.821  -8.079  1.00  0.00     0.016 C 
HETATM   24  C12 UNL     1      33.910  43.240  -9.486  1.00  0.00     0.006 C 
ENDBRANCH  22  23
ENDBRANCH  20  22
ENDBRANCH   7  20
TORSDOF 9
ENDMDL
MODEL 5
REMARK VINA RESULT: -6.094334265      0.142      5.878
REMARK  9 active torsions:
REMARK  status: ('A' for Active; 'I' for Inactive)
REMARK    1  A    between atoms: C2_2  and  C3_3 
REMARK    2  A    between atoms: C3_3  and  N1_4 
REMARK    3  A    between atoms: N1_4  and  C4_6 
REMARK    4  A    between atoms: C5_9  and  N3_10 
REMARK    5  A    between atoms: N3_10  and  C6_12 
REMARK    6  A    between atoms: C6_12  and  C7_13 
REMARK    7  A    between atoms: C9_17  and  N5_18 
REMARK    8  A    between atoms: N5_18  and  C10_20 
REMARK    9  A    between atoms: C10_20  and  C11_21 
ROOT
HETATM    1  C4  UNL     1      37.206  42.753  -3.454  1.00  0.00     0.707 A 
HETATM    2  N2  UNL     1      37.823  41.552  -3.509  1.00  0.00    -0.022 N 
ATOM      3  H2  UNL     1      38.618  41.343  -2.907  1.00  0.00     0.203 HD
HETATM    4  C5  UNL     1      37.359  40.646  -4.377  1.00  0.00     0.707 A 
HETATM    5  N4  UNL     1      36.301  40.922  -5.178  1.00  0.00    -0.022 N 
ATOM      6  H4  UNL     1      35.964  40.214  -5.832  1.00  0.00     0.203 HD
HETATM    7  C9  UNL     1      35.694  42.114  -5.120  1.00  0.00     0.707 A 
HETATM    8  N6  UNL     1      36.161  43.031  -4.244  1.00  0.00    -0.022 N 
ATOM      9  H6  UNL     1      35.713  43.946  -4.184  1.00  0.00     0.203 HD
ENDROOT
BRANCH   1  10
HETATM   10  N1  UNL     1      37.660  43.632  -2.610  1.00  0.00    -0.225 N 
ATOM     11  H1  UNL     1      38.484  44.190  -2.834  1.00  0.00     0.177 HD
BRANCH  10  12
HETATM   12  C3  UNL     1      36.966  43.808  -1.333  1.00  0.00     0.137 C 
BRANCH  12  13
HETATM   13  C2  UNL     1      37.795  43.162  -0.239  1.00  0.00     0.016 C 
HETATM   14  C1  UNL     1      37.152  41.932   0.313  1.00  0.00     0.006 C 
ENDBRANCH  12  13
ENDBRANCH  10  12
ENDBRANCH   1  10
BRANCH   4  15
HETATM   15  N3  UNL     1      37.874  39.488  -4.499  1.00  0.00    -0.225 N 
ATOM     16  H3  UNL     1      37.530  38.869  -5.233  1.00  0.00     0.177 HD
BRANCH  15  17
HETATM   17  C6  UNL     1      38.916  39.031  -3.643  1.00  0.00     0.137 C 
BRANCH  17  18
HETATM   18  C7  UNL     1      38.468  37.888  -2.721  1.00  0.00     0.016 C 
HETATM   19  C8  UNL     1      38.100  38.521  -1.400  1.00  0.00     0.006 C 
ENDBRANCH  17  18
ENDBRANCH  15  17
ENDBRANCH   4  15
BRANCH   7  20
HETATM   20  N5  UNL     1      34.676  42.387  -5.888  1.00  0.00    -0.225 N 
ATOM     21  H5  UNL     1      33.745  42.518  -5.493  1.00  0.00     0.177 HD
BRANCH  20  22
HETATM   22  C10 UNL     1      34.895  42.498  -7.295  1.00  0.00     0.137 C 
BRANCH  22  23
HETATM   23  C11 UNL     1      33.671  42.800  -8.084  1.00  0.00     0.016 C 
HETATM   24  C12 UNL     1      33.928  43.217  -9.492  1.00  0.00     0.006 C 
ENDBRANCH  22  23
ENDBRANCH  20  22
ENDBRANCH   7  20
TORSDOF 9
ENDMDL
