MODEL 1
REMARK VINA RESULT: -4.254948090      0.000      0.000
REMARK  0 active torsions:
REMARK  status: ('A' for Active; 'I' for Inactive)
ROOT
HETATM    1  C1  UNL     1      34.069  20.147  60.200  1.00  0.00     0.034 A 
HETATM    2  C2  UNL     1      33.166  19.118  60.242  1.00  0.00     0.090 A 
HETATM    3  N1  UNL     1      33.525  17.927  59.720  1.00  0.00    -0.362 N 
ATOM      4  H1  UNL     1      32.855  17.159  59.750  1.00  0.00     0.165 HD
HETATM    5  C3  UNL     1      34.723  17.712  59.164  1.00  0.00     0.179 A 
HETATM    6  N2  UNL     1      35.585  18.734  59.136  1.00  0.00    -0.362 N 
ATOM      7  H2  UNL     1      36.503  18.585  58.716  1.00  0.00     0.165 HD
HETATM    8  C4  UNL     1      35.301  19.945  59.633  1.00  0.00     0.090 A 
ENDROOT
TORSDOF 0
ENDMDL
MODEL 2
REMARK VINA RESULT: -4.249849866      0.007      1.902
REMARK  0 active torsions:
REMARK  status: ('A' for Active; 'I' for Inactive)
ROOT
HETATM    1  C1  UNL     1      34.069  20.150  60.200  1.00  0.00     0.034 A 
HETATM    2  C2  UNL     1      35.301  19.946  59.634  1.00  0.00     0.090 A 
HETATM    3  N1  UNL     1      35.583  18.726  59.133  1.00  0.00    -0.362 N 
ATOM      4  H1  UNL     1      36.499  18.571  58.712  1.00  0.00     0.165 HD
HETATM    5  C3  UNL     1      34.713  17.710  59.166  1.00  0.00     0.179 A 
HETATM    6  N2  UNL     1      33.518  17.936  59.724  1.00  0.00    -0.362 N 
ATOM      7  H2  UNL     1      32.844  17.171  59.755  1.00  0.00     0.165 HD
HETATM    8  C4  UNL     1      33.165  19.120  60.243  1.00  0.00     0.090 A 
ENDROOT
TORSDOF 0
ENDMDL
MODEL 3
REMARK VINA RESULT: -4.087228447      7.078      8.019
REMARK  0 active torsions:
REMARK  status: ('A' for Active; 'I' for Inactive)
ROOT
HETATM    1  C1  UNL     1      38.735  23.852  55.647  1.00  0.00     0.034 A 
HETATM    2  C2  UNL     1      37.538  23.760  56.306  1.00  0.00     0.090 A 
HETATM    3  N1  UNL     1      36.451  24.329  55.747  1.00  0.00    -0.362 N 
ATOM      4  H1  UNL     1      35.558  24.261  56.235  1.00  0.00     0.165 HD
HETATM    5  C3  UNL     1      36.494  24.978  54.578  1.00  0.00     0.179 A 
HETATM    6  N2  UNL     1      37.676  25.054  53.955  1.00  0.00    -0.362 N 
ATOM      7  H2  UNL     1      37.725  25.545  53.062  1.00  0.00     0.165 HD
HETATM    8  C4  UNL     1      38.798  24.515  54.448  1.00  0.00     0.090 A 
ENDROOT
TORSDOF 0
ENDMDL
MODEL 4
REMARK VINA RESULT: -4.086314320      7.077      8.194
REMARK  0 active torsions:
REMARK  status: ('A' for Active; 'I' for Inactive)
ROOT
HETATM    1  C1  UNL     1      38.734  23.852  55.643  1.00  0.00     0.034 A 
HETATM    2  C2  UNL     1      38.795  24.515  54.445  1.00  0.00     0.090 A 
HETATM    3  N1  UNL     1      37.664  25.058  53.952  1.00  0.00    -0.362 N 
ATOM      4  H1  UNL     1      37.706  25.552  53.061  1.00  0.00     0.165 HD
HETATM    5  C3  UNL     1      36.487  24.976  54.584  1.00  0.00     0.179 A 
HETATM    6  N2  UNL     1      36.454  24.324  55.752  1.00  0.00    -0.362 N 
ATOM      7  H2  UNL     1      35.564  24.254  56.245  1.00  0.00     0.165 HD
HETATM    8  C4  UNL     1      37.536  23.758  56.303  1.00  0.00     0.090 A 
ENDROOT
TORSDOF 0
ENDMDL
MODEL 5
REMARK VINA RESULT: -4.055728346      6.732      7.854
REMARK  0 active torsions:
REMARK  status: ('A' for Active; 'I' for Inactive)
ROOT
HETATM    1  C1  UNL     1      37.456  24.881  54.308  1.00  0.00     0.034 A 
HETATM    2  C2  UNL     1      38.698  24.546  54.779  1.00  0.00     0.090 A 
HETATM    3  N1  UNL     1      38.793  24.000  56.008  1.00  0.00    -0.362 N 
ATOM      4  H1  UNL     1      39.716  23.749  56.361  1.00  0.00     0.165 HD
HETATM    5  C3  UNL     1      37.728  23.773  56.784  1.00  0.00     0.179 A 
HETATM    6  N2  UNL     1      36.526  24.110  56.300  1.00  0.00    -0.362 N 
ATOM      7  H2  UNL     1      35.704  23.942  56.880  1.00  0.00     0.165 HD
HETATM    8  C4  UNL     1      36.353  24.656  55.090  1.00  0.00     0.090 A 
ENDROOT
TORSDOF 0
ENDMDL
