MODEL 1
REMARK VINA RESULT: -3.680156979      0.000      0.000
REMARK  0 active torsions:
REMARK  status: ('A' for Active; 'I' for Inactive)
ROOT
HETATM    1  C1  UNL     1      33.795  20.496  60.437  1.00  0.00    -0.030 A 
HETATM    2  C2  UNL     1      33.042  19.520  60.077  1.00  0.00    -0.030 A 
HETATM    3  C3  UNL     1      34.113  18.826  59.413  1.00  0.00     0.030 A 
HETATM    4  C4  UNL     1      34.972  19.926  59.818  1.00  0.00     0.030 A 
ENDROOT
TORSDOF 0
ENDMDL
MODEL 2
REMARK VINA RESULT: -3.673812073      0.064      1.371
REMARK  0 active torsions:
REMARK  status: ('A' for Active; 'I' for Inactive)
ROOT
HETATM    1  C1  UNL     1      33.014  19.563  60.025  1.00  0.00    -0.030 A 
HETATM    2  C2  UNL     1      33.810  20.480  60.444  1.00  0.00    -0.030 A 
HETATM    3  C3  UNL     1      34.960  19.888  59.812  1.00  0.00     0.030 A 
HETATM    4  C4  UNL     1      34.065  18.848  59.335  1.00  0.00     0.030 A 
ENDROOT
TORSDOF 0
ENDMDL
MODEL 3
REMARK VINA RESULT: -3.643945827      0.173      1.446
REMARK  0 active torsions:
REMARK  status: ('A' for Active; 'I' for Inactive)
ROOT
HETATM    1  C1  UNL     1      34.901  19.917  59.832  1.00  0.00    -0.030 A 
HETATM    2  C2  UNL     1      34.268  18.828  59.578  1.00  0.00    -0.030 A 
HETATM    3  C3  UNL     1      33.046  19.299  60.174  1.00  0.00     0.030 A 
HETATM    4  C4  UNL     1      33.755  20.534  60.464  1.00  0.00     0.030 A 
ENDROOT
TORSDOF 0
ENDMDL
MODEL 4
REMARK VINA RESULT: -3.634299379      0.126      1.988
REMARK  0 active torsions:
REMARK  status: ('A' for Active; 'I' for Inactive)
ROOT
HETATM    1  C1  UNL     1      34.230  18.844  59.495  1.00  0.00    -0.030 A 
HETATM    2  C2  UNL     1      34.901  19.895  59.801  1.00  0.00    -0.030 A 
HETATM    3  C3  UNL     1      33.784  20.523  60.456  1.00  0.00     0.030 A 
HETATM    4  C4  UNL     1      33.018  19.336  60.113  1.00  0.00     0.030 A 
ENDROOT
TORSDOF 0
ENDMDL
MODEL 5
REMARK VINA RESULT: -3.607628255      0.150      1.409
REMARK  0 active torsions:
REMARK  status: ('A' for Active; 'I' for Inactive)
ROOT
HETATM    1  C1  UNL     1      33.829  20.459  60.447  1.00  0.00    -0.030 A 
HETATM    2  C2  UNL     1      34.856  19.956  59.863  1.00  0.00    -0.030 A 
HETATM    3  C3  UNL     1      34.165  18.746  59.504  1.00  0.00     0.030 A 
HETATM    4  C4  UNL     1      32.999  19.309  60.163  1.00  0.00     0.030 A 
ENDROOT
TORSDOF 0
ENDMDL
