MODEL 1
REMARK VINA RESULT: -3.336684952      0.000      0.000
REMARK  1 active torsions:
REMARK  status: ('A' for Active; 'I' for Inactive)
REMARK    1  A    between atoms: O1_1  and  C1_3 
ROOT
HETATM    1  C1  UNL     1      34.950  19.805  60.043  1.00  0.00     0.118 A 
HETATM    2  C2  UNL     1      33.584  19.301  59.623  1.00  0.00     0.034 A 
HETATM    3  C3  UNL     1      33.726  20.533  60.430  1.00  0.00     0.034 A 
ENDROOT
BRANCH   1   4
HETATM    4  O1  UNL     1      35.730  20.257  58.954  1.00  0.00    -0.396 OA
ATOM      5  H1  UNL     1      36.545  19.779  58.858  1.00  0.00     0.210 HD
ENDBRANCH   1   4
TORSDOF 1
ENDMDL
MODEL 2
REMARK VINA RESULT: -3.179573532      1.440      1.931
REMARK  1 active torsions:
REMARK  status: ('A' for Active; 'I' for Inactive)
REMARK    1  A    between atoms: O1_1  and  C1_3 
ROOT
HETATM    1  C1  UNL     1      33.974  20.085  60.477  1.00  0.00     0.118 A 
HETATM    2  C2  UNL     1      35.216  19.688  59.704  1.00  0.00     0.034 A 
HETATM    3  C3  UNL     1      33.916  19.030  59.447  1.00  0.00     0.034 A 
ENDROOT
BRANCH   1   4
HETATM    4  O1  UNL     1      33.533  21.394  60.177  1.00  0.00    -0.396 OA
ATOM      5  H1  UNL     1      33.932  22.055  60.731  1.00  0.00     0.210 HD
ENDBRANCH   1   4
TORSDOF 1
ENDMDL
MODEL 3
REMARK VINA RESULT: -3.152768173      7.686      7.846
REMARK  1 active torsions:
REMARK  status: ('A' for Active; 'I' for Inactive)
REMARK    1  A    between atoms: O1_1  and  C1_3 
ROOT
HETATM    1  C1  UNL     1      37.728  24.588  54.991  1.00  0.00     0.118 A 
HETATM    2  C2  UNL     1      37.142  25.036  53.668  1.00  0.00     0.034 A 
HETATM    3  C3  UNL     1      36.458  25.338  54.945  1.00  0.00     0.034 A 
ENDROOT
BRANCH   1   4
HETATM    4  O1  UNL     1      38.934  25.252  55.314  1.00  0.00    -0.396 OA
ATOM      5  H1  UNL     1      39.003  25.467  56.236  1.00  0.00     0.210 HD
ENDBRANCH   1   4
TORSDOF 1
ENDMDL
MODEL 4
REMARK VINA RESULT: -3.143171284      1.010      1.010
REMARK  1 active torsions:
REMARK  status: ('A' for Active; 'I' for Inactive)
REMARK    1  A    between atoms: O1_1  and  C1_3 
ROOT
HETATM    1  C1  UNL     1      34.512  19.276  59.886  1.00  0.00     0.118 A 
HETATM    2  C2  UNL     1      33.049  19.274  60.281  1.00  0.00     0.034 A 
HETATM    3  C3  UNL     1      33.838  20.525  60.291  1.00  0.00     0.034 A 
ENDROOT
BRANCH   1   4
HETATM    4  O1  UNL     1      34.714  18.991  58.516  1.00  0.00    -0.396 OA
ATOM      5  H1  UNL     1      34.463  18.105  58.282  1.00  0.00     0.210 HD
ENDBRANCH   1   4
TORSDOF 1
ENDMDL
MODEL 5
REMARK VINA RESULT: -3.128044934      7.439      7.690
REMARK  1 active torsions:
REMARK  status: ('A' for Active; 'I' for Inactive)
REMARK    1  A    between atoms: O1_1  and  C1_3 
ROOT
HETATM    1  C1  UNL     1      36.755  25.127  55.041  1.00  0.00     0.118 A 
HETATM    2  C2  UNL     1      37.155  25.053  53.582  1.00  0.00     0.034 A 
HETATM    3  C3  UNL     1      38.081  24.612  54.649  1.00  0.00     0.034 A 
ENDROOT
BRANCH   1   4
HETATM    4  O1  UNL     1      35.714  24.229  55.373  1.00  0.00    -0.396 OA
ATOM      5  H1  UNL     1      35.951  23.320  55.233  1.00  0.00     0.210 HD
ENDBRANCH   1   4
TORSDOF 1
ENDMDL
