MODEL 1
REMARK VINA RESULT: -5.702969934      0.000      0.000
REMARK  1 active torsions:
REMARK  status: ('A' for Active; 'I' for Inactive)
REMARK    1  A    between atoms: C2_2  and  N1_4 
ROOT
HETATM    1  N1  UNL     1      17.407   6.521  13.090  1.00  0.00    -0.361 N 
ATOM      2  H1  UNL     1      17.581   7.062  12.243  1.00  0.00     0.162 HD
HETATM    3  C4  UNL     1      16.815   5.414  12.949  1.00  0.00     0.178 C 
HETATM    4  O1  UNL     1      16.421   4.950  11.725  1.00  0.00    -0.328 OA
HETATM    5  C5  UNL     1      16.011   3.609  11.618  1.00  0.00     0.211 C 
HETATM    6  C6  UNL     1      16.987   2.639  12.247  1.00  0.00     0.084 C 
HETATM    7  C7  UNL     1      16.586   1.255  11.848  1.00  0.00     0.266 C 
HETATM    8  N2  UNL     1      17.659   0.486  11.259  1.00  0.00    -0.068 N 
ATOM      9  H21 UNL     1      17.376  -0.450  10.966  1.00  0.00     0.277 HD
ATOM     10  H22 UNL     1      18.369   0.196  11.932  1.00  0.00     0.277 HD
HETATM   11  C8  UNL     1      18.190   1.304  10.164  1.00  0.00     0.276 C 
HETATM   12  C9  UNL     1      18.942   2.416  10.833  1.00  0.00     0.083 C 
HETATM   13  N3  UNL     1      18.294   3.037  11.917  1.00  0.00    -0.387 N 
ATOM     14  H3  UNL     1      18.766   3.764  12.455  1.00  0.00     0.159 HD
HETATM   15  C10 UNL     1      16.888   2.688  13.781  1.00  0.00     0.117 C 
HETATM   16  S1  UNL     1      16.444   4.368  14.328  1.00  0.00    -0.084 SA
ENDROOT
BRANCH   1  17
HETATM   17  C2  UNL     1      17.856   7.089  14.326  1.00  0.00     0.076 C 
HETATM   18  C1  UNL     1      18.038   8.583  14.256  1.00  0.00     0.032 C 
HETATM   19  C3  UNL     1      19.199   6.480  14.711  1.00  0.00     0.032 C 
ENDBRANCH   1  17
TORSDOF 1
ENDMDL
MODEL 2
REMARK VINA RESULT: -5.646062485      2.559      3.708
REMARK  1 active torsions:
REMARK  status: ('A' for Active; 'I' for Inactive)
REMARK    1  A    between atoms: C2_2  and  N1_4 
ROOT
HETATM    1  N1  UNL     1      16.023   4.495  14.323  1.00  0.00    -0.361 N 
ATOM      2  H1  UNL     1      15.808   5.457  14.588  1.00  0.00     0.162 HD
HETATM    3  C4  UNL     1      16.400   4.300  13.133  1.00  0.00     0.178 C 
HETATM    4  O1  UNL     1      16.519   5.321  12.232  1.00  0.00    -0.328 OA
HETATM    5  C5  UNL     1      17.188   5.070  11.020  1.00  0.00     0.211 C 
HETATM    6  C6  UNL     1      18.528   4.393  11.213  1.00  0.00     0.084 C 
HETATM    7  C7  UNL     1      19.249   4.415   9.903  1.00  0.00     0.266 C 
HETATM    8  N2  UNL     1      20.581   4.972   9.982  1.00  0.00    -0.068 N 
ATOM      9  H21 UNL     1      21.062   5.007   9.083  1.00  0.00     0.277 HD
ATOM     10  H22 UNL     1      21.249   4.364  10.456  1.00  0.00     0.277 HD
HETATM   11  C8  UNL     1      20.434   6.286  10.617  1.00  0.00     0.276 C 
HETATM   12  C9  UNL     1      20.137   5.995  12.058  1.00  0.00     0.083 C 
HETATM   13  N3  UNL     1      19.182   4.991  12.304  1.00  0.00    -0.387 N 
ATOM     14  H3  UNL     1      18.969   4.701  13.259  1.00  0.00     0.159 HD
HETATM   15  C10 UNL     1      18.340   2.910  11.573  1.00  0.00     0.117 C 
HETATM   16  S1  UNL     1      16.806   2.687  12.531  1.00  0.00    -0.084 SA
ENDROOT
BRANCH   1  17
HETATM   17  C2  UNL     1      15.869   3.493  15.337  1.00  0.00     0.076 C 
HETATM   18  C1  UNL     1      14.761   3.805  16.308  1.00  0.00     0.032 C 
HETATM   19  C3  UNL     1      17.161   3.370  16.136  1.00  0.00     0.032 C 
ENDBRANCH   1  17
TORSDOF 1
ENDMDL
MODEL 3
REMARK VINA RESULT: -5.491646428      2.984      4.347
REMARK  1 active torsions:
REMARK  status: ('A' for Active; 'I' for Inactive)
REMARK    1  A    between atoms: C2_2  and  N1_4 
ROOT
HETATM    1  N1  UNL     1      16.471   7.863  13.213  1.00  0.00    -0.361 N 
ATOM      2  H1  UNL     1      16.338   8.561  13.945  1.00  0.00     0.162 HD
HETATM    3  C4  UNL     1      16.999   6.768  13.555  1.00  0.00     0.178 C 
HETATM    4  O1  UNL     1      17.379   6.515  14.844  1.00  0.00    -0.328 OA
HETATM    5  C5  UNL     1      17.712   5.194  15.197  1.00  0.00     0.211 C 
HETATM    6  C6  UNL     1      16.674   4.185  14.758  1.00  0.00     0.084 C 
HETATM    7  C7  UNL     1      16.998   2.877  15.406  1.00  0.00     0.266 C 
HETATM    8  N2  UNL     1      15.889   2.295  16.127  1.00  0.00    -0.068 N 
ATOM      9  H21 UNL     1      16.119   1.414  16.587  1.00  0.00     0.277 HD
ATOM     10  H22 UNL     1      15.155   1.928  15.520  1.00  0.00     0.277 HD
HETATM   11  C8  UNL     1      15.418   3.331  17.052  1.00  0.00     0.276 C 
HETATM   12  C9  UNL     1      14.725   4.343  16.189  1.00  0.00     0.083 C 
HETATM   13  N3  UNL     1      15.396   4.714  15.009  1.00  0.00    -0.387 N 
ATOM     14  H3  UNL     1      14.960   5.356  14.346  1.00  0.00     0.159 HD
HETATM   15  C10 UNL     1      16.758   3.944  13.242  1.00  0.00     0.117 C 
HETATM   16  S1  UNL     1      17.293   5.465  12.394  1.00  0.00    -0.084 SA
ENDROOT
BRANCH   1  17
HETATM   17  C2  UNL     1      16.042   8.219  11.892  1.00  0.00     0.076 C 
HETATM   18  C1  UNL     1      17.036   9.085  11.164  1.00  0.00     0.032 C 
HETATM   19  C3  UNL     1      14.729   8.991  11.971  1.00  0.00     0.032 C 
ENDBRANCH   1  17
TORSDOF 1
ENDMDL
MODEL 4
REMARK VINA RESULT: -5.490822753      3.015      4.767
REMARK  1 active torsions:
REMARK  status: ('A' for Active; 'I' for Inactive)
REMARK    1  A    between atoms: C2_2  and  N1_4 
ROOT
HETATM    1  N1  UNL     1      17.663   4.086  15.539  1.00  0.00    -0.361 N 
ATOM      2  H1  UNL     1      18.463   3.652  15.998  1.00  0.00     0.162 HD
HETATM    3  C4  UNL     1      17.863   5.196  14.969  1.00  0.00     0.178 C 
HETATM    4  O1  UNL     1      19.090   5.799  14.962  1.00  0.00    -0.328 OA
HETATM    5  C5  UNL     1      19.295   6.888  14.095  1.00  0.00     0.211 C 
HETATM    6  C6  UNL     1      18.849   6.608  12.677  1.00  0.00     0.084 C 
HETATM    7  C7  UNL     1      19.349   7.718  11.807  1.00  0.00     0.266 C 
HETATM    8  N2  UNL     1      20.099   7.263  10.658  1.00  0.00    -0.068 N 
ATOM      9  H21 UNL     1      20.458   8.023  10.080  1.00  0.00     0.277 HD
ATOM     10  H22 UNL     1      19.520   6.825   9.941  1.00  0.00     0.277 HD
HETATM   11  C8  UNL     1      21.147   6.382  11.181  1.00  0.00     0.276 C 
HETATM   12  C9  UNL     1      20.436   5.129  11.598  1.00  0.00     0.083 C 
HETATM   13  N3  UNL     1      19.245   5.306  12.327  1.00  0.00    -0.387 N 
ATOM     14  H3  UNL     1      18.679   4.501  12.598  1.00  0.00     0.159 HD
HETATM   15  C10 UNL     1      17.315   6.641  12.573  1.00  0.00     0.117 C 
HETATM   16  S1  UNL     1      16.569   6.067  14.133  1.00  0.00    -0.084 SA
ENDROOT
BRANCH   1  17
HETATM   17  C2  UNL     1      16.417   3.379  15.600  1.00  0.00     0.076 C 
HETATM   18  C1  UNL     1      15.804   3.386  16.976  1.00  0.00     0.032 C 
HETATM   19  C3  UNL     1      16.634   1.924  15.200  1.00  0.00     0.032 C 
ENDBRANCH   1  17
TORSDOF 1
ENDMDL
MODEL 5
REMARK VINA RESULT: -5.443590799      3.015      4.059
REMARK  1 active torsions:
REMARK  status: ('A' for Active; 'I' for Inactive)
REMARK    1  A    between atoms: C2_2  and  N1_4 
ROOT
HETATM    1  N1  UNL     1      16.027   3.637  16.810  1.00  0.00    -0.361 N 
ATOM      2  H1  UNL     1      16.659   2.941  17.209  1.00  0.00     0.162 HD
HETATM    3  C4  UNL     1      16.456   4.300  15.824  1.00  0.00     0.178 C 
HETATM    4  O1  UNL     1      17.706   4.104  15.305  1.00  0.00    -0.328 OA
HETATM    5  C5  UNL     1      18.011   4.685  14.060  1.00  0.00     0.211 C 
HETATM    6  C6  UNL     1      16.965   4.405  13.004  1.00  0.00     0.084 C 
HETATM    7  C7  UNL     1      17.515   4.838  11.682  1.00  0.00     0.266 C 
HETATM    8  N2  UNL     1      17.456   3.813  10.664  1.00  0.00    -0.068 N 
ATOM      9  H21 UNL     1      17.853   4.104   9.770  1.00  0.00     0.277 HD
ATOM     10  H22 UNL     1      16.511   3.629  10.326  1.00  0.00     0.277 HD
HETATM   11  C8  UNL     1      18.112   2.635  11.238  1.00  0.00     0.276 C 
HETATM   12  C9  UNL     1      17.149   2.107  12.260  1.00  0.00     0.083 C 
HETATM   13  N3  UNL     1      16.563   3.063  13.110  1.00  0.00    -0.387 N 
ATOM     14  H3  UNL     1      15.858   2.785  13.794  1.00  0.00     0.159 HD
HETATM   15  C10 UNL     1      15.709   5.258  13.245  1.00  0.00     0.117 C 
HETATM   16  S1  UNL     1      15.475   5.540  15.030  1.00  0.00    -0.084 SA
ENDROOT
BRANCH   1  17
HETATM   17  C2  UNL     1      14.738   3.769  17.422  1.00  0.00     0.076 C 
HETATM   18  C1  UNL     1      14.802   3.802  18.927  1.00  0.00     0.032 C 
HETATM   19  C3  UNL     1      13.859   2.588  17.024  1.00  0.00     0.032 C 
ENDBRANCH   1  17
TORSDOF 1
ENDMDL
