MODEL 1
REMARK VINA RESULT: -5.974482231      0.000      0.000
REMARK  2 active torsions:
REMARK  status: ('A' for Active; 'I' for Inactive)
REMARK    1  A    between atoms: C5_5  and  N2_8 
REMARK    2  A    between atoms: N2_8  and  C7_10 
ROOT
HETATM    1  C1  UNL     1      15.190   6.909  14.331  1.00  0.00     0.026 C 
HETATM    2  C2  UNL     1      16.681   6.605  14.122  1.00  0.00     0.004 C 
HETATM    3  C3  UNL     1      17.416   7.762  14.800  1.00  0.00     0.026 C 
HETATM    4  C4  UNL     1      16.915   6.583  12.648  1.00  0.00     0.067 C 
HETATM    5  C5  UNL     1      17.431   5.227  12.155  1.00  0.00     0.138 C 
HETATM    6  C6  UNL     1      17.513   5.361  10.700  1.00  0.00     0.091 C 
HETATM    7  N1  UNL     1      17.568   5.489   9.530  1.00  0.00    -0.195 NA
HETATM    8  C8  UNL     1      16.429   4.140  12.459  1.00  0.00     0.057 C 
HETATM    9  C9  UNL     1      16.496   3.693  13.895  1.00  0.00     0.078 C 
HETATM   10  S1  UNL     1      17.065   5.068  14.965  1.00  0.00    -0.160 SA
ENDROOT
BRANCH   5  11
HETATM   11  N2  UNL     1      18.735   4.957  12.669  1.00  0.00    -0.201 N 
ATOM     12  H2  UNL     1      18.808   4.182  13.328  1.00  0.00     0.179 HD
BRANCH  11  13
HETATM   13  C7  UNL     1      19.822   5.573  12.398  1.00  0.00     0.711 A 
HETATM   14  N3  UNL     1      20.855   4.988  11.733  1.00  0.00    -0.115 N 
HETATM   15  N4  UNL     1      21.827   5.859  11.601  1.00  0.00    -0.213 N 
ATOM     16  H3  UNL     1      20.871   4.027  11.392  1.00  0.00     0.207 HD
HETATM   17  N5  UNL     1      21.476   7.004  12.156  1.00  0.00    -0.213 N 
ATOM     18  H4  UNL     1      22.719   5.679  11.140  1.00  0.00     0.210 HD
HETATM   19  N6  UNL     1      20.243   6.822  12.643  1.00  0.00    -0.115 N 
ATOM     20  H5  UNL     1      22.032   7.858  12.204  1.00  0.00     0.210 HD
ATOM     21  H6  UNL     1      19.700   7.533  13.132  1.00  0.00     0.207 HD
ENDBRANCH  11  13
ENDBRANCH   5  11
TORSDOF 2
ENDMDL
MODEL 2
REMARK VINA RESULT: -5.846532405      2.971      4.827
REMARK  2 active torsions:
REMARK  status: ('A' for Active; 'I' for Inactive)
REMARK    1  A    between atoms: C5_5  and  N2_8 
REMARK    2  A    between atoms: N2_8  and  C7_10 
ROOT
HETATM    1  C1  UNL     1      19.785   4.876   9.319  1.00  0.00     0.026 C 
HETATM    2  C2  UNL     1      19.612   4.902  10.844  1.00  0.00     0.004 C 
HETATM    3  C3  UNL     1      21.028   5.069  11.397  1.00  0.00     0.026 C 
HETATM    4  C4  UNL     1      19.013   3.592  11.234  1.00  0.00     0.067 C 
HETATM    5  C5  UNL     1      17.651   3.749  11.919  1.00  0.00     0.138 C 
HETATM    6  C6  UNL     1      17.181   2.382  12.142  1.00  0.00     0.091 C 
HETATM    7  N1  UNL     1      16.819   1.273  12.309  1.00  0.00    -0.195 NA
HETATM    8  C8  UNL     1      16.670   4.426  10.993  1.00  0.00     0.057 C 
HETATM    9  C9  UNL     1      16.869   5.918  10.947  1.00  0.00     0.078 C 
HETATM   10  S1  UNL     1      18.623   6.337  11.274  1.00  0.00    -0.160 SA
ENDROOT
BRANCH   5  11
HETATM   11  N2  UNL     1      17.784   4.404  13.181  1.00  0.00    -0.201 N 
ATOM     12  H2  UNL     1      18.540   5.085  13.257  1.00  0.00     0.179 HD
BRANCH  11  13
HETATM   13  C7  UNL     1      17.067   4.236  14.224  1.00  0.00     0.711 A 
HETATM   14  N3  UNL     1      17.544   3.667  15.365  1.00  0.00    -0.115 N 
HETATM   15  N4  UNL     1      16.584   3.629  16.259  1.00  0.00    -0.213 N 
ATOM     16  H3  UNL     1      18.495   3.324  15.502  1.00  0.00     0.207 HD
HETATM   17  N5  UNL     1      15.484   4.154  15.752  1.00  0.00    -0.213 N 
ATOM     18  H4  UNL     1      16.675   3.251  17.202  1.00  0.00     0.210 HD
HETATM   19  N6  UNL     1      15.787   4.525  14.503  1.00  0.00    -0.115 N 
ATOM     20  H5  UNL     1      14.583   4.257  16.219  1.00  0.00     0.210 HD
ATOM     21  H6  UNL     1      15.136   4.967  13.853  1.00  0.00     0.207 HD
ENDBRANCH  11  13
ENDBRANCH   5  11
TORSDOF 2
ENDMDL
MODEL 3
REMARK VINA RESULT: -5.842841930      2.913      4.436
REMARK  2 active torsions:
REMARK  status: ('A' for Active; 'I' for Inactive)
REMARK    1  A    between atoms: C5_5  and  N2_8 
REMARK    2  A    between atoms: N2_8  and  C7_10 
ROOT
HETATM    1  C1  UNL     1      15.513   7.088  15.653  1.00  0.00     0.026 C 
HETATM    2  C2  UNL     1      15.896   6.275  14.408  1.00  0.00     0.004 C 
HETATM    3  C3  UNL     1      14.959   6.776  13.309  1.00  0.00     0.026 C 
HETATM    4  C4  UNL     1      15.653   4.839  14.736  1.00  0.00     0.067 C 
HETATM    5  C5  UNL     1      16.927   3.993  14.650  1.00  0.00     0.138 C 
HETATM    6  C6  UNL     1      16.522   2.656  15.088  1.00  0.00     0.091 C 
HETATM    7  N1  UNL     1      16.176   1.588  15.447  1.00  0.00    -0.195 NA
HETATM    8  C8  UNL     1      17.964   4.499  15.623  1.00  0.00     0.057 C 
HETATM    9  C9  UNL     1      18.684   5.715  15.103  1.00  0.00     0.078 C 
HETATM   10  S1  UNL     1      17.594   6.668  13.979  1.00  0.00    -0.160 SA
ENDROOT
BRANCH   5  11
HETATM   11  N2  UNL     1      17.401   3.915  13.306  1.00  0.00    -0.201 N 
ATOM     12  H2  UNL     1      18.192   4.515  13.071  1.00  0.00     0.179 HD
BRANCH  11  13
HETATM   13  C7  UNL     1      16.949   3.181  12.362  1.00  0.00     0.711 A 
HETATM   14  N3  UNL     1      16.141   3.659  11.377  1.00  0.00    -0.115 N 
HETATM   15  N4  UNL     1      15.840   2.681  10.556  1.00  0.00    -0.213 N 
ATOM     16  H3  UNL     1      15.820   4.624  11.291  1.00  0.00     0.207 HD
HETATM   17  N5  UNL     1      16.421   1.567  10.961  1.00  0.00    -0.213 N 
ATOM     18  H4  UNL     1      15.247   2.768   9.731  1.00  0.00     0.210 HD
HETATM   19  N6  UNL     1      17.101   1.881  12.071  1.00  0.00    -0.115 N 
ATOM     20  H5  UNL     1      16.364   0.650  10.518  1.00  0.00     0.210 HD
ATOM     21  H6  UNL     1      17.657   1.224  12.617  1.00  0.00     0.207 HD
ENDBRANCH  11  13
ENDBRANCH   5  11
TORSDOF 2
ENDMDL
MODEL 4
REMARK VINA RESULT: -5.728932010      2.797      3.782
REMARK  2 active torsions:
REMARK  status: ('A' for Active; 'I' for Inactive)
REMARK    1  A    between atoms: C5_5  and  N2_8 
REMARK    2  A    between atoms: N2_8  and  C7_10 
ROOT
HETATM    1  C1  UNL     1      13.714   2.786  16.670  1.00  0.00     0.026 C 
HETATM    2  C2  UNL     1      14.895   3.752  16.843  1.00  0.00     0.004 C 
HETATM    3  C3  UNL     1      14.968   4.018  18.347  1.00  0.00     0.026 C 
HETATM    4  C4  UNL     1      14.560   4.987  16.074  1.00  0.00     0.067 C 
HETATM    5  C5  UNL     1      15.572   5.278  14.961  1.00  0.00     0.138 C 
HETATM    6  C6  UNL     1      15.041   6.452  14.266  1.00  0.00     0.091 C 
HETATM    7  N1  UNL     1      14.594   7.395  13.719  1.00  0.00    -0.195 NA
HETATM    8  C8  UNL     1      15.610   4.139  13.971  1.00  0.00     0.057 C 
HETATM    9  C9  UNL     1      16.429   2.979  14.473  1.00  0.00     0.078 C 
HETATM   10  S1  UNL     1      16.389   2.915  16.304  1.00  0.00    -0.160 SA
ENDROOT
BRANCH   5  11
HETATM   11  N2  UNL     1      16.852   5.602  15.503  1.00  0.00    -0.201 N 
ATOM     12  H2  UNL     1      16.992   5.384  16.489  1.00  0.00     0.179 HD
BRANCH  11  13
HETATM   13  C7  UNL     1      17.843   6.132  14.895  1.00  0.00     0.711 A 
HETATM   14  N3  UNL     1      19.031   5.491  14.722  1.00  0.00    -0.115 N 
HETATM   15  N4  UNL     1      19.851   6.278  14.066  1.00  0.00    -0.213 N 
ATOM     16  H3  UNL     1      19.249   4.550  15.049  1.00  0.00     0.207 HD
HETATM   17  N5  UNL     1      19.249   7.421  13.797  1.00  0.00    -0.213 N 
ATOM     18  H4  UNL     1      20.809   6.042  13.805  1.00  0.00     0.210 HD
HETATM   19  N6  UNL     1      18.016   7.325  14.308  1.00  0.00    -0.115 N 
ATOM     20  H5  UNL     1      19.644   8.219  13.298  1.00  0.00     0.210 HD
ATOM     21  H6  UNL     1      17.307   8.056  14.258  1.00  0.00     0.207 HD
ENDBRANCH  11  13
ENDBRANCH   5  11
TORSDOF 2
ENDMDL
MODEL 5
REMARK VINA RESULT: -5.685375921      1.410      1.724
REMARK  2 active torsions:
REMARK  status: ('A' for Active; 'I' for Inactive)
REMARK    1  A    between atoms: C5_5  and  N2_8 
REMARK    2  A    between atoms: N2_8  and  C7_10 
ROOT
HETATM    1  C1  UNL     1      15.342   5.143  14.221  1.00  0.00     0.026 C 
HETATM    2  C2  UNL     1      16.798   4.911  13.792  1.00  0.00     0.004 C 
HETATM    3  C3  UNL     1      17.640   5.517  14.915  1.00  0.00     0.026 C 
HETATM    4  C4  UNL     1      16.988   5.634  12.500  1.00  0.00     0.067 C 
HETATM    5  C5  UNL     1      17.383   4.697  11.354  1.00  0.00     0.138 C 
HETATM    6  C6  UNL     1      17.434   5.552  10.168  1.00  0.00     0.091 C 
HETATM    7  N1  UNL     1      17.466   6.257   9.224  1.00  0.00    -0.195 NA
HETATM    8  C8  UNL     1      16.308   3.661  11.126  1.00  0.00     0.057 C 
HETATM    9  C9  UNL     1      16.380   2.539  12.128  1.00  0.00     0.078 C 
HETATM   10  S1  UNL     1      17.085   3.141  13.709  1.00  0.00    -0.160 SA
ENDROOT
BRANCH   5  11
HETATM   11  N2  UNL     1      18.676   4.134  11.574  1.00  0.00    -0.201 N 
ATOM     12  H2  UNL     1      18.699   3.224  12.035  1.00  0.00     0.179 HD
BRANCH  11  13
HETATM   13  C7  UNL     1      19.808   4.637  11.261  1.00  0.00     0.711 A 
HETATM   14  N3  UNL     1      20.621   5.246  12.167  1.00  0.00    -0.115 N 
HETATM   15  N4  UNL     1      21.706   5.661  11.557  1.00  0.00    -0.213 N 
ATOM     16  H3  UNL     1      20.419   5.362  13.160  1.00  0.00     0.207 HD
HETATM   17  N5  UNL     1      21.643   5.348  10.276  1.00  0.00    -0.213 N 
ATOM     18  H4  UNL     1      22.481   6.150  12.005  1.00  0.00     0.210 HD
HETATM   19  N6  UNL     1      20.475   4.719  10.101  1.00  0.00    -0.115 N 
ATOM     20  H5  UNL     1      22.345   5.546   9.563  1.00  0.00     0.210 HD
ATOM     21  H6  UNL     1      20.140   4.353   9.210  1.00  0.00     0.207 HD
ENDBRANCH  11  13
ENDBRANCH   5  11
TORSDOF 2
ENDMDL
