MODEL 1
REMARK VINA RESULT: -6.684470226      0.000      0.000
REMARK  4 active torsions:
REMARK  status: ('A' for Active; 'I' for Inactive)
REMARK    1  A    between atoms: C2_2  and  O2_4 
REMARK    2  A    between atoms: O2_4  and  C3_5 
REMARK    3  A    between atoms: C10_13  and  O4_14 
REMARK    4  A    between atoms: C11_16  and  O5_17 
ROOT
HETATM    1  C3  UNL     1      16.317   4.095  14.758  1.00  0.00     0.169 C 
HETATM    2  C4  UNL     1      15.257   5.149  14.566  1.00  0.00     0.042 C 
HETATM    3  C5  UNL     1      14.573   5.392  15.871  1.00  0.00     0.015 C 
HETATM    4  C6  UNL     1      15.770   6.418  13.978  1.00  0.00     0.124 C 
HETATM    5  C7  UNL     1      14.644   7.434  14.002  1.00  0.00     0.040 C 
HETATM    6  O3  UNL     1      16.789   6.920  14.785  1.00  0.00    -0.378 OA
HETATM    7  C8  UNL     1      17.991   6.643  14.110  1.00  0.00     0.149 C 
HETATM    8  C9  UNL     1      18.925   7.795  14.391  1.00  0.00     0.042 C 
HETATM    9  C10 UNL     1      18.498   5.332  14.615  1.00  0.00     0.178 C 
HETATM   10  C11 UNL     1      17.532   4.583  15.471  1.00  0.00     0.179 C 
ENDROOT
BRANCH   1  11
HETATM   11  O2  UNL     1      16.613   3.444  13.533  1.00  0.00    -0.313 OA
BRANCH  11  12
HETATM   12  C2  UNL     1      16.681   2.062  13.410  1.00  0.00     0.255 C 
HETATM   13  C1  UNL     1      17.012   1.382  12.134  1.00  0.00     0.126 C 
HETATM   14  O1  UNL     1      16.438   1.406  14.479  1.00  0.00    -0.266 OA
ENDBRANCH  11  12
ENDBRANCH   1  11
BRANCH  10  15
HETATM   15  O5  UNL     1      18.207   3.459  15.980  1.00  0.00    -0.390 OA
ATOM     16  H5  UNL     1      17.611   3.010  16.569  1.00  0.00     0.210 HD
ENDBRANCH  10  15
BRANCH   9  17
HETATM   17  O4  UNL     1      19.635   5.598  15.402  1.00  0.00    -0.390 OA
ATOM     18  H4  UNL     1      19.426   5.347  16.294  1.00  0.00     0.210 HD
ENDBRANCH   9  17
TORSDOF 4
ENDMDL
MODEL 2
REMARK VINA RESULT: -6.204923807      2.110      3.834
REMARK  4 active torsions:
REMARK  status: ('A' for Active; 'I' for Inactive)
REMARK    1  A    between atoms: C2_2  and  O2_4 
REMARK    2  A    between atoms: O2_4  and  C3_5 
REMARK    3  A    between atoms: C10_13  and  O4_14 
REMARK    4  A    between atoms: C11_16  and  O5_17 
ROOT
HETATM    1  C3  UNL     1      16.562   3.408  13.203  1.00  0.00     0.169 C 
HETATM    2  C4  UNL     1      17.318   2.752  12.076  1.00  0.00     0.042 C 
HETATM    3  C5  UNL     1      16.390   2.544  10.925  1.00  0.00     0.015 C 
HETATM    4  C6  UNL     1      18.541   3.493  11.660  1.00  0.00     0.124 C 
HETATM    5  C7  UNL     1      19.098   2.819  10.420  1.00  0.00     0.040 C 
HETATM    6  O3  UNL     1      18.190   4.790  11.294  1.00  0.00    -0.378 OA
HETATM    7  C8  UNL     1      18.593   5.617  12.358  1.00  0.00     0.149 C 
HETATM    8  C9  UNL     1      19.046   6.922  11.751  1.00  0.00     0.042 C 
HETATM    9  C10 UNL     1      17.426   5.766  13.278  1.00  0.00     0.178 C 
HETATM   10  C11 UNL     1      16.282   4.855  12.979  1.00  0.00     0.179 C 
ENDROOT
BRANCH   1  11
HETATM   11  O2  UNL     1      17.184   3.147  14.451  1.00  0.00    -0.313 OA
BRANCH  11  12
HETATM   12  C2  UNL     1      16.540   2.491  15.492  1.00  0.00     0.255 C 
HETATM   13  C1  UNL     1      16.051   3.191  16.706  1.00  0.00     0.126 C 
HETATM   14  O1  UNL     1      16.392   1.232  15.336  1.00  0.00    -0.266 OA
ENDBRANCH  11  12
ENDBRANCH   1  11
BRANCH  10  15
HETATM   15  O5  UNL     1      15.223   5.219  13.829  1.00  0.00    -0.390 OA
ATOM     16  H5  UNL     1      14.698   4.442  13.984  1.00  0.00     0.210 HD
ENDBRANCH  10  15
BRANCH   9  17
HETATM   17  O4  UNL     1      16.955   7.086  13.148  1.00  0.00    -0.390 OA
ATOM     18  H4  UNL     1      17.105   7.523  13.978  1.00  0.00     0.210 HD
ENDBRANCH   9  17
TORSDOF 4
ENDMDL
MODEL 3
REMARK VINA RESULT: -6.131447067      1.939      3.786
REMARK  4 active torsions:
REMARK  status: ('A' for Active; 'I' for Inactive)
REMARK    1  A    between atoms: C2_2  and  O2_4 
REMARK    2  A    between atoms: O2_4  and  C3_5 
REMARK    3  A    between atoms: C10_13  and  O4_14 
REMARK    4  A    between atoms: C11_16  and  O5_17 
ROOT
HETATM    1  C3  UNL     1      16.567   4.220  15.558  1.00  0.00     0.169 C 
HETATM    2  C4  UNL     1      16.851   5.504  14.821  1.00  0.00     0.042 C 
HETATM    3  C5  UNL     1      18.278   5.884  15.043  1.00  0.00     0.015 C 
HETATM    4  C6  UNL     1      16.523   5.451  13.370  1.00  0.00     0.124 C 
HETATM    5  C7  UNL     1      17.015   6.737  12.732  1.00  0.00     0.040 C 
HETATM    6  O3  UNL     1      17.228   4.407  12.777  1.00  0.00    -0.378 OA
HETATM    7  C8  UNL     1      16.295   3.376  12.569  1.00  0.00     0.149 C 
HETATM    8  C9  UNL     1      16.683   2.687  11.284  1.00  0.00     0.042 C 
HETATM    9  C10 UNL     1      16.344   2.477  13.761  1.00  0.00     0.178 C 
HETATM   10  C11 UNL     1      17.143   3.010  14.904  1.00  0.00     0.179 C 
ENDROOT
BRANCH   1  11
HETATM   11  O2  UNL     1      15.183   4.094  15.842  1.00  0.00    -0.313 OA
BRANCH  11  12
HETATM   12  C2  UNL     1      14.696   3.336  16.900  1.00  0.00     0.255 C 
HETATM   13  C1  UNL     1      14.754   3.789  18.311  1.00  0.00     0.126 C 
HETATM   14  O1  UNL     1      14.187   2.210  16.575  1.00  0.00    -0.266 OA
ENDBRANCH  11  12
ENDBRANCH   1  11
BRANCH  10  15
HETATM   15  O5  UNL     1      17.213   1.995  15.875  1.00  0.00    -0.390 OA
ATOM     16  H5  UNL     1      16.471   2.104  16.458  1.00  0.00     0.210 HD
ENDBRANCH  10  15
BRANCH   9  17
HETATM   17  O4  UNL     1      16.948   1.274  13.353  1.00  0.00    -0.390 OA
ATOM     18  H4  UNL     1      16.841   0.649  14.061  1.00  0.00     0.210 HD
ENDBRANCH   9  17
TORSDOF 4
ENDMDL
MODEL 4
REMARK VINA RESULT: -6.123447826      1.824      4.768
REMARK  4 active torsions:
REMARK  status: ('A' for Active; 'I' for Inactive)
REMARK    1  A    between atoms: C2_2  and  O2_4 
REMARK    2  A    between atoms: O2_4  and  C3_5 
REMARK    3  A    between atoms: C10_13  and  O4_14 
REMARK    4  A    between atoms: C11_16  and  O5_17 
ROOT
HETATM    1  C3  UNL     1      16.878   5.362  13.147  1.00  0.00     0.169 C 
HETATM    2  C4  UNL     1      16.534   4.666  14.439  1.00  0.00     0.042 C 
HETATM    3  C5  UNL     1      15.078   4.850  14.716  1.00  0.00     0.015 C 
HETATM    4  C6  UNL     1      16.914   3.226  14.467  1.00  0.00     0.124 C 
HETATM    5  C7  UNL     1      16.359   2.620  15.743  1.00  0.00     0.040 C 
HETATM    6  O3  UNL     1      16.301   2.568  13.404  1.00  0.00    -0.378 OA
HETATM    7  C8  UNL     1      17.307   2.356  12.446  1.00  0.00     0.149 C 
HETATM    8  C9  UNL     1      17.010   1.032  11.785  1.00  0.00     0.042 C 
HETATM    9  C10 UNL     1      17.278   3.510  11.498  1.00  0.00     0.178 C 
HETATM   10  C11 UNL     1      16.407   4.642  11.930  1.00  0.00     0.179 C 
ENDROOT
BRANCH   1  11
HETATM   11  O2  UNL     1      18.257   5.692  13.101  1.00  0.00    -0.313 OA
BRANCH  11  12
HETATM   12  C2  UNL     1      18.879   6.470  14.070  1.00  0.00     0.255 C 
HETATM   13  C1  UNL     1      18.724   7.943  14.144  1.00  0.00     0.126 C 
HETATM   14  O1  UNL     1      19.603   5.826  14.904  1.00  0.00    -0.266 OA
ENDBRANCH  11  12
ENDBRANCH   1  11
BRANCH  10  15
HETATM   15  O5  UNL     1      16.372   5.570  10.874  1.00  0.00    -0.390 OA
ATOM     16  H5  UNL     1      17.168   6.089  10.921  1.00  0.00     0.210 HD
ENDBRANCH  10  15
BRANCH   9  17
HETATM   17  O4  UNL     1      16.770   3.034  10.275  1.00  0.00    -0.390 OA
ATOM     18  H4  UNL     1      17.512   2.878   9.702  1.00  0.00     0.210 HD
ENDBRANCH   9  17
TORSDOF 4
ENDMDL
MODEL 5
REMARK VINA RESULT: -6.063311650      2.840      4.298
REMARK  4 active torsions:
REMARK  status: ('A' for Active; 'I' for Inactive)
REMARK    1  A    between atoms: C2_2  and  O2_4 
REMARK    2  A    between atoms: O2_4  and  C3_5 
REMARK    3  A    between atoms: C10_13  and  O4_14 
REMARK    4  A    between atoms: C11_16  and  O5_17 
ROOT
HETATM    1  C3  UNL     1      17.725   3.803  10.837  1.00  0.00     0.169 C 
HETATM    2  C4  UNL     1      18.924   4.716  10.801  1.00  0.00     0.042 C 
HETATM    3  C5  UNL     1      18.716   5.748   9.742  1.00  0.00     0.015 C 
HETATM    4  C6  UNL     1      19.244   5.343  12.114  1.00  0.00     0.124 C 
HETATM    5  C7  UNL     1      20.352   6.355  11.891  1.00  0.00     0.040 C 
HETATM    6  O3  UNL     1      18.133   6.048  12.569  1.00  0.00    -0.378 OA
HETATM    7  C8  UNL     1      17.564   5.263  13.587  1.00  0.00     0.149 C 
HETATM    8  C9  UNL     1      17.013   6.217  14.619  1.00  0.00     0.042 C 
HETATM    9  C10 UNL     1      16.519   4.401  12.959  1.00  0.00     0.178 C 
HETATM   10  C11 UNL     1      16.520   4.416  11.467  1.00  0.00     0.179 C 
ENDROOT
BRANCH   1  11
HETATM   11  O2  UNL     1      18.064   2.543  11.393  1.00  0.00    -0.313 OA
BRANCH  11  12
HETATM   12  C2  UNL     1      17.756   1.338  10.773  1.00  0.00     0.255 C 
HETATM   13  C1  UNL     1      17.964   0.021  11.423  1.00  0.00     0.126 C 
HETATM   14  O1  UNL     1      17.275   1.438   9.594  1.00  0.00    -0.266 OA
ENDBRANCH  11  12
ENDBRANCH   1  11
BRANCH  10  15
HETATM   15  O5  UNL     1      15.399   3.682  11.040  1.00  0.00    -0.390 OA
ATOM     16  H5  UNL     1      15.709   2.839  10.728  1.00  0.00     0.210 HD
ENDBRANCH  10  15
BRANCH   9  17
HETATM   17  O4  UNL     1      15.267   4.885  13.382  1.00  0.00    -0.390 OA
ATOM     18  H4  UNL     1      14.856   4.199  13.894  1.00  0.00     0.210 HD
ENDBRANCH   9  17
TORSDOF 4
ENDMDL
