MODEL 1
REMARK VINA RESULT: -5.805541035      0.000      0.000
REMARK  2 active torsions:
REMARK  status: ('A' for Active; 'I' for Inactive)
REMARK    1  A    between atoms: S1_2  and  C2_3 
REMARK    2  A    between atoms: C8_13  and  N3_14 
ROOT
HETATM    1  C2  UNL     1      16.820   3.626  13.476  1.00  0.00     0.274 C 
HETATM    2  C3  UNL     1      16.696   2.592  14.554  1.00  0.00     0.346 C 
HETATM    3  N1  UNL     1      16.553   3.160  15.846  1.00  0.00     0.100 N 
HETATM    4  C4  UNL     1      15.556   2.482  16.658  1.00  0.00     0.275 A 
HETATM    5  C5  UNL     1      14.810   3.775  16.730  1.00  0.00     0.068 A 
HETATM    6  C6  UNL     1      15.957   4.420  15.956  1.00  0.00     0.258 A 
HETATM    7  C7  UNL     1      15.581   5.148  14.738  1.00  0.00     0.259 C 
HETATM    8  N2  UNL     1      15.598   4.400  13.518  1.00  0.00    -0.028 N 
ATOM      9  H21 UNL     1      14.764   3.823  13.400  1.00  0.00     0.281 HD
ATOM     10  H22 UNL     1      15.477   4.989  12.694  1.00  0.00     0.281 HD
HETATM   11  C8  UNL     1      16.545   6.326  14.522  1.00  0.00     0.261 C 
HETATM   12  C9  UNL     1      17.863   5.665  14.238  1.00  0.00     0.013 C 
HETATM   13  C10 UNL     1      19.075   6.475  14.524  1.00  0.00     0.065 C 
HETATM   14  N4  UNL     1      17.924   4.478  13.780  1.00  0.00    -0.353 N 
ATOM     15  H4  UNL     1      18.855   4.098  13.613  1.00  0.00     0.162 HD
ENDROOT
BRANCH  11  16
HETATM   16  N3  UNL     1      16.105   7.156  13.428  1.00  0.00    -0.068 N 
ATOM     17  H33 UNL     1      16.353   6.753  12.525  1.00  0.00     0.275 HD
ATOM     18  H32 UNL     1      15.090   7.143  13.329  1.00  0.00     0.275 HD
ATOM     19  H31 UNL     1      16.461   8.107  13.528  1.00  0.00     0.275 HD
ENDBRANCH  11  16
BRANCH   1  20
HETATM   20  S1  UNL     1      17.086   2.874  11.858  1.00  0.00    -0.112 SA
HETATM   21  C1  UNL     1      17.015   1.063  11.920  1.00  0.00     0.094 C 
ENDBRANCH   1  20
TORSDOF 2
ENDMDL
MODEL 2
REMARK VINA RESULT: -5.529223843      1.405      3.903
REMARK  2 active torsions:
REMARK  status: ('A' for Active; 'I' for Inactive)
REMARK    1  A    between atoms: S1_2  and  C2_3 
REMARK    2  A    between atoms: C8_13  and  N3_14 
ROOT
HETATM    1  C2  UNL     1      16.723   5.068  12.709  1.00  0.00     0.274 C 
HETATM    2  C3  UNL     1      16.724   6.501  12.270  1.00  0.00     0.346 C 
HETATM    3  N1  UNL     1      16.870   7.407  13.351  1.00  0.00     0.100 N 
HETATM    4  C4  UNL     1      17.780   8.502  13.058  1.00  0.00     0.275 A 
HETATM    5  C5  UNL     1      18.627   8.036  14.197  1.00  0.00     0.068 A 
HETATM    6  C6  UNL     1      17.564   6.980  14.488  1.00  0.00     0.258 A 
HETATM    7  C7  UNL     1      18.040   5.593  14.561  1.00  0.00     0.259 C 
HETATM    8  N2  UNL     1      18.003   4.841  13.345  1.00  0.00    -0.028 N 
ATOM      9  H21 UNL     1      18.789   5.051  12.729  1.00  0.00     0.281 HD
ATOM     10  H22 UNL     1      18.199   3.851  13.489  1.00  0.00     0.281 HD
HETATM   11  C8  UNL     1      17.185   4.807  15.569  1.00  0.00     0.261 C 
HETATM   12  C9  UNL     1      15.827   4.762  14.929  1.00  0.00     0.013 C 
HETATM   13  C10 UNL     1      14.677   4.571  15.850  1.00  0.00     0.065 C 
HETATM   14  N4  UNL     1      15.684   4.882  13.668  1.00  0.00    -0.353 N 
ATOM     15  H4  UNL     1      14.730   4.841  13.310  1.00  0.00     0.162 HD
ENDROOT
BRANCH  11  16
HETATM   16  N3  UNL     1      17.728   3.489  15.786  1.00  0.00    -0.068 N 
ATOM     17  H33 UNL     1      18.038   3.060  14.915  1.00  0.00     0.275 HD
ATOM     18  H32 UNL     1      18.627   3.527  16.267  1.00  0.00     0.275 HD
ATOM     19  H31 UNL     1      17.061   2.898  16.281  1.00  0.00     0.275 HD
ENDBRANCH  11  16
BRANCH   1  20
HETATM   20  S1  UNL     1      16.450   3.946  11.322  1.00  0.00    -0.112 SA
HETATM   21  C1  UNL     1      16.668   2.208  11.790  1.00  0.00     0.094 C 
ENDBRANCH   1  20
TORSDOF 2
ENDMDL
MODEL 3
REMARK VINA RESULT: -5.427489600      2.166      4.177
REMARK  2 active torsions:
REMARK  status: ('A' for Active; 'I' for Inactive)
REMARK    1  A    between atoms: S1_2  and  C2_3 
REMARK    2  A    between atoms: C8_13  and  N3_14 
ROOT
HETATM    1  C2  UNL     1      17.050   3.816  12.154  1.00  0.00     0.274 C 
HETATM    2  C3  UNL     1      16.828   4.473  10.826  1.00  0.00     0.346 C 
HETATM    3  N1  UNL     1      16.843   5.889  10.904  1.00  0.00     0.100 N 
HETATM    4  C4  UNL     1      17.571   6.512   9.811  1.00  0.00     0.275 A 
HETATM    5  C5  UNL     1      18.490   7.105  10.829  1.00  0.00     0.068 A 
HETATM    6  C6  UNL     1      17.604   6.492  11.911  1.00  0.00     0.258 A 
HETATM    7  C7  UNL     1      18.288   5.647  12.899  1.00  0.00     0.259 C 
HETATM    8  N2  UNL     1      18.355   4.249  12.604  1.00  0.00    -0.028 N 
ATOM      9  H21 UNL     1      19.095   4.024  11.938  1.00  0.00     0.281 HD
ATOM     10  H22 UNL     1      18.703   3.698  13.390  1.00  0.00     0.281 HD
HETATM   11  C8  UNL     1      17.572   5.759  14.255  1.00  0.00     0.261 C 
HETATM   12  C9  UNL     1      16.232   5.129  14.006  1.00  0.00     0.013 C 
HETATM   13  C10 UNL     1      15.133   5.553  14.912  1.00  0.00     0.065 C 
HETATM   14  N4  UNL     1      16.060   4.282  13.070  1.00  0.00    -0.353 N 
ATOM     15  H4  UNL     1      15.121   3.899  12.964  1.00  0.00     0.162 HD
ENDROOT
BRANCH  11  16
HETATM   16  N3  UNL     1      18.313   5.073  15.285  1.00  0.00    -0.068 N 
ATOM     17  H33 UNL     1      17.805   5.056  16.168  1.00  0.00     0.275 HD
ATOM     18  H32 UNL     1      18.356   4.069  15.113  1.00  0.00     0.275 HD
ATOM     19  H31 UNL     1      19.244   5.476  15.392  1.00  0.00     0.275 HD
ENDBRANCH  11  16
BRANCH   1  20
HETATM   20  S1  UNL     1      16.940   2.019  12.036  1.00  0.00    -0.112 SA
HETATM   21  C1  UNL     1      17.588   1.392  10.463  1.00  0.00     0.094 C 
ENDBRANCH   1  20
TORSDOF 2
ENDMDL
MODEL 4
REMARK VINA RESULT: -5.340129519      2.192      2.591
REMARK  2 active torsions:
REMARK  status: ('A' for Active; 'I' for Inactive)
REMARK    1  A    between atoms: S1_2  and  C2_3 
REMARK    2  A    between atoms: C8_13  and  N3_14 
ROOT
HETATM    1  C2  UNL     1      17.114   2.914  11.960  1.00  0.00     0.274 C 
HETATM    2  C3  UNL     1      16.880   2.678  13.421  1.00  0.00     0.346 C 
HETATM    3  N1  UNL     1      17.161   3.820  14.214  1.00  0.00     0.100 N 
HETATM    4  C4  UNL     1      16.173   4.048  15.255  1.00  0.00     0.275 A 
HETATM    5  C5  UNL     1      15.890   5.372  14.625  1.00  0.00     0.068 A 
HETATM    6  C6  UNL     1      17.015   5.084  13.634  1.00  0.00     0.258 A 
HETATM    7  C7  UNL     1      16.662   5.188  12.213  1.00  0.00     0.259 C 
HETATM    8  N2  UNL     1      16.220   3.986  11.577  1.00  0.00    -0.028 N 
ATOM      9  H21 UNL     1      15.243   3.772  11.777  1.00  0.00     0.281 HD
ATOM     10  H22 UNL     1      16.136   4.084  10.565  1.00  0.00     0.281 HD
HETATM   11  C8  UNL     1      17.884   5.664  11.412  1.00  0.00     0.261 C 
HETATM   12  C9  UNL     1      18.857   4.527  11.531  1.00  0.00     0.013 C 
HETATM   13  C10 UNL     1      20.291   4.871  11.351  1.00  0.00     0.065 C 
HETATM   14  N4  UNL     1      18.462   3.339  11.772  1.00  0.00    -0.353 N 
ATOM     15  H4  UNL     1      19.183   2.621  11.839  1.00  0.00     0.162 HD
ENDROOT
BRANCH  11  16
HETATM   16  N3  UNL     1      17.527   5.934  10.041  1.00  0.00    -0.068 N 
ATOM     17  H33 UNL     1      17.180   5.099   9.570  1.00  0.00     0.275 HD
ATOM     18  H32 UNL     1      16.686   6.508   9.976  1.00  0.00     0.275 HD
ATOM     19  H31 UNL     1      18.308   6.354   9.538  1.00  0.00     0.275 HD
ENDBRANCH  11  16
BRANCH   1  20
HETATM   20  S1  UNL     1      16.829   1.419  10.989  1.00  0.00    -0.112 SA
HETATM   21  C1  UNL     1      17.945   0.070  11.459  1.00  0.00     0.094 C 
ENDBRANCH   1  20
TORSDOF 2
ENDMDL
MODEL 5
REMARK VINA RESULT: -5.308618042      3.146      4.226
REMARK  2 active torsions:
REMARK  status: ('A' for Active; 'I' for Inactive)
REMARK    1  A    between atoms: S1_2  and  C2_3 
REMARK    2  A    between atoms: C8_13  and  N3_14 
ROOT
HETATM    1  C2  UNL     1      19.278   4.601  10.915  1.00  0.00     0.274 C 
HETATM    2  C3  UNL     1      19.264   3.102  10.895  1.00  0.00     0.346 C 
HETATM    3  N1  UNL     1      18.158   2.553  11.593  1.00  0.00     0.100 N 
HETATM    4  C4  UNL     1      17.544   1.434  10.898  1.00  0.00     0.275 A 
HETATM    5  C5  UNL     1      16.277   2.225  10.850  1.00  0.00     0.068 A 
HETATM    6  C6  UNL     1      16.981   3.304  11.670  1.00  0.00     0.258 A 
HETATM    7  C7  UNL     1      16.954   4.660  11.107  1.00  0.00     0.259 C 
HETATM    8  N2  UNL     1      18.054   5.023  10.268  1.00  0.00    -0.028 N 
ATOM      9  H21 UNL     1      17.964   4.655   9.321  1.00  0.00     0.281 HD
ATOM     10  H22 UNL     1      18.057   6.016  10.032  1.00  0.00     0.281 HD
HETATM   11  C8  UNL     1      16.933   5.691  12.246  1.00  0.00     0.261 C 
HETATM   12  C9  UNL     1      18.272   5.527  12.904  1.00  0.00     0.013 C 
HETATM   13  C10 UNL     1      18.361   5.961  14.322  1.00  0.00     0.065 C 
HETATM   14  N4  UNL     1      19.267   5.042  12.272  1.00  0.00    -0.353 N 
ATOM     15  H4  UNL     1      20.143   4.962  12.787  1.00  0.00     0.162 HD
ENDROOT
BRANCH  11  16
HETATM   16  N3  UNL     1      16.740   7.024  11.729  1.00  0.00    -0.068 N 
ATOM     17  H33 UNL     1      16.179   7.021  10.877  1.00  0.00     0.275 HD
ATOM     18  H32 UNL     1      16.116   7.572  12.321  1.00  0.00     0.275 HD
ATOM     19  H31 UNL     1      17.634   7.493  11.589  1.00  0.00     0.275 HD
ENDBRANCH  11  16
BRANCH   1  20
HETATM   20  S1  UNL     1      20.740   5.265  10.093  1.00  0.00    -0.112 SA
HETATM   21  C1  UNL     1      20.503   5.441   8.304  1.00  0.00     0.094 C 
ENDBRANCH   1  20
TORSDOF 2
ENDMDL
