MODEL 1
REMARK VINA RESULT: -6.445108644      0.000      0.000
REMARK  4 active torsions:
REMARK  status: ('A' for Active; 'I' for Inactive)
REMARK    1  A    between atoms: O1_2  and  C2_3 
REMARK    2  A    between atoms: C2_3  and  C3_5 
REMARK    3  A    between atoms: C9_11  and  O3_12 
REMARK    4  A    between atoms: N1_15  and  O4_17 
ROOT
HETATM    1  C3  UNL     1      16.697   4.295  14.805  1.00  0.00     0.091 C 
HETATM    2  C4  UNL     1      18.068   4.717  15.200  1.00  0.00     0.026 C 
HETATM    3  C5  UNL     1      18.411   6.137  15.064  1.00  0.00     0.002 C 
HETATM    4  C6  UNL     1      17.744   6.914  13.985  1.00  0.00     0.005 C 
HETATM    5  C7  UNL     1      16.532   6.262  13.398  1.00  0.00    -0.010 C 
HETATM    6  C8  UNL     1      16.942   5.419  12.243  1.00  0.00     0.042 C 
HETATM    7  C9  UNL     1      16.553   3.993  12.296  1.00  0.00     0.167 C 
HETATM    8  C10 UNL     1      16.691   3.390  13.637  1.00  0.00     0.057 C 
HETATM    9  N1  UNL     1      16.797   2.117  13.706  1.00  0.00    -0.274 N 
ATOM     10  H1  UNL     1      16.893   1.688  14.626  1.00  0.00     0.193 HD
HETATM   11  C11 UNL     1      15.839   5.509  14.503  1.00  0.00     0.030 C 
ENDROOT
BRANCH   1  12
HETATM   12  C2  UNL     1      16.010   3.560  15.915  1.00  0.00     0.273 C 
HETATM   13  O2  UNL     1      16.588   2.687  16.617  1.00  0.00    -0.264 OA
BRANCH  12  14
HETATM   14  O1  UNL     1      14.676   3.808  16.232  1.00  0.00    -0.326 OA
HETATM   15  C1  UNL     1      13.930   2.919  17.009  1.00  0.00     0.213 C 
ENDBRANCH  12  14
ENDBRANCH   1  12
BRANCH   7  16
HETATM   16  O3  UNL     1      15.262   3.739  11.840  1.00  0.00    -0.390 OA
ATOM     17  H3  UNL     1      15.092   4.061  10.963  1.00  0.00     0.210 HD
ENDBRANCH   7  16
BRANCH   9  18
HETATM   18  O4  UNL     1      16.788   1.302  12.602  1.00  0.00    -0.290 OA
ATOM     19  H4  UNL     1      17.026   0.383  12.633  1.00  0.00     0.244 HD
ENDBRANCH   9  18
TORSDOF 4
ENDMDL
MODEL 2
REMARK VINA RESULT: -6.334305710      2.223      3.622
REMARK  4 active torsions:
REMARK  status: ('A' for Active; 'I' for Inactive)
REMARK    1  A    between atoms: O1_2  and  C2_3 
REMARK    2  A    between atoms: C2_3  and  C3_5 
REMARK    3  A    between atoms: C9_11  and  O3_12 
REMARK    4  A    between atoms: N1_15  and  O4_17 
ROOT
HETATM    1  C3  UNL     1      16.335   4.175  15.073  1.00  0.00     0.091 C 
HETATM    2  C4  UNL     1      15.800   3.942  16.442  1.00  0.00     0.026 C 
HETATM    3  C5  UNL     1      14.457   4.453  16.745  1.00  0.00     0.002 C 
HETATM    4  C6  UNL     1      14.000   5.677  16.034  1.00  0.00     0.005 C 
HETATM    5  C7  UNL     1      14.805   6.039  14.826  1.00  0.00    -0.010 C 
HETATM    6  C8  UNL     1      15.911   6.947  15.231  1.00  0.00     0.042 C 
HETATM    7  C9  UNL     1      17.282   6.515  14.880  1.00  0.00     0.167 C 
HETATM    8  C10 UNL     1      17.513   5.068  15.064  1.00  0.00     0.057 C 
HETATM    9  N1  UNL     1      18.721   4.674  15.204  1.00  0.00    -0.274 N 
ATOM     10  H1  UNL     1      18.895   3.677  15.332  1.00  0.00     0.193 HD
HETATM   11  C11 UNL     1      15.258   4.757  14.178  1.00  0.00     0.030 C 
ENDROOT
BRANCH   1  12
HETATM   12  C2  UNL     1      16.769   2.894  14.431  1.00  0.00     0.273 C 
HETATM   13  O2  UNL     1      16.487   1.761  14.907  1.00  0.00    -0.264 OA
BRANCH  12  14
HETATM   14  O1  UNL     1      17.517   2.888  13.256  1.00  0.00    -0.326 OA
HETATM   15  C1  UNL     1      17.109   2.171  12.129  1.00  0.00     0.213 C 
ENDBRANCH  12  14
ENDBRANCH   1  12
BRANCH   7  16
HETATM   16  O3  UNL     1      17.669   6.852  13.586  1.00  0.00    -0.390 OA
ATOM     17  H3  UNL     1      16.950   6.908  12.969  1.00  0.00     0.210 HD
ENDBRANCH   7  16
BRANCH   9  18
HETATM   18  O4  UNL     1      19.796   5.528  15.190  1.00  0.00    -0.290 OA
ATOM     19  H4  UNL     1      20.678   5.249  14.976  1.00  0.00     0.244 HD
ENDBRANCH   9  18
TORSDOF 4
ENDMDL
MODEL 3
REMARK VINA RESULT: -6.310136390      0.630      1.009
REMARK  4 active torsions:
REMARK  status: ('A' for Active; 'I' for Inactive)
REMARK    1  A    between atoms: O1_2  and  C2_3 
REMARK    2  A    between atoms: C2_3  and  C3_5 
REMARK    3  A    between atoms: C9_11  and  O3_12 
REMARK    4  A    between atoms: N1_15  and  O4_17 
ROOT
HETATM    1  C3  UNL     1      16.564   4.727  14.647  1.00  0.00     0.091 C 
HETATM    2  C4  UNL     1      17.906   5.159  15.123  1.00  0.00     0.026 C 
HETATM    3  C5  UNL     1      18.336   6.525  14.802  1.00  0.00     0.002 C 
HETATM    4  C6  UNL     1      17.829   7.138  13.544  1.00  0.00     0.005 C 
HETATM    5  C7  UNL     1      16.653   6.441  12.936  1.00  0.00    -0.010 C 
HETATM    6  C8  UNL     1      17.138   5.407  11.983  1.00  0.00     0.042 C 
HETATM    7  C9  UNL     1      16.670   4.023  12.218  1.00  0.00     0.167 C 
HETATM    8  C10 UNL     1      16.633   3.644  13.644  1.00  0.00     0.057 C 
HETATM    9  N1  UNL     1      16.664   2.397  13.927  1.00  0.00    -0.274 N 
ATOM     10  H1  UNL     1      16.639   2.121  14.909  1.00  0.00     0.193 HD
HETATM   11  C11 UNL     1      15.808   5.905  14.061  1.00  0.00     0.030 C 
ENDROOT
BRANCH   1  12
HETATM   12  C2  UNL     1      15.725   4.209  15.775  1.00  0.00     0.273 C 
HETATM   13  O2  UNL     1      14.525   4.555  15.950  1.00  0.00    -0.264 OA
BRANCH  12  14
HETATM   14  O1  UNL     1      16.236   3.304  16.702  1.00  0.00    -0.326 OA
HETATM   15  C1  UNL     1      15.402   2.466  17.446  1.00  0.00     0.213 C 
ENDBRANCH  12  14
ENDBRANCH   1  12
BRANCH   7  16
HETATM   16  O3  UNL     1      15.423   3.744  11.665  1.00  0.00    -0.390 OA
ATOM     17  H3  UNL     1      14.937   4.515  11.400  1.00  0.00     0.210 HD
ENDBRANCH   7  16
BRANCH   9  18
HETATM   18  O4  UNL     1      16.728   1.412  12.972  1.00  0.00    -0.290 OA
ATOM     19  H4  UNL     1      15.978   0.888  12.717  1.00  0.00     0.244 HD
ENDBRANCH   9  18
TORSDOF 4
ENDMDL
MODEL 4
REMARK VINA RESULT: -6.199387326      2.070      3.882
REMARK  4 active torsions:
REMARK  status: ('A' for Active; 'I' for Inactive)
REMARK    1  A    between atoms: O1_2  and  C2_3 
REMARK    2  A    between atoms: C2_3  and  C3_5 
REMARK    3  A    between atoms: C9_11  and  O3_12 
REMARK    4  A    between atoms: N1_15  and  O4_17 
ROOT
HETATM    1  C3  UNL     1      16.106   5.078  14.266  1.00  0.00     0.091 C 
HETATM    2  C4  UNL     1      14.822   4.916  15.000  1.00  0.00     0.026 C 
HETATM    3  C5  UNL     1      14.873   4.324  16.342  1.00  0.00     0.002 C 
HETATM    4  C6  UNL     1      15.951   3.338  16.628  1.00  0.00     0.005 C 
HETATM    5  C7  UNL     1      17.077   3.335  15.643  1.00  0.00    -0.010 C 
HETATM    6  C8  UNL     1      16.773   2.365  14.557  1.00  0.00     0.042 C 
HETATM    7  C9  UNL     1      16.784   2.897  13.176  1.00  0.00     0.167 C 
HETATM    8  C10 UNL     1      16.181   4.239  13.052  1.00  0.00     0.057 C 
HETATM    9  N1  UNL     1      15.760   4.595  11.898  1.00  0.00    -0.274 N 
ATOM     10  H1  UNL     1      15.341   5.520  11.799  1.00  0.00     0.193 HD
HETATM   11  C11 UNL     1      17.276   4.753  15.174  1.00  0.00     0.030 C 
ENDROOT
BRANCH   1  12
HETATM   12  C2  UNL     1      16.303   6.493  13.817  1.00  0.00     0.273 C 
HETATM   13  O2  UNL     1      15.346   7.296  13.644  1.00  0.00    -0.264 OA
BRANCH  12  14
HETATM   14  O1  UNL     1      17.575   7.003  13.563  1.00  0.00    -0.326 OA
HETATM   15  C1  UNL     1      17.978   8.246  14.055  1.00  0.00     0.213 C 
ENDBRANCH  12  14
ENDBRANCH   1  12
BRANCH   7  16
HETATM   16  O3  UNL     1      18.047   2.936  12.593  1.00  0.00    -0.390 OA
ATOM     17  H3  UNL     1      18.108   3.511  11.840  1.00  0.00     0.210 HD
ENDBRANCH   7  16
BRANCH   9  18
HETATM   18  O4  UNL     1      15.844   3.792  10.788  1.00  0.00    -0.290 OA
ATOM     19  H4  UNL     1      15.252   3.865  10.049  1.00  0.00     0.244 HD
ENDBRANCH   9  18
TORSDOF 4
ENDMDL
MODEL 5
REMARK VINA RESULT: -6.184542020      2.137      3.844
REMARK  4 active torsions:
REMARK  status: ('A' for Active; 'I' for Inactive)
REMARK    1  A    between atoms: O1_2  and  C2_3 
REMARK    2  A    between atoms: C2_3  and  C3_5 
REMARK    3  A    between atoms: C9_11  and  O3_12 
REMARK    4  A    between atoms: N1_15  and  O4_17 
ROOT
HETATM    1  C3  UNL     1      16.199   5.163  14.246  1.00  0.00     0.091 C 
HETATM    2  C4  UNL     1      14.893   5.048  14.950  1.00  0.00     0.026 C 
HETATM    3  C5  UNL     1      14.887   4.429  16.281  1.00  0.00     0.002 C 
HETATM    4  C6  UNL     1      15.911   3.389  16.570  1.00  0.00     0.005 C 
HETATM    5  C7  UNL     1      17.057   3.351  15.608  1.00  0.00    -0.010 C 
HETATM    6  C8  UNL     1      16.732   2.417  14.497  1.00  0.00     0.042 C 
HETATM    7  C9  UNL     1      16.797   2.973  13.128  1.00  0.00     0.167 C 
HETATM    8  C10 UNL     1      16.261   4.344  13.018  1.00  0.00     0.057 C 
HETATM    9  N1  UNL     1      15.882   4.742  11.863  1.00  0.00    -0.274 N 
ATOM     10  H1  UNL     1      15.509   5.687  11.773  1.00  0.00     0.193 HD
HETATM   11  C11 UNL     1      17.333   4.766  15.172  1.00  0.00     0.030 C 
ENDROOT
BRANCH   1  12
HETATM   12  C2  UNL     1      16.472   6.576  13.829  1.00  0.00     0.273 C 
HETATM   13  O2  UNL     1      17.546   7.175  14.107  1.00  0.00    -0.264 OA
BRANCH  12  14
HETATM   14  O1  UNL     1      15.538   7.311  13.102  1.00  0.00    -0.326 OA
HETATM   15  C1  UNL     1      15.924   8.348  12.249  1.00  0.00     0.213 C 
ENDBRANCH  12  14
ENDBRANCH   1  12
BRANCH   7  16
HETATM   16  O3  UNL     1      18.074   2.964  12.573  1.00  0.00    -0.390 OA
ATOM     17  H3  UNL     1      18.293   2.158  12.120  1.00  0.00     0.210 HD
ENDBRANCH   7  16
BRANCH   9  18
HETATM   18  O4  UNL     1      15.953   3.957  10.739  1.00  0.00    -0.290 OA
ATOM     19  H4  UNL     1      15.338   4.026  10.018  1.00  0.00     0.244 HD
ENDBRANCH   9  18
TORSDOF 4
ENDMDL
