MODEL 1
REMARK VINA RESULT: -6.904858446      0.000      0.000
REMARK  4 active torsions:
REMARK  status: ('A' for Active; 'I' for Inactive)
REMARK    1  A    between atoms: C2_2  and  O1_3 
REMARK    2  A    between atoms: O1_3  and  C3_4 
REMARK    3  A    between atoms: C9_10  and  O2_11 
REMARK    4  A    between atoms: C10_14  and  O4_15 
ROOT
HETATM    1  C3  UNL     1      16.879   4.155  13.271  1.00  0.00     0.139 C 
HETATM    2  C4  UNL     1      16.320   4.429  14.648  1.00  0.00     0.071 C 
HETATM    3  C5  UNL     1      15.475   5.641  14.729  1.00  0.00     0.016 C 
HETATM    4  C6  UNL     1      15.987   6.825  13.965  1.00  0.00    -0.013 C 
HETATM    5  C7  UNL     1      16.983   7.639  14.736  1.00  0.00     0.010 C 
HETATM    6  C8  UNL     1      18.405   7.303  14.418  1.00  0.00     0.069 C 
HETATM    7  C9  UNL     1      18.585   5.834  14.029  1.00  0.00     0.170 C 
HETATM    8  O3  UNL     1      18.590   5.090  15.148  1.00  0.00    -0.325 OA
HETATM    9  C10 UNL     1      17.467   4.505  15.591  1.00  0.00     0.267 C 
HETATM   10  C11 UNL     1      17.670   5.418  12.931  1.00  0.00     0.078 C 
HETATM   11  C12 UNL     1      16.597   6.469  12.641  1.00  0.00     0.017 C 
ENDROOT
BRANCH   1  12
HETATM   12  O1  UNL     1      15.879   4.006  12.335  1.00  0.00    -0.385 OA
BRANCH  12  13
HETATM   13  C2  UNL     1      16.181   3.037  11.380  1.00  0.00     0.163 C 
HETATM   14  C1  UNL     1      16.889   1.885  12.046  1.00  0.00     0.033 C 
ENDBRANCH  12  13
ENDBRANCH   1  12
BRANCH   9  15
HETATM   15  O4  UNL     1      17.778   3.181  15.978  1.00  0.00    -0.371 OA
ATOM     16  H4  UNL     1      16.955   2.721  16.092  1.00  0.00     0.212 HD
ENDBRANCH   9  15
BRANCH   7  17
HETATM   17  O2  UNL     1      19.896   5.781  13.490  1.00  0.00    -0.365 OA
ATOM     18  H2  UNL     1      20.382   5.262  14.120  1.00  0.00     0.213 HD
ENDBRANCH   7  17
TORSDOF 4
ENDMDL
MODEL 2
REMARK VINA RESULT: -6.421941801      2.014      3.609
REMARK  4 active torsions:
REMARK  status: ('A' for Active; 'I' for Inactive)
REMARK    1  A    between atoms: C2_2  and  O1_3 
REMARK    2  A    between atoms: O1_3  and  C3_4 
REMARK    3  A    between atoms: C9_10  and  O2_11 
REMARK    4  A    between atoms: C10_14  and  O4_15 
ROOT
HETATM    1  C3  UNL     1      15.238   3.947  15.277  1.00  0.00     0.139 C 
HETATM    2  C4  UNL     1      16.623   3.426  15.587  1.00  0.00     0.071 C 
HETATM    3  C5  UNL     1      17.646   4.484  15.746  1.00  0.00     0.016 C 
HETATM    4  C6  UNL     1      17.558   5.608  14.759  1.00  0.00    -0.013 C 
HETATM    5  C7  UNL     1      18.263   5.316  13.468  1.00  0.00     0.010 C 
HETATM    6  C8  UNL     1      17.357   4.809  12.393  1.00  0.00     0.069 C 
HETATM    7  C9  UNL     1      16.179   4.007  12.950  1.00  0.00     0.170 C 
HETATM    8  O3  UNL     1      16.609   2.772  13.261  1.00  0.00    -0.325 OA
HETATM    9  C10 UNL     1      16.995   2.471  14.510  1.00  0.00     0.267 C 
HETATM   10  C11 UNL     1      15.421   4.753  13.991  1.00  0.00     0.078 C 
HETATM   11  C12 UNL     1      16.150   6.021  14.441  1.00  0.00     0.017 C 
ENDROOT
BRANCH   1  12
HETATM   12  O1  UNL     1      14.781   4.798  16.259  1.00  0.00    -0.385 OA
BRANCH  12  13
HETATM   13  C2  UNL     1      14.379   4.120  17.409  1.00  0.00     0.163 C 
HETATM   14  C1  UNL     1      13.587   2.899  17.015  1.00  0.00     0.033 C 
ENDBRANCH  12  13
ENDBRANCH   1  12
BRANCH   9  15
HETATM   15  O4  UNL     1      16.442   1.216  14.855  1.00  0.00    -0.371 OA
ATOM     16  H4  UNL     1      16.885   0.560  14.330  1.00  0.00     0.212 HD
ENDBRANCH   9  15
BRANCH   7  17
HETATM   17  O2  UNL     1      15.301   3.874  11.844  1.00  0.00    -0.365 OA
ATOM     18  H2  UNL     1      15.052   2.957  11.859  1.00  0.00     0.213 HD
ENDBRANCH   7  17
TORSDOF 4
ENDMDL
MODEL 3
REMARK VINA RESULT: -5.941169155      1.620      3.307
REMARK  4 active torsions:
REMARK  status: ('A' for Active; 'I' for Inactive)
REMARK    1  A    between atoms: C2_2  and  O1_3 
REMARK    2  A    between atoms: O1_3  and  C3_4 
REMARK    3  A    between atoms: C9_10  and  O2_11 
REMARK    4  A    between atoms: C10_14  and  O4_15 
ROOT
HETATM    1  C3  UNL     1      16.906   4.492  12.740  1.00  0.00     0.139 C 
HETATM    2  C4  UNL     1      17.766   5.502  12.015  1.00  0.00     0.071 C 
HETATM    3  C5  UNL     1      18.943   5.960  12.787  1.00  0.00     0.016 C 
HETATM    4  C6  UNL     1      18.689   6.216  14.242  1.00  0.00    -0.013 C 
HETATM    5  C7  UNL     1      18.152   7.589  14.514  1.00  0.00     0.010 C 
HETATM    6  C8  UNL     1      16.663   7.636  14.640  1.00  0.00     0.069 C 
HETATM    7  C9  UNL     1      15.971   6.578  13.778  1.00  0.00     0.170 C 
HETATM    8  O3  UNL     1      15.944   7.011  12.506  1.00  0.00    -0.325 OA
HETATM    9  C10 UNL     1      16.893   6.644  11.632  1.00  0.00     0.267 C 
HETATM   10  C11 UNL     1      16.494   5.207  14.026  1.00  0.00     0.078 C 
HETATM   11  C12 UNL     1      17.766   5.217  14.876  1.00  0.00     0.017 C 
ENDROOT
BRANCH   1  12
HETATM   12  O1  UNL     1      17.621   3.365  13.081  1.00  0.00    -0.385 OA
BRANCH  12  13
HETATM   13  C2  UNL     1      16.890   2.193  12.898  1.00  0.00     0.163 C 
HETATM   14  C1  UNL     1      16.684   1.960  11.423  1.00  0.00     0.033 C 
ENDBRANCH  12  13
ENDBRANCH   1  12
BRANCH   9  15
HETATM   15  O4  UNL     1      16.266   6.299  10.413  1.00  0.00    -0.371 OA
ATOM     16  H4  UNL     1      16.336   7.052   9.839  1.00  0.00     0.212 HD
ENDBRANCH   9  15
BRANCH   7  17
HETATM   17  O2  UNL     1      14.631   6.579  14.245  1.00  0.00    -0.365 OA
ATOM     18  H2  UNL     1      14.639   7.203  14.961  1.00  0.00     0.213 HD
ENDBRANCH   7  17
TORSDOF 4
ENDMDL
MODEL 4
REMARK VINA RESULT: -5.898132713      2.250      4.336
REMARK  4 active torsions:
REMARK  status: ('A' for Active; 'I' for Inactive)
REMARK    1  A    between atoms: C2_2  and  O1_3 
REMARK    2  A    between atoms: O1_3  and  C3_4 
REMARK    3  A    between atoms: C9_10  and  O2_11 
REMARK    4  A    between atoms: C10_14  and  O4_15 
ROOT
HETATM    1  C3  UNL     1      17.258   4.757  12.778  1.00  0.00     0.139 C 
HETATM    2  C4  UNL     1      17.371   3.579  11.837  1.00  0.00     0.071 C 
HETATM    3  C5  UNL     1      18.758   3.261  11.430  1.00  0.00     0.016 C 
HETATM    4  C6  UNL     1      19.620   4.448  11.125  1.00  0.00    -0.013 C 
HETATM    5  C7  UNL     1      19.469   4.941   9.717  1.00  0.00     0.010 C 
HETATM    6  C8  UNL     1      18.513   6.081   9.581  1.00  0.00     0.069 C 
HETATM    7  C9  UNL     1      17.388   6.028  10.616  1.00  0.00     0.170 C 
HETATM    8  O3  UNL     1      16.475   5.128  10.214  1.00  0.00    -0.325 OA
HETATM    9  C10 UNL     1      16.513   3.863  10.656  1.00  0.00     0.267 C 
HETATM   10  C11 UNL     1      17.899   5.912  12.009  1.00  0.00     0.078 C 
HETATM   11  C12 UNL     1      19.398   5.607  12.053  1.00  0.00     0.017 C 
ENDROOT
BRANCH   1  12
HETATM   12  O1  UNL     1      17.975   4.556  13.936  1.00  0.00    -0.385 OA
BRANCH  12  13
HETATM   13  C2  UNL     1      17.208   4.756  15.082  1.00  0.00     0.163 C 
HETATM   14  C1  UNL     1      17.182   3.485  15.892  1.00  0.00     0.033 C 
ENDBRANCH  12  13
ENDBRANCH   1  12
BRANCH   9  15
HETATM   15  O4  UNL     1      15.196   3.470  10.993  1.00  0.00    -0.371 OA
ATOM     16  H4  UNL     1      15.006   3.833  11.850  1.00  0.00     0.212 HD
ENDBRANCH   9  15
BRANCH   7  17
HETATM   17  O2  UNL     1      16.778   7.306  10.526  1.00  0.00    -0.365 OA
ATOM     18  H2  UNL     1      16.127   7.201   9.842  1.00  0.00     0.213 HD
ENDBRANCH   7  17
TORSDOF 4
ENDMDL
MODEL 5
REMARK VINA RESULT: -5.755342460      1.829      3.280
REMARK  4 active torsions:
REMARK  status: ('A' for Active; 'I' for Inactive)
REMARK    1  A    between atoms: C2_2  and  O1_3 
REMARK    2  A    between atoms: O1_3  and  C3_4 
REMARK    3  A    between atoms: C9_10  and  O2_11 
REMARK    4  A    between atoms: C10_14  and  O4_15 
ROOT
HETATM    1  C3  UNL     1      15.509   4.540  14.459  1.00  0.00     0.139 C 
HETATM    2  C4  UNL     1      16.762   3.716  14.650  1.00  0.00     0.071 C 
HETATM    3  C5  UNL     1      17.832   4.409  15.404  1.00  0.00     0.016 C 
HETATM    4  C6  UNL     1      18.026   5.853  15.053  1.00  0.00    -0.013 C 
HETATM    5  C7  UNL     1      18.921   6.057  13.868  1.00  0.00     0.010 C 
HETATM    6  C8  UNL     1      18.180   6.240  12.583  1.00  0.00     0.069 C 
HETATM    7  C9  UNL     1      16.854   5.478  12.558  1.00  0.00     0.170 C 
HETATM    8  O3  UNL     1      17.107   4.183  12.305  1.00  0.00    -0.325 OA
HETATM    9  C10 UNL     1      17.234   3.297  13.304  1.00  0.00     0.267 C 
HETATM   10  C11 UNL     1      15.993   5.793  13.730  1.00  0.00     0.078 C 
HETATM   11  C12 UNL     1      16.741   6.588  14.802  1.00  0.00     0.017 C 
ENDROOT
BRANCH   1  12
HETATM   12  O1  UNL     1      14.963   4.924  15.664  1.00  0.00    -0.385 OA
BRANCH  12  13
HETATM   13  C2  UNL     1      14.285   3.884  16.299  1.00  0.00     0.163 C 
HETATM   14  C1  UNL     1      14.797   3.746  17.710  1.00  0.00     0.033 C 
ENDBRANCH  12  13
ENDBRANCH   1  12
BRANCH   9  15
HETATM   15  O4  UNL     1      16.516   2.129  12.956  1.00  0.00    -0.371 OA
ATOM     16  H4  UNL     1      16.809   1.867  12.091  1.00  0.00     0.212 HD
ENDBRANCH   9  15
BRANCH   7  17
HETATM   17  O2  UNL     1      16.180   5.998  11.424  1.00  0.00    -0.365 OA
ATOM     18  H2  UNL     1      16.595   6.841  11.278  1.00  0.00     0.213 HD
ENDBRANCH   7  17
TORSDOF 4
ENDMDL
