MODEL 1
REMARK VINA RESULT: -6.630659784      0.000      0.000
REMARK  1 active torsions:
REMARK  status: ('A' for Active; 'I' for Inactive)
REMARK    1  A    between atoms: C5_6  and  C6_7 
ROOT
HETATM    1  C6  UNL     1      17.407   5.555  13.811  1.00  0.00     0.134 C 
HETATM    2  C7  UNL     1      16.279   6.530  13.644  1.00  0.00     0.049 C 
HETATM    3  C8  UNL     1      15.648   6.958  14.929  1.00  0.00     0.116 C 
HETATM    4  N1  UNL     1      14.873   5.970  15.586  1.00  0.00    -0.418 N 
ATOM      5  H1  UNL     1      14.396   6.155  16.468  1.00  0.00     0.153 HD
HETATM    6  C9  UNL     1      14.799   4.703  14.941  1.00  0.00     0.153 C 
HETATM    7  C10 UNL     1      16.069   3.911  14.982  1.00  0.00     0.203 C 
HETATM    8  C11 UNL     1      16.104   3.202  16.283  1.00  0.00     0.086 C 
HETATM    9  N2  UNL     1      16.124   2.655  17.305  1.00  0.00    -0.195 NA
HETATM   10  N3  UNL     1      17.263   4.643  14.875  1.00  0.00    -0.395 N 
ATOM     11  H3  UNL     1      18.013   4.517  15.555  1.00  0.00     0.155 HD
ENDROOT
BRANCH   1  12
HETATM   12  C5  UNL     1      17.673   4.897  12.467  1.00  0.00     0.283 C 
HETATM   13  O1  UNL     1      16.472   4.752  11.772  1.00  0.00    -0.356 OA
HETATM   14  C4  UNL     1      16.833   3.933  10.707  1.00  0.00     0.208 C 
HETATM   15  C2  UNL     1      17.775   2.951  11.410  1.00  0.00     0.078 C 
HETATM   16  C1  UNL     1      17.054   1.626  11.660  1.00  0.00     0.048 C 
HETATM   17  C3  UNL     1      19.035   2.745  10.594  1.00  0.00     0.048 C 
HETATM   18  O2  UNL     1      18.089   3.584  12.607  1.00  0.00    -0.347 OA
ENDBRANCH   1  12
TORSDOF 1
ENDMDL
MODEL 2
REMARK VINA RESULT: -6.569044657      1.394      1.569
REMARK  1 active torsions:
REMARK  status: ('A' for Active; 'I' for Inactive)
REMARK    1  A    between atoms: C5_6  and  C6_7 
ROOT
HETATM    1  C6  UNL     1      17.949   6.297  13.734  1.00  0.00     0.134 C 
HETATM    2  C7  UNL     1      16.613   6.951  13.533  1.00  0.00     0.049 C 
HETATM    3  C8  UNL     1      15.729   6.912  14.736  1.00  0.00     0.116 C 
HETATM    4  N1  UNL     1      15.204   5.638  15.067  1.00  0.00    -0.418 N 
ATOM      5  H1  UNL     1      14.588   5.499  15.867  1.00  0.00     0.153 HD
HETATM    6  C9  UNL     1      15.589   4.564  14.216  1.00  0.00     0.153 C 
HETATM    7  C10 UNL     1      17.020   4.147  14.351  1.00  0.00     0.203 C 
HETATM    8  C11 UNL     1      17.100   3.213  15.499  1.00  0.00     0.086 C 
HETATM    9  N2  UNL     1      17.153   2.487  16.400  1.00  0.00    -0.195 NA
HETATM   10  N3  UNL     1      17.949   5.175  14.586  1.00  0.00    -0.395 N 
ATOM     11  H3  UNL     1      18.612   5.110  15.359  1.00  0.00     0.155 HD
ENDROOT
BRANCH   1  12
HETATM   12  C5  UNL     1      18.563   6.034  12.369  1.00  0.00     0.283 C 
HETATM   13  O1  UNL     1      17.563   5.663  11.471  1.00  0.00    -0.356 OA
HETATM   14  C4  UNL     1      18.290   5.224  10.368  1.00  0.00     0.208 C 
HETATM   15  C2  UNL     1      19.427   4.467  11.060  1.00  0.00     0.078 C 
HETATM   16  C1  UNL     1      19.171   2.961  10.984  1.00  0.00     0.048 C 
HETATM   17  C3  UNL     1      20.762   4.831  10.443  1.00  0.00     0.048 C 
HETATM   18  O2  UNL     1      19.379   4.916  12.375  1.00  0.00    -0.347 OA
ENDBRANCH   1  12
TORSDOF 1
ENDMDL
MODEL 3
REMARK VINA RESULT: -6.296383539      2.575      5.143
REMARK  1 active torsions:
REMARK  status: ('A' for Active; 'I' for Inactive)
REMARK    1  A    between atoms: C5_6  and  C6_7 
ROOT
HETATM    1  C6  UNL     1      17.405   3.468  15.042  1.00  0.00     0.134 C 
HETATM    2  C7  UNL     1      16.459   3.160  13.919  1.00  0.00     0.049 C 
HETATM    3  C8  UNL     1      16.897   3.689  12.592  1.00  0.00     0.116 C 
HETATM    4  N1  UNL     1      16.827   5.097  12.443  1.00  0.00    -0.418 N 
ATOM      5  H1  UNL     1      17.098   5.563  11.578  1.00  0.00     0.153 HD
HETATM    6  C9  UNL     1      16.354   5.821  13.573  1.00  0.00     0.153 C 
HETATM    7  C10 UNL     1      17.308   5.867  14.726  1.00  0.00     0.203 C 
HETATM    8  C11 UNL     1      18.260   6.972  14.465  1.00  0.00     0.086 C 
HETATM    9  N2  UNL     1      19.002   7.836  14.251  1.00  0.00    -0.195 NA
HETATM   10  N3  UNL     1      18.069   4.707  14.950  1.00  0.00    -0.395 N 
ATOM     11  H3  UNL     1      19.084   4.760  15.045  1.00  0.00     0.155 HD
ENDROOT
BRANCH   1  12
HETATM   12  C5  UNL     1      16.672   3.258  16.356  1.00  0.00     0.283 C 
HETATM   13  O1  UNL     1      16.233   1.936  16.439  1.00  0.00    -0.356 OA
HETATM   14  C4  UNL     1      15.389   1.963  17.545  1.00  0.00     0.208 C 
HETATM   15  C2  UNL     1      14.680   3.303  17.328  1.00  0.00     0.078 C 
HETATM   16  C1  UNL     1      13.277   3.065  16.768  1.00  0.00     0.048 C 
HETATM   17  C3  UNL     1      14.630   4.094  18.620  1.00  0.00     0.048 C 
HETATM   18  O2  UNL     1      15.482   3.963  16.404  1.00  0.00    -0.347 OA
ENDBRANCH   1  12
TORSDOF 1
ENDMDL
MODEL 4
REMARK VINA RESULT: -6.130397555      2.221      2.838
REMARK  1 active torsions:
REMARK  status: ('A' for Active; 'I' for Inactive)
REMARK    1  A    between atoms: C5_6  and  C6_7 
ROOT
HETATM    1  C6  UNL     1      17.985   5.911  14.861  1.00  0.00     0.134 C 
HETATM    2  C7  UNL     1      16.851   6.713  14.294  1.00  0.00     0.049 C 
HETATM    3  C8  UNL     1      15.517   6.379  14.877  1.00  0.00     0.116 C 
HETATM    4  N1  UNL     1      14.987   5.118  14.503  1.00  0.00    -0.418 N 
ATOM      5  H1  UNL     1      14.083   4.791  14.841  1.00  0.00     0.153 HD
HETATM    6  C9  UNL     1      15.793   4.337  13.629  1.00  0.00     0.153 C 
HETATM    7  C10 UNL     1      17.026   3.770  14.261  1.00  0.00     0.203 C 
HETATM    8  C11 UNL     1      16.631   2.518  14.950  1.00  0.00     0.086 C 
HETATM    9  N2  UNL     1      16.313   1.544  15.490  1.00  0.00    -0.195 NA
HETATM   10  N3  UNL     1      17.670   4.582  15.209  1.00  0.00    -0.395 N 
ATOM     11  H3  UNL     1      17.904   4.218  16.133  1.00  0.00     0.155 HD
ENDROOT
BRANCH   1  12
HETATM   12  C5  UNL     1      19.175   6.037  13.926  1.00  0.00     0.283 C 
HETATM   13  O1  UNL     1      19.418   7.384  13.658  1.00  0.00    -0.356 OA
HETATM   14  C4  UNL     1      20.346   7.328  12.623  1.00  0.00     0.208 C 
HETATM   15  C2  UNL     1      19.780   6.169  11.797  1.00  0.00     0.078 C 
HETATM   16  C1  UNL     1      19.046   6.713  10.571  1.00  0.00     0.048 C 
HETATM   17  C3  UNL     1      20.884   5.211  11.398  1.00  0.00     0.048 C 
HETATM   18  O2  UNL     1      18.899   5.535  12.666  1.00  0.00    -0.347 OA
ENDBRANCH   1  12
TORSDOF 1
ENDMDL
MODEL 5
REMARK VINA RESULT: -6.021145348      2.470      4.901
REMARK  1 active torsions:
REMARK  status: ('A' for Active; 'I' for Inactive)
REMARK    1  A    between atoms: C5_6  and  C6_7 
ROOT
HETATM    1  C6  UNL     1      15.675   5.355  14.126  1.00  0.00     0.134 C 
HETATM    2  C7  UNL     1      16.217   6.726  14.404  1.00  0.00     0.049 C 
HETATM    3  C8  UNL     1      16.519   7.522  13.177  1.00  0.00     0.116 C 
HETATM    4  N1  UNL     1      17.640   7.086  12.427  1.00  0.00    -0.418 N 
ATOM      5  H1  UNL     1      17.937   7.558  11.574  1.00  0.00     0.153 HD
HETATM    6  C9  UNL     1      18.327   5.948  12.936  1.00  0.00     0.153 C 
HETATM    7  C10 UNL     1      17.579   4.659  12.801  1.00  0.00     0.203 C 
HETATM    8  C11 UNL     1      17.828   4.147  11.433  1.00  0.00     0.086 C 
HETATM    9  N2  UNL     1      18.025   3.757  10.360  1.00  0.00    -0.195 NA
HETATM   10  N3  UNL     1      16.186   4.726  12.973  1.00  0.00    -0.395 N 
ATOM     11  H3  UNL     1      15.556   4.327  12.277  1.00  0.00     0.155 HD
ENDROOT
BRANCH   1  12
HETATM   12  C5  UNL     1      15.804   4.523  15.390  1.00  0.00     0.283 C 
HETATM   13  O1  UNL     1      15.845   3.169  15.056  1.00  0.00    -0.356 OA
HETATM   14  C4  UNL     1      15.713   2.545  16.293  1.00  0.00     0.208 C 
HETATM   15  C2  UNL     1      14.662   3.442  16.953  1.00  0.00     0.078 C 
HETATM   16  C1  UNL     1      13.295   2.757  16.913  1.00  0.00     0.048 C 
HETATM   17  C3  UNL     1      15.067   3.780  18.373  1.00  0.00     0.048 C 
HETATM   18  O2  UNL     1      14.666   4.594  16.176  1.00  0.00    -0.347 OA
ENDBRANCH   1  12
TORSDOF 1
ENDMDL
