MODEL 1
REMARK VINA RESULT: -6.974748684      0.000      0.000
REMARK  3 active torsions:
REMARK  status: ('A' for Active; 'I' for Inactive)
REMARK    1  A    between atoms: C2_2  and  N1_5 
REMARK    2  A    between atoms: C5_7  and  C6_8 
REMARK    3  A    between atoms: C5_7  and  N6_15 
ROOT
HETATM    1  N1  UNL     1      16.586   5.525  13.028  1.00  0.00    -0.365 N 
ATOM      2  H1  UNL     1      16.530   5.780  12.042  1.00  0.00     0.162 HD
HETATM    3  C5  UNL     1      16.879   4.332  13.136  1.00  0.00     0.147 C 
ENDROOT
BRANCH   3   4
HETATM    4  C6  UNL     1      17.057   3.581  14.357  1.00  0.00     0.175 C 
HETATM    5  N2  UNL     1      17.710   3.873  15.442  1.00  0.00    -0.267 N 
HETATM    6  N3  UNL     1      17.621   2.856  16.383  1.00  0.00    -0.007 NA
ATOM      7  H2  UNL     1      18.224   4.742  15.584  1.00  0.00     0.185 HD
HETATM    8  N4  UNL     1      16.597   1.962  15.973  1.00  0.00    -0.007 NA
HETATM    9  N5  UNL     1      16.506   2.288  14.601  1.00  0.00    -0.267 N 
ATOM     10  H5  UNL     1      16.101   1.684  13.886  1.00  0.00     0.185 HD
ENDBRANCH   3   4
BRANCH   3  11
HETATM   11  N6  UNL     1      17.063   3.612  11.880  1.00  0.00    -0.364 N 
HETATM   12  C7  UNL     1      16.032   2.970  11.088  1.00  0.00     0.124 C 
HETATM   13  C8  UNL     1      16.754   1.805  10.404  1.00  0.00     0.021 C 
HETATM   14  C9  UNL     1      18.196   1.896  10.858  1.00  0.00     0.021 C 
HETATM   15  C10 UNL     1      18.305   3.392  11.173  1.00  0.00     0.124 C 
ENDBRANCH   3  11
BRANCH   1  16
HETATM   16  C2  UNL     1      16.307   6.637  13.822  1.00  0.00     0.021 C 
HETATM   17  C1  UNL     1      17.476   7.164  14.637  1.00  0.00     0.037 C 
HETATM   18  C3  UNL     1      15.152   6.392  14.798  1.00  0.00     0.037 C 
HETATM   19  C4  UNL     1      15.809   7.786  12.932  1.00  0.00     0.037 C 
ENDBRANCH   1  16
TORSDOF 3
ENDMDL
MODEL 2
REMARK VINA RESULT: -6.926905056      0.111      1.054
REMARK  3 active torsions:
REMARK  status: ('A' for Active; 'I' for Inactive)
REMARK    1  A    between atoms: C2_2  and  N1_5 
REMARK    2  A    between atoms: C5_7  and  C6_8 
REMARK    3  A    between atoms: C5_7  and  N6_15 
ROOT
HETATM    1  N1  UNL     1      16.473   5.507  13.044  1.00  0.00    -0.365 N 
ATOM      2  H1  UNL     1      16.401   5.767  12.061  1.00  0.00     0.162 HD
HETATM    3  C5  UNL     1      16.822   4.329  13.141  1.00  0.00     0.147 C 
ENDROOT
BRANCH   3   4
HETATM    4  C6  UNL     1      17.040   3.577  14.356  1.00  0.00     0.175 C 
HETATM    5  N2  UNL     1      17.723   3.871  15.421  1.00  0.00    -0.267 N 
HETATM    6  N3  UNL     1      17.668   2.853  16.363  1.00  0.00    -0.007 NA
ATOM      7  H2  UNL     1      18.235   4.744  15.550  1.00  0.00     0.185 HD
HETATM    8  N4  UNL     1      16.638   1.953  15.981  1.00  0.00    -0.007 NA
HETATM    9  N5  UNL     1      16.505   2.280  14.614  1.00  0.00    -0.267 N 
ATOM     10  H5  UNL     1      16.084   1.675  13.910  1.00  0.00     0.185 HD
ENDBRANCH   3   4
BRANCH   3  11
HETATM   11  N6  UNL     1      17.034   3.628  11.879  1.00  0.00    -0.364 N 
HETATM   12  C7  UNL     1      16.049   2.876  11.126  1.00  0.00     0.124 C 
HETATM   13  C8  UNL     1      16.866   1.793  10.414  1.00  0.00     0.021 C 
HETATM   14  C9  UNL     1      18.306   2.041  10.814  1.00  0.00     0.021 C 
HETATM   15  C10 UNL     1      18.266   3.540  11.125  1.00  0.00     0.124 C 
ENDBRANCH   3  11
BRANCH   1  16
HETATM   16  C2  UNL     1      16.145   6.598  13.848  1.00  0.00     0.021 C 
HETATM   17  C1  UNL     1      15.081   6.335  14.900  1.00  0.00     0.037 C 
HETATM   18  C3  UNL     1      15.684   7.813  13.036  1.00  0.00     0.037 C 
HETATM   19  C4  UNL     1      17.404   7.090  14.577  1.00  0.00     0.037 C 
ENDBRANCH   1  16
TORSDOF 3
ENDMDL
MODEL 3
REMARK VINA RESULT: -6.903112882      0.538      1.008
REMARK  3 active torsions:
REMARK  status: ('A' for Active; 'I' for Inactive)
REMARK    1  A    between atoms: C2_2  and  N1_5 
REMARK    2  A    between atoms: C5_7  and  C6_8 
REMARK    3  A    between atoms: C5_7  and  N6_15 
ROOT
HETATM    1  N1  UNL     1      16.553   5.878  12.896  1.00  0.00    -0.365 N 
ATOM      2  H1  UNL     1      16.562   6.047  11.890  1.00  0.00     0.162 HD
HETATM    3  C5  UNL     1      16.790   4.690  13.123  1.00  0.00     0.147 C 
ENDROOT
BRANCH   3   4
HETATM    4  C6  UNL     1      16.869   4.044  14.413  1.00  0.00     0.175 C 
HETATM    5  N2  UNL     1      16.036   3.245  15.011  1.00  0.00    -0.267 N 
HETATM    6  N3  UNL     1      16.509   2.850  16.255  1.00  0.00    -0.007 NA
ATOM      7  H2  UNL     1      15.145   2.945  14.615  1.00  0.00     0.185 HD
HETATM    8  N4  UNL     1      17.881   3.203  16.339  1.00  0.00    -0.007 NA
HETATM    9  N5  UNL     1      17.957   4.183  15.324  1.00  0.00    -0.267 N 
ATOM     10  H5  UNL     1      18.688   4.891  15.253  1.00  0.00     0.185 HD
ENDBRANCH   3   4
BRANCH   3  11
HETATM   11  N6  UNL     1      17.012   3.855  11.947  1.00  0.00    -0.364 N 
HETATM   12  C7  UNL     1      16.016   3.087  11.226  1.00  0.00     0.124 C 
HETATM   13  C8  UNL     1      16.796   1.894  10.664  1.00  0.00     0.021 C 
HETATM   14  C9  UNL     1      18.230   2.101  11.104  1.00  0.00     0.021 C 
HETATM   15  C10 UNL     1      18.267   3.624  11.265  1.00  0.00     0.124 C 
ENDBRANCH   3  11
BRANCH   1  16
HETATM   16  C2  UNL     1      16.278   7.066  13.573  1.00  0.00     0.021 C 
HETATM   17  C1  UNL     1      17.414   7.610  14.421  1.00  0.00     0.037 C 
HETATM   18  C3  UNL     1      15.049   6.956  14.482  1.00  0.00     0.037 C 
HETATM   19  C4  UNL     1      15.896   8.154  12.558  1.00  0.00     0.037 C 
ENDBRANCH   1  16
TORSDOF 3
ENDMDL
MODEL 4
REMARK VINA RESULT: -6.827597255      0.565      1.474
REMARK  3 active torsions:
REMARK  status: ('A' for Active; 'I' for Inactive)
REMARK    1  A    between atoms: C2_2  and  N1_5 
REMARK    2  A    between atoms: C5_7  and  C6_8 
REMARK    3  A    between atoms: C5_7  and  N6_15 
ROOT
HETATM    1  N1  UNL     1      16.536   5.871  12.859  1.00  0.00    -0.365 N 
ATOM      2  H1  UNL     1      16.554   6.024  11.851  1.00  0.00     0.162 HD
HETATM    3  C5  UNL     1      16.793   4.691  13.107  1.00  0.00     0.147 C 
ENDROOT
BRANCH   3   4
HETATM    4  C6  UNL     1      16.869   4.065  14.408  1.00  0.00     0.175 C 
HETATM    5  N2  UNL     1      16.028   3.288  15.023  1.00  0.00    -0.267 N 
HETATM    6  N3  UNL     1      16.501   2.908  16.271  1.00  0.00    -0.007 NA
ATOM      7  H2  UNL     1      15.132   2.994  14.635  1.00  0.00     0.185 HD
HETATM    8  N4  UNL     1      17.879   3.245  16.344  1.00  0.00    -0.007 NA
HETATM    9  N5  UNL     1      17.963   4.206  15.312  1.00  0.00    -0.267 N 
ATOM     10  H5  UNL     1      18.703   4.902  15.226  1.00  0.00     0.185 HD
ENDBRANCH   3   4
BRANCH   3  11
HETATM   11  N6  UNL     1      17.046   3.843  11.947  1.00  0.00    -0.364 N 
HETATM   12  C7  UNL     1      16.078   3.028  11.238  1.00  0.00     0.124 C 
HETATM   13  C8  UNL     1      16.899   1.853  10.698  1.00  0.00     0.021 C 
HETATM   14  C9  UNL     1      18.324   2.116  11.138  1.00  0.00     0.021 C 
HETATM   15  C10 UNL     1      18.309   3.642  11.271  1.00  0.00     0.124 C 
ENDBRANCH   3  11
BRANCH   1  16
HETATM   16  C2  UNL     1      16.228   7.062  13.514  1.00  0.00     0.021 C 
HETATM   17  C1  UNL     1      15.096   6.976  14.523  1.00  0.00     0.037 C 
HETATM   18  C3  UNL     1      15.883   8.198  12.545  1.00  0.00     0.037 C 
HETATM   19  C4  UNL     1      17.473   7.570  14.258  1.00  0.00     0.037 C 
ENDBRANCH   1  16
TORSDOF 3
ENDMDL
MODEL 5
REMARK VINA RESULT: -6.494238121      1.504      1.879
REMARK  3 active torsions:
REMARK  status: ('A' for Active; 'I' for Inactive)
REMARK    1  A    between atoms: C2_2  and  N1_5 
REMARK    2  A    between atoms: C5_7  and  C6_8 
REMARK    3  A    between atoms: C5_7  and  N6_15 
ROOT
HETATM    1  N1  UNL     1      17.532   4.632  13.385  1.00  0.00    -0.365 N 
ATOM      2  H1  UNL     1      17.730   4.614  12.385  1.00  0.00     0.162 HD
HETATM    3  C5  UNL     1      16.963   3.590  13.717  1.00  0.00     0.147 C 
ENDROOT
BRANCH   3   4
HETATM    4  C6  UNL     1      16.513   3.221  15.040  1.00  0.00     0.175 C 
HETATM    5  N2  UNL     1      16.961   2.323  15.865  1.00  0.00    -0.267 N 
HETATM    6  N3  UNL     1      16.229   2.299  17.044  1.00  0.00    -0.007 NA
ATOM      7  H2  UNL     1      17.754   1.711  15.671  1.00  0.00     0.185 HD
HETATM    8  N4  UNL     1      15.421   3.466  17.087  1.00  0.00    -0.007 NA
HETATM    9  N5  UNL     1      15.414   3.823  15.720  1.00  0.00    -0.267 N 
ATOM     10  H5  UNL     1      14.720   4.428  15.281  1.00  0.00     0.185 HD
ENDBRANCH   3   4
BRANCH   3  11
HETATM   11  N6  UNL     1      16.722   2.633  12.643  1.00  0.00    -0.364 N 
HETATM   12  C7  UNL     1      17.013   1.212  12.664  1.00  0.00     0.124 C 
HETATM   13  C8  UNL     1      17.310   0.867  11.201  1.00  0.00     0.021 C 
HETATM   14  C9  UNL     1      17.132   2.161  10.433  1.00  0.00     0.021 C 
HETATM   15  C10 UNL     1      16.149   2.904  11.343  1.00  0.00     0.124 C 
ENDBRANCH   3  11
BRANCH   1  16
HETATM   16  C2  UNL     1      17.992   5.826  13.938  1.00  0.00     0.021 C 
HETATM   17  C1  UNL     1      18.946   5.675  15.110  1.00  0.00     0.037 C 
HETATM   18  C3  UNL     1      16.853   6.741  14.400  1.00  0.00     0.037 C 
HETATM   19  C4  UNL     1      18.714   6.644  12.856  1.00  0.00     0.037 C 
ENDBRANCH   1  16
TORSDOF 3
ENDMDL
