MODEL 1
REMARK VINA RESULT: -6.230163208      0.000      0.000
REMARK  4 active torsions:
REMARK  status: ('A' for Active; 'I' for Inactive)
REMARK    1  A    between atoms: C2_2  and  N1_5 
REMARK    2  A    between atoms: N1_5  and  C5_7 
REMARK    3  A    between atoms: N4_13  and  C7_15 
REMARK    4  A    between atoms: C7_15  and  C8_16 
ROOT
HETATM    1  C5  UNL     1      16.645   3.510  15.522  1.00  0.00     0.163 A 
HETATM    2  N2  UNL     1      16.722   2.529  14.623  1.00  0.00    -0.278 N 
ATOM      3  H2  UNL     1      16.406   1.587  14.853  1.00  0.00     0.189 HD
HETATM    4  N3  UNL     1      17.205   2.799  13.454  1.00  0.00    -0.278 N 
ATOM      5  H3  UNL     1      17.277   2.073  12.740  1.00  0.00     0.189 HD
HETATM    6  C6  UNL     1      17.605   4.044  13.200  1.00  0.00     0.163 A 
HETATM    7  N4  UNL     1      18.120   4.514  12.082  1.00  0.00    -0.361 N 
ATOM      8  H4  UNL     1      18.391   5.494  12.007  1.00  0.00     0.161 HD
HETATM    9  S1  UNL     1      17.280   4.842  14.670  1.00  0.00    -0.016 SA
ENDROOT
BRANCH   7  10
HETATM   10  C7  UNL     1      18.294   3.616  10.965  1.00  0.00     0.239 C 
BRANCH  10  11
HETATM   11  C8  UNL     1      19.766   3.199  10.847  1.00  0.00     0.403 C 
HETATM   12  F1  UNL     1      20.582   4.096  11.477  1.00  0.00    -0.169 F 
HETATM   13  F2  UNL     1      19.891   1.920  11.329  1.00  0.00    -0.169 F 
HETATM   14  F3  UNL     1      20.068   3.182   9.498  1.00  0.00    -0.169 F 
ENDBRANCH  10  11
ENDBRANCH   7  10
BRANCH   1  15
HETATM   15  N1  UNL     1      16.189   3.444  16.756  1.00  0.00    -0.361 N 
ATOM     16  H1  UNL     1      16.835   3.157  17.490  1.00  0.00     0.162 HD
BRANCH  15  17
HETATM   17  C2  UNL     1      14.846   3.751  17.130  1.00  0.00     0.021 C 
HETATM   18  C1  UNL     1      13.920   2.569  16.945  1.00  0.00     0.037 C 
HETATM   19  C3  UNL     1      14.306   4.982  16.434  1.00  0.00     0.037 C 
HETATM   20  C4  UNL     1      14.846   4.077  18.631  1.00  0.00     0.037 C 
ENDBRANCH  15  17
ENDBRANCH   1  15
TORSDOF 4
ENDMDL
MODEL 2
REMARK VINA RESULT: -6.228207357      3.961      6.914
REMARK  4 active torsions:
REMARK  status: ('A' for Active; 'I' for Inactive)
REMARK    1  A    between atoms: C2_2  and  N1_5 
REMARK    2  A    between atoms: N1_5  and  C5_7 
REMARK    3  A    between atoms: N4_13  and  C7_15 
REMARK    4  A    between atoms: C7_15  and  C8_16 
ROOT
HETATM    1  C5  UNL     1      18.026   4.502  12.438  1.00  0.00     0.163 A 
HETATM    2  N2  UNL     1      18.312   4.965  13.654  1.00  0.00    -0.278 N 
ATOM      3  H2  UNL     1      19.025   5.683  13.784  1.00  0.00     0.189 HD
HETATM    4  N3  UNL     1      17.665   4.485  14.667  1.00  0.00    -0.278 N 
ATOM      5  H3  UNL     1      17.856   4.817  15.612  1.00  0.00     0.189 HD
HETATM    6  C6  UNL     1      16.743   3.547  14.448  1.00  0.00     0.163 A 
HETATM    7  N4  UNL     1      15.986   2.939  15.338  1.00  0.00    -0.361 N 
ATOM      8  H4  UNL     1      15.310   2.232  15.048  1.00  0.00     0.161 HD
HETATM    9  S1  UNL     1      16.807   3.354  12.757  1.00  0.00    -0.016 SA
ENDROOT
BRANCH   7  10
HETATM   10  C7  UNL     1      16.129   3.291  16.731  1.00  0.00     0.239 C 
BRANCH  10  11
HETATM   11  C8  UNL     1      14.758   3.605  17.340  1.00  0.00     0.403 C 
HETATM   12  F1  UNL     1      13.880   2.580  17.127  1.00  0.00    -0.169 F 
HETATM   13  F2  UNL     1      14.934   3.902  18.669  1.00  0.00    -0.169 F 
HETATM   14  F3  UNL     1      14.290   4.741  16.704  1.00  0.00    -0.169 F 
ENDBRANCH  10  11
ENDBRANCH   7  10
BRANCH   1  15
HETATM   15  N1  UNL     1      18.564   4.856  11.288  1.00  0.00    -0.361 N 
ATOM     16  H1  UNL     1      18.048   5.510  10.700  1.00  0.00     0.162 HD
BRANCH  15  17
HETATM   17  C2  UNL     1      19.823   4.381  10.815  1.00  0.00     0.021 C 
HETATM   18  C1  UNL     1      19.904   2.870  10.832  1.00  0.00     0.037 C 
HETATM   19  C3  UNL     1      20.998   4.999  11.540  1.00  0.00     0.037 C 
HETATM   20  C4  UNL     1      19.957   4.810   9.346  1.00  0.00     0.037 C 
ENDBRANCH  15  17
ENDBRANCH   1  15
TORSDOF 4
ENDMDL
MODEL 3
REMARK VINA RESULT: -6.191783750      4.071      6.909
REMARK  4 active torsions:
REMARK  status: ('A' for Active; 'I' for Inactive)
REMARK    1  A    between atoms: C2_2  and  N1_5 
REMARK    2  A    between atoms: N1_5  and  C5_7 
REMARK    3  A    between atoms: N4_13  and  C7_15 
REMARK    4  A    between atoms: C7_15  and  C8_16 
ROOT
HETATM    1  C5  UNL     1      17.757   3.789  11.945  1.00  0.00     0.163 A 
HETATM    2  N2  UNL     1      17.862   2.820  12.853  1.00  0.00    -0.278 N 
ATOM      3  H2  UNL     1      18.459   2.011  12.685  1.00  0.00     0.189 HD
HETATM    4  N3  UNL     1      17.189   2.929  13.953  1.00  0.00    -0.278 N 
ATOM      5  H3  UNL     1      17.246   2.207  14.672  1.00  0.00     0.189 HD
HETATM    6  C6  UNL     1      16.421   4.004  14.128  1.00  0.00     0.163 A 
HETATM    7  N4  UNL     1      15.667   4.296  15.168  1.00  0.00    -0.361 N 
ATOM      8  H4  UNL     1      15.119   5.156  15.187  1.00  0.00     0.161 HD
HETATM    9  S1  UNL     1      16.672   4.874  12.685  1.00  0.00    -0.016 SA
ENDROOT
BRANCH   7  10
HETATM   10  C7  UNL     1      15.630   3.376  16.280  1.00  0.00     0.239 C 
BRANCH  10  11
HETATM   11  C8  UNL     1      14.426   3.683  17.179  1.00  0.00     0.403 C 
HETATM   12  F1  UNL     1      13.483   2.699  17.090  1.00  0.00    -0.169 F 
HETATM   13  F2  UNL     1      14.883   3.883  18.458  1.00  0.00    -0.169 F 
HETATM   14  F3  UNL     1      13.883   4.872  16.726  1.00  0.00    -0.169 F 
ENDBRANCH  10  11
ENDBRANCH   7  10
BRANCH   1  15
HETATM   15  N1  UNL     1      18.353   3.869  10.772  1.00  0.00    -0.361 N 
ATOM     16  H1  UNL     1      18.038   3.242  10.032  1.00  0.00     0.162 HD
BRANCH  15  17
HETATM   17  C2  UNL     1      19.413   4.776  10.474  1.00  0.00     0.021 C 
HETATM   18  C1  UNL     1      20.198   5.160  11.709  1.00  0.00     0.037 C 
HETATM   19  C3  UNL     1      18.945   6.003   9.721  1.00  0.00     0.037 C 
HETATM   20  C4  UNL     1      20.394   4.052   9.539  1.00  0.00     0.037 C 
ENDBRANCH  15  17
ENDBRANCH   1  15
TORSDOF 4
ENDMDL
MODEL 4
REMARK VINA RESULT: -6.171160493      0.065      1.066
REMARK  4 active torsions:
REMARK  status: ('A' for Active; 'I' for Inactive)
REMARK    1  A    between atoms: C2_2  and  N1_5 
REMARK    2  A    between atoms: N1_5  and  C5_7 
REMARK    3  A    between atoms: N4_13  and  C7_15 
REMARK    4  A    between atoms: C7_15  and  C8_16 
ROOT
HETATM    1  C5  UNL     1      16.634   3.427  15.540  1.00  0.00     0.163 A 
HETATM    2  N2  UNL     1      16.701   2.467  14.618  1.00  0.00    -0.278 N 
ATOM      3  H2  UNL     1      16.378   1.522  14.826  1.00  0.00     0.189 HD
HETATM    4  N3  UNL     1      17.184   2.760  13.455  1.00  0.00    -0.278 N 
ATOM      5  H3  UNL     1      17.249   2.051  12.724  1.00  0.00     0.189 HD
HETATM    6  C6  UNL     1      17.595   4.008  13.230  1.00  0.00     0.163 A 
HETATM    7  N4  UNL     1      18.112   4.500  12.122  1.00  0.00    -0.361 N 
ATOM      8  H4  UNL     1      18.391   5.479  12.070  1.00  0.00     0.161 HD
HETATM    9  S1  UNL     1      17.279   4.773  14.718  1.00  0.00    -0.016 SA
ENDROOT
BRANCH   7  10
HETATM   10  C7  UNL     1      18.276   3.626  10.984  1.00  0.00     0.239 C 
BRANCH  10  11
HETATM   11  C8  UNL     1      19.743   3.198  10.855  1.00  0.00     0.403 C 
HETATM   12  F1  UNL     1      20.572   4.098  11.461  1.00  0.00    -0.169 F 
HETATM   13  F2  UNL     1      19.866   1.925  11.354  1.00  0.00    -0.169 F 
HETATM   14  F3  UNL     1      20.029   3.158   9.502  1.00  0.00    -0.169 F 
ENDBRANCH  10  11
ENDBRANCH   7  10
BRANCH   1  15
HETATM   15  N1  UNL     1      16.180   3.337  16.774  1.00  0.00    -0.361 N 
ATOM     16  H1  UNL     1      16.791   2.927  17.480  1.00  0.00     0.162 HD
BRANCH  15  17
HETATM   17  C2  UNL     1      14.885   3.776  17.183  1.00  0.00     0.021 C 
HETATM   18  C1  UNL     1      14.393   4.944  16.357  1.00  0.00     0.037 C 
HETATM   19  C3  UNL     1      14.805   4.082  18.663  1.00  0.00     0.037 C 
HETATM   20  C4  UNL     1      13.904   2.620  16.934  1.00  0.00     0.037 C 
ENDBRANCH  15  17
ENDBRANCH   1  15
TORSDOF 4
ENDMDL
MODEL 5
REMARK VINA RESULT: -6.086674726      4.079      6.884
REMARK  4 active torsions:
REMARK  status: ('A' for Active; 'I' for Inactive)
REMARK    1  A    between atoms: C2_2  and  N1_5 
REMARK    2  A    between atoms: N1_5  and  C5_7 
REMARK    3  A    between atoms: N4_13  and  C7_15 
REMARK    4  A    between atoms: C7_15  and  C8_16 
ROOT
HETATM    1  C5  UNL     1      17.702   3.776  11.929  1.00  0.00     0.163 A 
HETATM    2  N2  UNL     1      17.839   2.830  12.857  1.00  0.00    -0.278 N 
ATOM      3  H2  UNL     1      18.444   2.025  12.695  1.00  0.00     0.189 HD
HETATM    4  N3  UNL     1      17.188   2.954  13.968  1.00  0.00    -0.278 N 
ATOM      5  H3  UNL     1      17.270   2.250  14.702  1.00  0.00     0.189 HD
HETATM    6  C6  UNL     1      16.408   4.022  14.135  1.00  0.00     0.163 A 
HETATM    7  N4  UNL     1      15.672   4.328  15.183  1.00  0.00    -0.361 N 
ATOM      8  H4  UNL     1      15.112   5.180  15.194  1.00  0.00     0.161 HD
HETATM    9  S1  UNL     1      16.616   4.862  12.668  1.00  0.00    -0.016 SA
ENDROOT
BRANCH   7  10
HETATM   10  C7  UNL     1      15.671   3.433  16.317  1.00  0.00     0.239 C 
BRANCH  10  11
HETATM   11  C8  UNL     1      14.441   3.694  17.195  1.00  0.00     0.403 C 
HETATM   12  F1  UNL     1      13.522   2.692  17.064  1.00  0.00    -0.169 F 
HETATM   13  F2  UNL     1      14.865   3.877  18.487  1.00  0.00    -0.169 F 
HETATM   14  F3  UNL     1      13.882   4.881  16.754  1.00  0.00    -0.169 F 
ENDBRANCH  10  11
ENDBRANCH   7  10
BRANCH   1  15
HETATM   15  N1  UNL     1      18.272   3.837  10.743  1.00  0.00    -0.361 N 
ATOM     16  H1  UNL     1      17.918   3.223  10.010  1.00  0.00     0.162 HD
BRANCH  15  17
HETATM   17  C2  UNL     1      19.355   4.707  10.420  1.00  0.00     0.021 C 
HETATM   18  C1  UNL     1      18.879   5.999   9.791  1.00  0.00     0.037 C 
HETATM   19  C3  UNL     1      20.414   4.043   9.567  1.00  0.00     0.037 C 
HETATM   20  C4  UNL     1      20.049   5.092  11.736  1.00  0.00     0.037 C 
ENDBRANCH  15  17
ENDBRANCH   1  15
TORSDOF 4
ENDMDL
