MODEL 1
REMARK VINA RESULT: -4.598749004      0.000      0.000
REMARK  3 active torsions:
REMARK  status: ('A' for Active; 'I' for Inactive)
REMARK    1  A    between atoms: C2_2  and  O1_4 
REMARK    2  A    between atoms: C2_2  and  C4_6 
REMARK    3  A    between atoms: C4_6  and  O2_7 
ROOT
HETATM    1  C4  UNL     1      17.125   4.975  12.820  1.00  0.00     0.165 C 
HETATM    2  C5  UNL     1      18.439   4.989  12.109  1.00  0.00     0.217 C 
HETATM    3  O3  UNL     1      18.600   3.654  12.404  1.00  0.00    -0.349 OA
HETATM    4  C6  UNL     1      17.219   3.497  12.639  1.00  0.00     0.232 C 
HETATM    5 CL1  UNL     1      16.895   2.518  14.086  1.00  0.00    -0.072 Cl
HETATM    6 BR1  UNL     1      16.269   2.775  11.122  1.00  0.00    -0.033 Br
ENDROOT
BRANCH   1   7
HETATM    7  C2  UNL     1      17.137   5.354  14.272  1.00  0.00     0.088 C 
HETATM    8  C1  UNL     1      17.433   6.847  14.456  1.00  0.00     0.049 C 
HETATM    9  C3  UNL     1      15.753   5.111  14.821  1.00  0.00     0.049 C 
BRANCH   7  10
HETATM   10  O1  UNL     1      18.125   4.678  14.975  1.00  0.00    -0.387 OA
ATOM     11  H1  UNL     1      18.799   4.464  14.341  1.00  0.00     0.210 HD
ENDBRANCH   7  10
ENDBRANCH   1   7
BRANCH   1  12
HETATM   12  O2  UNL     1      16.154   5.621  12.105  1.00  0.00    -0.379 OA
ATOM     13  H2  UNL     1      16.405   6.500  11.848  1.00  0.00     0.211 HD
ENDBRANCH   1  12
TORSDOF 3
ENDMDL
MODEL 2
REMARK VINA RESULT: -4.443054774      2.345      3.335
REMARK  3 active torsions:
REMARK  status: ('A' for Active; 'I' for Inactive)
REMARK    1  A    between atoms: C2_2  and  O1_4 
REMARK    2  A    between atoms: C2_2  and  C4_6 
REMARK    3  A    between atoms: C4_6  and  O2_7 
ROOT
HETATM    1  C4  UNL     1      17.478   3.139  12.208  1.00  0.00     0.165 C 
HETATM    2  C5  UNL     1      17.127   2.489  13.507  1.00  0.00     0.217 C 
HETATM    3  O3  UNL     1      16.458   1.501  12.819  1.00  0.00    -0.349 OA
HETATM    4  C6  UNL     1      17.152   1.803  11.630  1.00  0.00     0.232 C 
HETATM    5 CL1  UNL     1      16.079   1.813  10.214  1.00  0.00    -0.072 Cl
HETATM    6 BR1  UNL     1      18.657   0.636  11.313  1.00  0.00    -0.033 Br
ENDROOT
BRANCH   1   7
HETATM    7  C2  UNL     1      16.541   4.199  11.707  1.00  0.00     0.088 C 
HETATM    8  C1  UNL     1      16.223   5.225  12.801  1.00  0.00     0.049 C 
HETATM    9  C3  UNL     1      17.242   4.944  10.598  1.00  0.00     0.049 C 
BRANCH   7  10
HETATM   10  O1  UNL     1      15.320   3.667  11.313  1.00  0.00    -0.387 OA
ATOM     11  H1  UNL     1      15.441   2.725  11.286  1.00  0.00     0.210 HD
ENDBRANCH   7  10
ENDBRANCH   1   7
BRANCH   1  12
HETATM   12  O2  UNL     1      18.790   3.522  12.170  1.00  0.00    -0.379 OA
ATOM     13  H2  UNL     1      19.067   3.817  11.310  1.00  0.00     0.211 HD
ENDBRANCH   1  12
TORSDOF 3
ENDMDL
MODEL 3
REMARK VINA RESULT: -4.384518096      1.266      1.330
REMARK  3 active torsions:
REMARK  status: ('A' for Active; 'I' for Inactive)
REMARK    1  A    between atoms: C2_2  and  O1_4 
REMARK    2  A    between atoms: C2_2  and  C4_6 
REMARK    3  A    between atoms: C4_6  and  O2_7 
ROOT
HETATM    1  C4  UNL     1      17.258   4.351  11.605  1.00  0.00     0.165 C 
HETATM    2  C5  UNL     1      18.610   4.194  10.987  1.00  0.00     0.217 C 
HETATM    3  O3  UNL     1      18.788   3.030  11.702  1.00  0.00    -0.349 OA
HETATM    4  C6  UNL     1      17.400   2.898  11.912  1.00  0.00     0.232 C 
HETATM    5 CL1  UNL     1      17.019   2.419  13.580  1.00  0.00    -0.072 Cl
HETATM    6 BR1  UNL     1      16.556   1.690  10.665  1.00  0.00    -0.033 Br
ENDROOT
BRANCH   1   7
HETATM    7  C2  UNL     1      17.178   5.174  12.857  1.00  0.00     0.088 C 
HETATM    8  C1  UNL     1      17.342   6.668  12.554  1.00  0.00     0.049 C 
HETATM    9  C3  UNL     1      15.797   4.994  13.437  1.00  0.00     0.049 C 
BRANCH   7  10
HETATM   10  O1  UNL     1      18.188   4.851  13.754  1.00  0.00    -0.387 OA
ATOM     11  H1  UNL     1      17.982   5.313  14.558  1.00  0.00     0.210 HD
ENDBRANCH   7  10
ENDBRANCH   1   7
BRANCH   1  12
HETATM   12  O2  UNL     1      16.314   4.693  10.677  1.00  0.00    -0.379 OA
ATOM     13  H2  UNL     1      15.593   5.191  11.046  1.00  0.00     0.211 HD
ENDBRANCH   1  12
TORSDOF 3
ENDMDL
MODEL 4
REMARK VINA RESULT: -4.360534349      1.932      3.421
REMARK  3 active torsions:
REMARK  status: ('A' for Active; 'I' for Inactive)
REMARK    1  A    between atoms: C2_2  and  O1_4 
REMARK    2  A    between atoms: C2_2  and  C4_6 
REMARK    3  A    between atoms: C4_6  and  O2_7 
ROOT
HETATM    1  C4  UNL     1      17.623   4.734  12.347  1.00  0.00     0.165 C 
HETATM    2  C5  UNL     1      16.534   5.695  12.696  1.00  0.00     0.217 C 
HETATM    3  O3  UNL     1      15.617   4.672  12.603  1.00  0.00    -0.349 OA
HETATM    4  C6  UNL     1      16.627   3.699  12.748  1.00  0.00     0.232 C 
HETATM    5 CL1  UNL     1      16.419   2.346  11.616  1.00  0.00    -0.072 Cl
HETATM    6 BR1  UNL     1      16.787   3.035  14.553  1.00  0.00    -0.033 Br
ENDROOT
BRANCH   1   7
HETATM    7  C2  UNL     1      17.984   4.619  10.894  1.00  0.00     0.088 C 
HETATM    8  C1  UNL     1      18.685   5.886  10.391  1.00  0.00     0.049 C 
HETATM    9  C3  UNL     1      18.971   3.487  10.755  1.00  0.00     0.049 C 
BRANCH   7  10
HETATM   10  O1  UNL     1      16.860   4.459  10.094  1.00  0.00    -0.387 OA
ATOM     11  H1  UNL     1      16.787   3.526   9.928  1.00  0.00     0.210 HD
ENDBRANCH   7  10
ENDBRANCH   1   7
BRANCH   1  12
HETATM   12  O2  UNL     1      18.713   4.885  13.159  1.00  0.00    -0.379 OA
ATOM     13  H2  UNL     1      18.609   4.463  14.003  1.00  0.00     0.211 HD
ENDBRANCH   1  12
TORSDOF 3
ENDMDL
MODEL 5
REMARK VINA RESULT: -4.342319601      2.633      3.150
REMARK  3 active torsions:
REMARK  status: ('A' for Active; 'I' for Inactive)
REMARK    1  A    between atoms: C2_2  and  O1_4 
REMARK    2  A    between atoms: C2_2  and  C4_6 
REMARK    3  A    between atoms: C4_6  and  O2_7 
ROOT
HETATM    1  C4  UNL     1      18.022   4.488  11.110  1.00  0.00     0.165 C 
HETATM    2  C5  UNL     1      18.745   5.526  11.905  1.00  0.00     0.217 C 
HETATM    3  O3  UNL     1      19.818   4.671  12.025  1.00  0.00    -0.349 OA
HETATM    4  C6  UNL     1      19.383   3.906  10.924  1.00  0.00     0.232 C 
HETATM    5 CL1  UNL     1      19.526   2.161  11.225  1.00  0.00    -0.072 Cl
HETATM    6 BR1  UNL     1      20.276   4.371   9.277  1.00  0.00    -0.033 Br
ENDROOT
BRANCH   1   7
HETATM    7  C2  UNL     1      17.123   3.557  11.871  1.00  0.00     0.088 C 
HETATM    8  C1  UNL     1      16.043   4.328  12.639  1.00  0.00     0.049 C 
HETATM    9  C3  UNL     1      16.410   2.686  10.868  1.00  0.00     0.049 C 
BRANCH   7  10
HETATM   10  O1  UNL     1      17.823   2.826  12.823  1.00  0.00    -0.387 OA
ATOM     11  H1  UNL     1      18.451   2.302  12.341  1.00  0.00     0.210 HD
ENDBRANCH   7  10
ENDBRANCH   1   7
BRANCH   1  12
HETATM   12  O2  UNL     1      17.425   5.023  10.002  1.00  0.00    -0.379 OA
ATOM     13  H2  UNL     1      16.544   4.696   9.860  1.00  0.00     0.211 HD
ENDBRANCH   1  12
TORSDOF 3
ENDMDL
