MODEL 1
REMARK VINA RESULT: -6.472812769      0.000      0.000
REMARK  4 active torsions:
REMARK  status: ('A' for Active; 'I' for Inactive)
REMARK    1  A    between atoms: N1_2  and  N2_3 
REMARK    2  A    between atoms: N1_2  and  C2_6 
REMARK    3  A    between atoms: C2_6  and  N3_8 
REMARK    4  A    between atoms: N3_8  and  N4_10 
ROOT
HETATM    1  N4  UNL     1      16.477   4.064  13.689  1.00  0.00    -0.307 N 
ATOM      2  H4  UNL     1      16.128   4.778  13.051  1.00  0.00     0.186 HD
HETATM    3  C3  UNL     1      15.914   3.920  14.834  1.00  0.00     0.004 C 
HETATM    4  C4  UNL     1      14.779   4.815  15.154  1.00  0.00     0.060 C 
HETATM    5  C5  UNL     1      14.553   4.959  16.630  1.00  0.00     0.084 C 
HETATM    6  C6  UNL     1      14.508   3.550  17.214  1.00  0.00     0.244 C 
HETATM    7  F1  UNL     1      14.155   3.672  18.535  1.00  0.00    -0.206 F 
HETATM    8  F2  UNL     1      13.598   2.817  16.492  1.00  0.00    -0.206 F 
HETATM    9  C7  UNL     1      15.892   2.994  17.144  1.00  0.00     0.084 C 
HETATM   10  C8  UNL     1      16.433   2.879  15.747  1.00  0.00     0.060 C 
ENDROOT
BRANCH   1  11
HETATM   11  N3  UNL     1      17.553   3.272  13.294  1.00  0.00    -0.275 N 
ATOM     12  H3  UNL     1      18.206   2.944  14.006  1.00  0.00     0.189 HD
BRANCH  11  13
HETATM   13  C2  UNL     1      17.775   2.905  11.951  1.00  0.00     0.206 C 
HETATM   14  S1  UNL     1      18.993   3.563  11.105  1.00  0.00    -0.038 SA
BRANCH  13  15
HETATM   15  N1  UNL     1      16.946   1.963  11.317  1.00  0.00    -0.277 N 
HETATM   16  C1  UNL     1      17.190   0.549  11.604  1.00  0.00     0.179 C 
BRANCH  15  17
HETATM   17  N2  UNL     1      15.924   2.359  10.443  1.00  0.00    -0.341 N 
ATOM     18  H22 UNL     1      16.118   2.590   9.468  1.00  0.00     0.177 HD
ATOM     19  H21 UNL     1      14.957   2.426  10.759  1.00  0.00     0.177 HD
ENDBRANCH  15  17
ENDBRANCH  13  15
ENDBRANCH  11  13
ENDBRANCH   1  11
TORSDOF 4
ENDMDL
MODEL 2
REMARK VINA RESULT: -6.407048570      1.163      1.356
REMARK  4 active torsions:
REMARK  status: ('A' for Active; 'I' for Inactive)
REMARK    1  A    between atoms: N1_2  and  N2_3 
REMARK    2  A    between atoms: N1_2  and  C2_6 
REMARK    3  A    between atoms: C2_6  and  N3_8 
REMARK    4  A    between atoms: N3_8  and  N4_10 
ROOT
HETATM    1  N4  UNL     1      16.452   4.336  13.677  1.00  0.00    -0.307 N 
ATOM      2  H4  UNL     1      16.132   5.127  13.118  1.00  0.00     0.186 HD
HETATM    3  C3  UNL     1      15.897   4.109  14.813  1.00  0.00     0.004 C 
HETATM    4  C4  UNL     1      14.816   5.025  15.240  1.00  0.00     0.060 C 
HETATM    5  C5  UNL     1      14.617   5.034  16.727  1.00  0.00     0.084 C 
HETATM    6  C6  UNL     1      14.506   3.580  17.171  1.00  0.00     0.244 C 
HETATM    7  F1  UNL     1      14.177   3.588  18.505  1.00  0.00    -0.206 F 
HETATM    8  F2  UNL     1      13.548   2.969  16.398  1.00  0.00    -0.206 F 
HETATM    9  C7  UNL     1      15.857   2.962  17.021  1.00  0.00     0.084 C 
HETATM   10  C8  UNL     1      16.372   2.957  15.610  1.00  0.00     0.060 C 
ENDROOT
BRANCH   1  11
HETATM   11  N3  UNL     1      17.478   3.532  13.187  1.00  0.00    -0.275 N 
ATOM     12  H3  UNL     1      18.323   3.421  13.747  1.00  0.00     0.189 HD
BRANCH  11  13
HETATM   13  C2  UNL     1      17.395   2.865  11.948  1.00  0.00     0.206 C 
HETATM   14  S1  UNL     1      16.106   3.067  10.984  1.00  0.00    -0.038 SA
BRANCH  13  15
HETATM   15  N1  UNL     1      18.427   2.010  11.522  1.00  0.00    -0.277 N 
HETATM   16  C1  UNL     1      18.084   0.608  11.277  1.00  0.00     0.179 C 
BRANCH  15  17
HETATM   17  N2  UNL     1      19.736   2.478  11.340  1.00  0.00    -0.341 N 
ATOM     18  H22 UNL     1      19.927   3.461  11.146  1.00  0.00     0.177 HD
ATOM     19  H21 UNL     1      20.535   1.846  11.397  1.00  0.00     0.177 HD
ENDBRANCH  15  17
ENDBRANCH  13  15
ENDBRANCH  11  13
ENDBRANCH   1  11
TORSDOF 4
ENDMDL
MODEL 3
REMARK VINA RESULT: -6.230391322      1.407      1.860
REMARK  4 active torsions:
REMARK  status: ('A' for Active; 'I' for Inactive)
REMARK    1  A    between atoms: N1_2  and  N2_3 
REMARK    2  A    between atoms: N1_2  and  C2_6 
REMARK    3  A    between atoms: C2_6  and  N3_8 
REMARK    4  A    between atoms: N3_8  and  N4_10 
ROOT
HETATM    1  N4  UNL     1      16.450   3.963  13.752  1.00  0.00    -0.307 N 
ATOM      2  H4  UNL     1      16.135   4.690  13.110  1.00  0.00     0.186 HD
HETATM    3  C3  UNL     1      15.878   3.850  14.896  1.00  0.00     0.004 C 
HETATM    4  C4  UNL     1      14.786   4.797  15.211  1.00  0.00     0.060 C 
HETATM    5  C5  UNL     1      14.564   4.956  16.687  1.00  0.00     0.084 C 
HETATM    6  C6  UNL     1      14.453   3.554  17.275  1.00  0.00     0.244 C 
HETATM    7  F1  UNL     1      14.103   3.697  18.595  1.00  0.00    -0.206 F 
HETATM    8  F2  UNL     1      13.510   2.861  16.554  1.00  0.00    -0.206 F 
HETATM    9  C7  UNL     1      15.810   2.934  17.209  1.00  0.00     0.084 C 
HETATM   10  C8  UNL     1      16.347   2.789  15.814  1.00  0.00     0.060 C 
ENDROOT
BRANCH   1  11
HETATM   11  N3  UNL     1      17.488   3.120  13.362  1.00  0.00    -0.275 N 
ATOM     12  H3  UNL     1      18.081   2.709  14.083  1.00  0.00     0.189 HD
BRANCH  11  13
HETATM   13  C2  UNL     1      17.752   2.812  12.012  1.00  0.00     0.206 C 
HETATM   14  S1  UNL     1      16.885   1.681  11.237  1.00  0.00    -0.038 SA
BRANCH  13  15
HETATM   15  N1  UNL     1      18.771   3.479  11.310  1.00  0.00    -0.277 N 
HETATM   16  C1  UNL     1      18.442   4.772  10.710  1.00  0.00     0.179 C 
BRANCH  15  17
HETATM   17  N2  UNL     1      20.054   2.928  11.186  1.00  0.00    -0.341 N 
ATOM     18  H22 UNL     1      20.192   1.960  10.896  1.00  0.00     0.177 HD
ATOM     19  H21 UNL     1      20.887   3.483  11.383  1.00  0.00     0.177 HD
ENDBRANCH  15  17
ENDBRANCH  13  15
ENDBRANCH  11  13
ENDBRANCH   1  11
TORSDOF 4
ENDMDL
MODEL 4
REMARK VINA RESULT: -6.022119644      1.738      2.366
REMARK  4 active torsions:
REMARK  status: ('A' for Active; 'I' for Inactive)
REMARK    1  A    between atoms: N1_2  and  N2_3 
REMARK    2  A    between atoms: N1_2  and  C2_6 
REMARK    3  A    between atoms: C2_6  and  N3_8 
REMARK    4  A    between atoms: N3_8  and  N4_10 
ROOT
HETATM    1  N4  UNL     1      17.943   4.111  14.809  1.00  0.00    -0.307 N 
ATOM      2  H4  UNL     1      18.735   3.481  14.928  1.00  0.00     0.186 HD
HETATM    3  C3  UNL     1      16.862   3.887  15.465  1.00  0.00     0.004 C 
HETATM    4  C4  UNL     1      16.840   2.711  16.363  1.00  0.00     0.060 C 
HETATM    5  C5  UNL     1      15.449   2.223  16.645  1.00  0.00     0.084 C 
HETATM    6  C6  UNL     1      14.629   3.436  17.074  1.00  0.00     0.244 C 
HETATM    7  F1  UNL     1      13.400   2.971  17.474  1.00  0.00    -0.206 F 
HETATM    8  F2  UNL     1      15.305   4.072  18.087  1.00  0.00    -0.206 F 
HETATM    9  C7  UNL     1      14.440   4.296  15.868  1.00  0.00     0.084 C 
HETATM   10  C8  UNL     1      15.723   4.812  15.281  1.00  0.00     0.060 C 
ENDROOT
BRANCH   1  11
HETATM   11  N3  UNL     1      18.063   5.191  13.938  1.00  0.00    -0.275 N 
ATOM     12  H3  UNL     1      18.061   6.135  14.325  1.00  0.00     0.189 HD
BRANCH  11  13
HETATM   13  C2  UNL     1      18.187   5.033  12.542  1.00  0.00     0.206 C 
HETATM   14  S1  UNL     1      18.702   6.260  11.614  1.00  0.00    -0.038 SA
BRANCH  13  15
HETATM   15  N1  UNL     1      17.867   3.810  11.927  1.00  0.00    -0.277 N 
HETATM   16  C1  UNL     1      16.470   3.591  11.549  1.00  0.00     0.179 C 
BRANCH  15  17
HETATM   17  N2  UNL     1      18.845   2.836  11.684  1.00  0.00    -0.341 N 
ATOM     18  H22 UNL     1      19.833   3.080  11.613  1.00  0.00     0.177 HD
ATOM     19  H21 UNL     1      18.593   1.854  11.571  1.00  0.00     0.177 HD
ENDBRANCH  15  17
ENDBRANCH  13  15
ENDBRANCH  11  13
ENDBRANCH   1  11
TORSDOF 4
ENDMDL
MODEL 5
REMARK VINA RESULT: -5.971741370      2.391      3.059
REMARK  4 active torsions:
REMARK  status: ('A' for Active; 'I' for Inactive)
REMARK    1  A    between atoms: N1_2  and  N2_3 
REMARK    2  A    between atoms: N1_2  and  C2_6 
REMARK    3  A    between atoms: C2_6  and  N3_8 
REMARK    4  A    between atoms: N3_8  and  N4_10 
ROOT
HETATM    1  N4  UNL     1      17.920   4.618  14.964  1.00  0.00    -0.307 N 
ATOM      2  H4  UNL     1      18.762   4.044  15.009  1.00  0.00     0.186 HD
HETATM    3  C3  UNL     1      16.855   4.210  15.554  1.00  0.00     0.004 C 
HETATM    4  C4  UNL     1      16.922   2.916  16.268  1.00  0.00     0.060 C 
HETATM    5  C5  UNL     1      15.574   2.279  16.441  1.00  0.00     0.084 C 
HETATM    6  C6  UNL     1      14.649   3.342  17.024  1.00  0.00     0.244 C 
HETATM    7  F1  UNL     1      13.460   2.723  17.321  1.00  0.00    -0.206 F 
HETATM    8  F2  UNL     1      15.257   3.873  18.136  1.00  0.00    -0.206 F 
HETATM    9  C7  UNL     1      14.403   4.353  15.954  1.00  0.00     0.084 C 
HETATM   10  C8  UNL     1      15.643   5.056  15.480  1.00  0.00     0.060 C 
ENDROOT
BRANCH   1  11
HETATM   11  N3  UNL     1      17.959   5.822  14.266  1.00  0.00    -0.275 N 
ATOM     12  H3  UNL     1      17.906   6.695  14.791  1.00  0.00     0.189 HD
BRANCH  11  13
HETATM   13  C2  UNL     1      18.067   5.883  12.862  1.00  0.00     0.206 C 
HETATM   14  S1  UNL     1      17.044   6.794  11.992  1.00  0.00    -0.038 SA
BRANCH  13  15
HETATM   15  N1  UNL     1      19.063   5.157  12.186  1.00  0.00    -0.277 N 
HETATM   16  C1  UNL     1      18.627   4.207  11.161  1.00  0.00     0.179 C 
BRANCH  15  17
HETATM   17  N2  UNL     1      20.423   5.332  12.480  1.00  0.00    -0.341 N 
ATOM     18  H22 UNL     1      20.935   4.658  13.049  1.00  0.00     0.177 HD
ATOM     19  H21 UNL     1      20.938   6.140  12.130  1.00  0.00     0.177 HD
ENDBRANCH  15  17
ENDBRANCH  13  15
ENDBRANCH  11  13
ENDBRANCH   1  11
TORSDOF 4
ENDMDL
