MODEL 1
REMARK VINA RESULT: -7.947135836      0.000      0.000
REMARK  7 active torsions:
REMARK  status: ('A' for Active; 'I' for Inactive)
REMARK    1  A    between atoms: C2_2  and  C3_3 
REMARK    2  A    between atoms: C3_3  and  C4_4 
REMARK    3  A    between atoms: C3_3  and  N3_23 
REMARK       I    between atoms: C4_4  and  N1_6 
REMARK    4  A    between atoms: N1_6  and  C5_8 
REMARK    5  A    between atoms: C8_12  and  C9_13 
REMARK    6  A    between atoms: C10_14  and  N2_15 
REMARK    7  A    between atoms: C11_18  and  O4_19 
ROOT
HETATM    1  C4  UNL     1      17.952 -16.083  22.312  1.00  0.00     0.245 C 
HETATM    2  O1  UNL     1      17.775 -16.857  21.364  1.00  0.00    -0.271 OA
HETATM    3  N1  UNL     1      17.656 -14.719  22.111  1.00  0.00    -0.323 N 
ATOM      4  H1  UNL     1      17.808 -14.083  22.894  1.00  0.00     0.169 HD
ENDROOT
BRANCH   3   5
HETATM    5  C5  UNL     1      17.167 -14.170  20.909  1.00  0.00     0.065 A 
HETATM    6  C6  UNL     1      18.049 -13.732  19.958  1.00  0.00     0.062 A 
HETATM    7 CL1  UNL     1      19.805 -13.802  20.172  1.00  0.00    -0.082 Cl
HETATM    8  C7  UNL     1      17.525 -13.216  18.805  1.00  0.00     0.040 A 
HETATM    9  C8  UNL     1      16.137 -13.111  18.544  1.00  0.00     0.001 A 
HETATM   10  C11 UNL     1      15.268 -13.547  19.501  1.00  0.00     0.086 A 
HETATM   11  C13 UNL     1      15.814 -14.077  20.680  1.00  0.00     0.001 A 
HETATM   12  C14 UNL     1      14.847 -14.547  21.703  1.00  0.00     0.054 C 
BRANCH   9  13
HETATM   13  C9  UNL     1      15.747 -12.550  17.288  1.00  0.00     0.038 C 
HETATM   14  C10 UNL     1      16.403 -11.781  16.488  1.00  0.00     0.168 C 
BRANCH  14  15
HETATM   15  N2  UNL     1      15.808 -11.322  15.232  1.00  0.00    -0.127 N 
HETATM   16  O2  UNL     1      14.678 -10.823  15.277  1.00  0.00    -0.532 OA
HETATM   17  O3  UNL     1      16.483 -11.442  14.053  1.00  0.00    -0.532 OA
ENDBRANCH  14  15
ENDBRANCH   9  13
BRANCH  10  18
HETATM   18  O4  UNL     1      13.880 -13.488  19.380  1.00  0.00    -0.354 OA
HETATM   19  C12 UNL     1      13.279 -12.241  19.816  1.00  0.00     0.210 C 
ENDBRANCH  10  18
ENDBRANCH   3   5
BRANCH   1  20
HETATM   20  C3  UNL     1      18.462 -16.494  23.662  1.00  0.00     0.186 C 
BRANCH  20  21
HETATM   21  C2  UNL     1      17.296 -16.389  24.586  1.00  0.00     0.031 C 
HETATM   22  C1  UNL     1      16.833 -17.734  25.115  1.00  0.00     0.007 C 
ENDBRANCH  20  21
BRANCH  20  23
HETATM   23  N3  UNL     1      19.641 -15.811  24.043  1.00  0.00    -0.293 N 
HETATM   24  C15 UNL     1      19.584 -14.750  24.916  1.00  0.00     0.144 A 
HETATM   25  C16 UNL     1      20.703 -14.063  25.305  1.00  0.00     0.199 A 
HETATM   26  F1  UNL     1      20.659 -13.018  26.162  1.00  0.00    -0.199 F 
HETATM   27  C17 UNL     1      21.930 -14.445  24.810  1.00  0.00     0.289 A 
HETATM   28  O5  UNL     1      22.999 -13.845  25.138  1.00  0.00    -0.265 OA
HETATM   29  N4  UNL     1      21.961 -15.484  23.959  1.00  0.00    -0.273 N 
HETATM   30  C18 UNL     1      20.842 -16.162  23.575  1.00  0.00     0.330 A 
ATOM     31  H4  UNL     1      22.862 -15.779  23.583  1.00  0.00     0.173 HD
HETATM   32  O6  UNL     1      21.082 -17.099  22.773  1.00  0.00    -0.246 OA
ENDBRANCH  20  23
ENDBRANCH   1  20
TORSDOF 7
ENDMDL
MODEL 2
REMARK VINA RESULT: -7.810866618      1.344      1.503
REMARK  7 active torsions:
REMARK  status: ('A' for Active; 'I' for Inactive)
REMARK    1  A    between atoms: C2_2  and  C3_3 
REMARK    2  A    between atoms: C3_3  and  C4_4 
REMARK    3  A    between atoms: C3_3  and  N3_23 
REMARK       I    between atoms: C4_4  and  N1_6 
REMARK    4  A    between atoms: N1_6  and  C5_8 
REMARK    5  A    between atoms: C8_12  and  C9_13 
REMARK    6  A    between atoms: C10_14  and  N2_15 
REMARK    7  A    between atoms: C11_18  and  O4_19 
ROOT
HETATM    1  C4  UNL     1      19.035 -15.879  22.484  1.00  0.00     0.245 C 
HETATM    2  O1  UNL     1      19.261 -16.612  21.514  1.00  0.00    -0.271 OA
HETATM    3  N1  UNL     1      18.294 -14.700  22.259  1.00  0.00    -0.323 N 
ATOM      4  H1  UNL     1      18.113 -14.097  23.061  1.00  0.00     0.169 HD
ENDROOT
BRANCH   3   5
HETATM    5  C5  UNL     1      17.785 -14.296  21.009  1.00  0.00     0.065 A 
HETATM    6  C6  UNL     1      18.588 -13.599  20.147  1.00  0.00     0.062 A 
HETATM    7 CL1  UNL     1      20.256 -13.153  20.535  1.00  0.00    -0.082 Cl
HETATM    8  C7  UNL     1      18.050 -13.237  18.942  1.00  0.00     0.040 A 
HETATM    9  C8  UNL     1      16.725 -13.540  18.543  1.00  0.00     0.001 A 
HETATM   10  C11 UNL     1      15.934 -14.233  19.413  1.00  0.00     0.086 A 
HETATM   11  C13 UNL     1      16.494 -14.601  20.645  1.00  0.00     0.001 A 
HETATM   12  C14 UNL     1      15.613 -15.356  21.571  1.00  0.00     0.054 C 
BRANCH   9  13
HETATM   13  C9  UNL     1      16.313 -13.094  17.249  1.00  0.00     0.038 C 
HETATM   14  C10 UNL     1      16.282 -11.903  16.758  1.00  0.00     0.168 C 
BRANCH  14  15
HETATM   15  N2  UNL     1      15.823 -11.667  15.388  1.00  0.00    -0.127 N 
HETATM   16  O2  UNL     1      14.791 -11.006  15.231  1.00  0.00    -0.532 OA
HETATM   17  O3  UNL     1      16.516 -12.163  14.322  1.00  0.00    -0.532 OA
ENDBRANCH  14  15
ENDBRANCH   9  13
BRANCH  10  18
HETATM   18  O4  UNL     1      14.610 -14.583  19.153  1.00  0.00    -0.354 OA
HETATM   19  C12 UNL     1      13.643 -13.519  19.357  1.00  0.00     0.210 C 
ENDBRANCH  10  18
ENDBRANCH   3   5
BRANCH   1  20
HETATM   20  C3  UNL     1      19.496 -16.156  23.885  1.00  0.00     0.186 C 
BRANCH  20  21
HETATM   21  C2  UNL     1      18.705 -15.245  24.761  1.00  0.00     0.031 C 
HETATM   22  C1  UNL     1      17.686 -15.978  25.615  1.00  0.00     0.007 C 
ENDBRANCH  20  21
BRANCH  20  23
HETATM   23  N3  UNL     1      20.903 -16.113  24.027  1.00  0.00    -0.293 N 
HETATM   24  C15 UNL     1      21.538 -14.936  24.349  1.00  0.00     0.144 A 
HETATM   25  C16 UNL     1      22.898 -14.855  24.492  1.00  0.00     0.199 A 
HETATM   26  F1  UNL     1      23.533 -13.704  24.809  1.00  0.00    -0.199 F 
HETATM   27  C17 UNL     1      23.660 -15.987  24.308  1.00  0.00     0.289 A 
HETATM   28  O5  UNL     1      24.923 -15.970  24.429  1.00  0.00    -0.265 OA
HETATM   29  N4  UNL     1      23.018 -17.125  23.992  1.00  0.00    -0.273 N 
HETATM   30  C18 UNL     1      21.664 -17.197  23.852  1.00  0.00     0.330 A 
ATOM     31  H4  UNL     1      23.568 -17.972  23.852  1.00  0.00     0.173 HD
HETATM   32  O6  UNL     1      21.258 -18.348  23.553  1.00  0.00    -0.246 OA
ENDBRANCH  20  23
ENDBRANCH   1  20
TORSDOF 7
ENDMDL
MODEL 3
REMARK VINA RESULT: -7.477438111      3.223      8.116
REMARK  7 active torsions:
REMARK  status: ('A' for Active; 'I' for Inactive)
REMARK    1  A    between atoms: C2_2  and  C3_3 
REMARK    2  A    between atoms: C3_3  and  C4_4 
REMARK    3  A    between atoms: C3_3  and  N3_23 
REMARK       I    between atoms: C4_4  and  N1_6 
REMARK    4  A    between atoms: N1_6  and  C5_8 
REMARK    5  A    between atoms: C8_12  and  C9_13 
REMARK    6  A    between atoms: C10_14  and  N2_15 
REMARK    7  A    between atoms: C11_18  and  O4_19 
ROOT
HETATM    1  C4  UNL     1      15.131 -15.344  20.891  1.00  0.00     0.245 C 
HETATM    2  O1  UNL     1      15.888 -15.752  20.003  1.00  0.00    -0.271 OA
HETATM    3  N1  UNL     1      15.708 -14.946  22.115  1.00  0.00    -0.323 N 
ATOM      4  H1  UNL     1      15.080 -14.614  22.847  1.00  0.00     0.169 HD
ENDROOT
BRANCH   3   5
HETATM    5  C5  UNL     1      17.087 -14.973  22.402  1.00  0.00     0.065 A 
HETATM    6  C6  UNL     1      17.877 -13.921  22.022  1.00  0.00     0.062 A 
HETATM    7 CL1  UNL     1      17.247 -12.511  21.156  1.00  0.00    -0.082 Cl
HETATM    8  C7  UNL     1      19.207 -13.991  22.331  1.00  0.00     0.040 A 
HETATM    9  C8  UNL     1      19.806 -15.078  23.013  1.00  0.00     0.001 A 
HETATM   10  C11 UNL     1      19.008 -16.122  23.383  1.00  0.00     0.086 A 
HETATM   11  C13 UNL     1      17.645 -16.042  23.064  1.00  0.00     0.001 A 
HETATM   12  C14 UNL     1      16.800 -17.189  23.481  1.00  0.00     0.054 C 
BRANCH   9  13
HETATM   13  C9  UNL     1      21.211 -15.001  23.265  1.00  0.00     0.038 C 
HETATM   14  C10 UNL     1      21.840 -14.595  24.314  1.00  0.00     0.168 C 
BRANCH  14  15
HETATM   15  N2  UNL     1      23.303 -14.605  24.363  1.00  0.00    -0.127 N 
HETATM   16  O2  UNL     1      23.871 -13.616  24.838  1.00  0.00    -0.532 OA
HETATM   17  O3  UNL     1      24.011 -15.675  23.900  1.00  0.00    -0.532 OA
ENDBRANCH  14  15
ENDBRANCH   9  13
BRANCH  10  18
HETATM   18  O4  UNL     1      19.470 -17.259  24.046  1.00  0.00    -0.354 OA
HETATM   19  C12 UNL     1      19.521 -17.148  25.492  1.00  0.00     0.210 C 
ENDBRANCH  10  18
ENDBRANCH   3   5
BRANCH   1  20
HETATM   20  C3  UNL     1      13.640 -15.244  20.758  1.00  0.00     0.186 C 
BRANCH  20  21
HETATM   21  C2  UNL     1      13.294 -15.968  19.501  1.00  0.00     0.031 C 
HETATM   22  C1  UNL     1      11.825 -16.343  19.415  1.00  0.00     0.007 C 
ENDBRANCH  20  21
BRANCH  20  23
HETATM   23  N3  UNL     1      13.158 -13.919  20.883  1.00  0.00    -0.293 N 
HETATM   24  C15 UNL     1      12.377 -13.557  21.956  1.00  0.00     0.144 A 
HETATM   25  C16 UNL     1      11.890 -12.287  22.109  1.00  0.00     0.199 A 
HETATM   26  F1  UNL     1      11.122 -11.919  23.160  1.00  0.00    -0.199 F 
HETATM   27  C17 UNL     1      12.190 -11.335  21.160  1.00  0.00     0.289 A 
HETATM   28  O5  UNL     1      11.766 -10.142  21.253  1.00  0.00    -0.265 OA
HETATM   29  N4  UNL     1      12.953 -11.712  20.121  1.00  0.00    -0.273 N 
HETATM   30  C18 UNL     1      13.434 -12.979  19.975  1.00  0.00     0.330 A 
ATOM     31  H4  UNL     1      13.184 -11.019  19.409  1.00  0.00     0.173 HD
HETATM   32  O6  UNL     1      14.125 -13.131  18.936  1.00  0.00    -0.246 OA
ENDBRANCH  20  23
ENDBRANCH   1  20
TORSDOF 7
ENDMDL
MODEL 4
REMARK VINA RESULT: -7.401974439      1.726      2.131
REMARK  7 active torsions:
REMARK  status: ('A' for Active; 'I' for Inactive)
REMARK    1  A    between atoms: C2_2  and  C3_3 
REMARK    2  A    between atoms: C3_3  and  C4_4 
REMARK    3  A    between atoms: C3_3  and  N3_23 
REMARK       I    between atoms: C4_4  and  N1_6 
REMARK    4  A    between atoms: N1_6  and  C5_8 
REMARK    5  A    between atoms: C8_12  and  C9_13 
REMARK    6  A    between atoms: C10_14  and  N2_15 
REMARK    7  A    between atoms: C11_18  and  O4_19 
ROOT
HETATM    1  C4  UNL     1      19.951 -16.413  22.142  1.00  0.00     0.245 C 
HETATM    2  O1  UNL     1      20.238 -16.673  20.968  1.00  0.00    -0.271 OA
HETATM    3  N1  UNL     1      18.893 -15.508  22.374  1.00  0.00    -0.323 N 
ATOM      4  H1  UNL     1      18.662 -15.292  23.343  1.00  0.00     0.169 HD
ENDROOT
BRANCH   3   5
HETATM    5  C5  UNL     1      18.134 -14.881  21.365  1.00  0.00     0.065 A 
HETATM    6  C6  UNL     1      18.691 -13.867  20.633  1.00  0.00     0.062 A 
HETATM    7 CL1  UNL     1      20.338 -13.278  20.905  1.00  0.00    -0.082 Cl
HETATM    8  C7  UNL     1      17.917 -13.298  19.660  1.00  0.00     0.040 A 
HETATM    9  C8  UNL     1      16.587 -13.694  19.372  1.00  0.00     0.001 A 
HETATM   10  C11 UNL     1      16.043 -14.704  20.112  1.00  0.00     0.086 A 
HETATM   11  C13 UNL     1      16.844 -15.283  21.106  1.00  0.00     0.001 A 
HETATM   12  C14 UNL     1      16.230 -16.381  21.894  1.00  0.00     0.054 C 
BRANCH   9  13
HETATM   13  C9  UNL     1      15.910 -13.001  18.321  1.00  0.00     0.038 C 
HETATM   14  C10 UNL     1      16.363 -12.560  17.198  1.00  0.00     0.168 C 
BRANCH  14  15
HETATM   15  N2  UNL     1      15.483 -11.875  16.250  1.00  0.00    -0.127 N 
HETATM   16  O2  UNL     1      14.414 -11.423  16.679  1.00  0.00    -0.532 OA
HETATM   17  O3  UNL     1      15.834 -11.740  14.939  1.00  0.00    -0.532 OA
ENDBRANCH  14  15
ENDBRANCH   9  13
BRANCH  10  18
HETATM   18  O4  UNL     1      14.744 -15.181  19.943  1.00  0.00    -0.354 OA
HETATM   19  C12 UNL     1      13.715 -14.407  20.613  1.00  0.00     0.210 C 
ENDBRANCH  10  18
ENDBRANCH   3   5
BRANCH   1  20
HETATM   20  C3  UNL     1      20.649 -16.990  23.337  1.00  0.00     0.186 C 
BRANCH  20  21
HETATM   21  C2  UNL     1      20.016 -18.319  23.575  1.00  0.00     0.031 C 
HETATM   22  C1  UNL     1      20.927 -19.483  23.228  1.00  0.00     0.007 C 
ENDBRANCH  20  21
BRANCH  20  23
HETATM   23  N3  UNL     1      20.697 -16.101  24.437  1.00  0.00    -0.293 N 
HETATM   24  C15 UNL     1      19.863 -16.277  25.516  1.00  0.00     0.144 A 
HETATM   25  C16 UNL     1      19.878 -15.436  26.596  1.00  0.00     0.199 A 
HETATM   26  F1  UNL     1      19.063 -15.600  27.663  1.00  0.00    -0.199 F 
HETATM   27  C17 UNL     1      20.758 -14.377  26.609  1.00  0.00     0.289 A 
HETATM   28  O5  UNL     1      20.816 -13.567  27.585  1.00  0.00    -0.265 OA
HETATM   29  N4  UNL     1      21.562 -14.224  25.544  1.00  0.00    -0.273 N 
HETATM   30  C18 UNL     1      21.540 -15.066  24.471  1.00  0.00     0.330 A 
ATOM     31  H4  UNL     1      22.219 -13.444  25.537  1.00  0.00     0.173 HD
HETATM   32  O6  UNL     1      22.367 -14.752  23.578  1.00  0.00    -0.246 OA
ENDBRANCH  20  23
ENDBRANCH   1  20
TORSDOF 7
ENDMDL
MODEL 5
REMARK VINA RESULT: -7.267267190      3.449      8.249
REMARK  7 active torsions:
REMARK  status: ('A' for Active; 'I' for Inactive)
REMARK    1  A    between atoms: C2_2  and  C3_3 
REMARK    2  A    between atoms: C3_3  and  C4_4 
REMARK    3  A    between atoms: C3_3  and  N3_23 
REMARK       I    between atoms: C4_4  and  N1_6 
REMARK    4  A    between atoms: N1_6  and  C5_8 
REMARK    5  A    between atoms: C8_12  and  C9_13 
REMARK    6  A    between atoms: C10_14  and  N2_15 
REMARK    7  A    between atoms: C11_18  and  O4_19 
ROOT
HETATM    1  C4  UNL     1      15.945 -13.344  21.161  1.00  0.00     0.245 C 
HETATM    2  O1  UNL     1      16.474 -12.236  21.310  1.00  0.00    -0.271 OA
HETATM    3  N1  UNL     1      16.690 -14.483  21.528  1.00  0.00    -0.323 N 
ATOM      4  H1  UNL     1      16.252 -15.395  21.400  1.00  0.00     0.169 HD
ENDROOT
BRANCH   3   5
HETATM    5  C5  UNL     1      17.995 -14.455  22.060  1.00  0.00     0.065 A 
HETATM    6  C6  UNL     1      19.041 -14.072  21.262  1.00  0.00     0.062 A 
HETATM    7 CL1  UNL     1      18.838 -13.622  19.562  1.00  0.00    -0.082 Cl
HETATM    8  C7  UNL     1      20.286 -14.051  21.827  1.00  0.00     0.040 A 
HETATM    9  C8  UNL     1      20.551 -14.401  23.174  1.00  0.00     0.001 A 
HETATM   10  C11 UNL     1      19.501 -14.784  23.957  1.00  0.00     0.086 A 
HETATM   11  C13 UNL     1      18.227 -14.800  23.371  1.00  0.00     0.001 A 
HETATM   12  C14 UNL     1      17.102 -15.217  24.245  1.00  0.00     0.054 C 
BRANCH   9  13
HETATM   13  C9  UNL     1      21.909 -14.325  23.616  1.00  0.00     0.038 C 
HETATM   14  C10 UNL     1      22.703 -15.263  24.004  1.00  0.00     0.168 C 
BRANCH  14  15
HETATM   15  N2  UNL     1      24.075 -14.962  24.414  1.00  0.00    -0.127 N 
HETATM   16  O2  UNL     1      24.887 -15.895  24.442  1.00  0.00    -0.532 OA
HETATM   17  O3  UNL     1      24.442 -13.693  24.752  1.00  0.00    -0.532 OA
ENDBRANCH  14  15
ENDBRANCH   9  13
BRANCH  10  18
HETATM   18  O4  UNL     1      19.622 -15.167  25.293  1.00  0.00    -0.354 OA
HETATM   19  C12 UNL     1      19.817 -16.589  25.507  1.00  0.00     0.210 C 
ENDBRANCH  10  18
ENDBRANCH   3   5
BRANCH   1  20
HETATM   20  C3  UNL     1      14.564 -13.560  20.614  1.00  0.00     0.186 C 
BRANCH  20  21
HETATM   21  C2  UNL     1      14.565 -12.949  19.254  1.00  0.00     0.031 C 
HETATM   22  C1  UNL     1      15.309 -13.784  18.227  1.00  0.00     0.007 C 
ENDBRANCH  20  21
BRANCH  20  23
HETATM   23  N3  UNL     1      13.543 -13.142  21.500  1.00  0.00    -0.293 N 
HETATM   24  C15 UNL     1      13.382 -11.810  21.803  1.00  0.00     0.144 A 
HETATM   25  C16 UNL     1      12.408 -11.368  22.658  1.00  0.00     0.199 A 
HETATM   26  F1  UNL     1      12.239 -10.062  22.963  1.00  0.00    -0.199 F 
HETATM   27  C17 UNL     1      11.556 -12.285  23.235  1.00  0.00     0.289 A 
HETATM   28  O5  UNL     1      10.635 -11.930  24.033  1.00  0.00    -0.265 OA
HETATM   29  N4  UNL     1      11.734 -13.580  22.925  1.00  0.00    -0.273 N 
HETATM   30  C18 UNL     1      12.707 -14.012  22.073  1.00  0.00     0.330 A 
ATOM     31  H4  UNL     1      11.112 -14.270  23.344  1.00  0.00     0.173 HD
HETATM   32  O6  UNL     1      12.709 -15.258  21.915  1.00  0.00    -0.246 OA
ENDBRANCH  20  23
ENDBRANCH   1  20
TORSDOF 7
ENDMDL
