MODEL 1
REMARK VINA RESULT: -7.291646748      0.000      0.000
REMARK  7 active torsions:
REMARK  status: ('A' for Active; 'I' for Inactive)
REMARK    1  A    between atoms: N1_2  and  C2_3 
REMARK    2  A    between atoms: N1_2  and  S2_21 
REMARK    3  A    between atoms: C2_3  and  C3_4 
REMARK    4  A    between atoms: C3_4  and  C4_5 
REMARK    5  A    between atoms: C4_5  and  C5_6 
REMARK    6  A    between atoms: C5_6  and  N2_7 
REMARK    7  A    between atoms: S2_21  and  C10_24 
ROOT
HETATM    1  C5  UNL     1      13.323 -12.268  21.074  1.00  0.00     0.231 C 
HETATM    2  C6  UNL     1      12.708 -10.943  21.244  1.00  0.00     0.091 C 
HETATM    3  N3  UNL     1      12.643 -10.110  20.319  1.00  0.00    -0.394 N 
ATOM      4  H31 UNL     1      12.216  -9.191  20.437  1.00  0.00     0.156 HD
ATOM      5  H32 UNL     1      13.050 -10.348  19.415  1.00  0.00     0.156 HD
HETATM    6  S1  UNL     1      11.981 -10.519  22.859  1.00  0.00    -0.036 SA
HETATM    7  C7  UNL     1      11.282 -12.097  23.443  1.00  0.00     0.199 C 
HETATM    8  O1  UNL     1      10.817 -12.218  24.519  1.00  0.00    -0.285 OA
HETATM    9  C8  UNL     1      11.353 -13.191  22.458  1.00  0.00     0.172 C 
HETATM   10  C9  UNL     1      12.703 -13.340  21.900  1.00  0.00     0.177 C 
HETATM   11  O2  UNL     1      13.330 -14.356  22.114  1.00  0.00    -0.294 OA
ENDROOT
BRANCH   1  12
HETATM   12  C4  UNL     1      14.819 -12.191  21.370  1.00  0.00     0.056 C 
BRANCH  12  13
HETATM   13  C3  UNL     1      15.592 -12.620  20.183  1.00  0.00     0.024 C 
BRANCH  13  14
HETATM   14  C2  UNL     1      16.794 -13.505  20.587  1.00  0.00     0.135 C 
BRANCH  14  15
HETATM   15  N1  UNL     1      16.339 -14.836  20.586  1.00  0.00    -0.311 N 
HETATM   16  C1  UNL     1      15.701 -15.299  19.412  1.00  0.00     0.163 C 
BRANCH  15  17
HETATM   17  S2  UNL     1      16.919 -15.942  21.677  1.00  0.00     0.268 S 
HETATM   18  O3  UNL     1      17.594 -17.082  20.923  1.00  0.00    -0.200 OA
HETATM   19  O4  UNL     1      15.818 -16.614  22.477  1.00  0.00    -0.200 OA
BRANCH  17  20
HETATM   20  C10 UNL     1      18.080 -15.358  22.847  1.00  0.00     0.143 A 
HETATM   21  S3  UNL     1      18.025 -15.234  24.540  1.00  0.00    -0.063 SA
HETATM   22  C11 UNL     1      19.566 -14.568  24.823  1.00  0.00     0.077 A 
HETATM   23 CL1  UNL     1      20.327 -14.118  26.362  1.00  0.00    -0.076 Cl
HETATM   24  C12 UNL     1      20.090 -14.459  23.570  1.00  0.00     0.057 A 
HETATM   25  C13 UNL     1      19.320 -14.870  22.532  1.00  0.00     0.066 A 
HETATM   26 CL2  UNL     1      19.926 -14.765  20.836  1.00  0.00    -0.082 Cl
ENDBRANCH  17  20
ENDBRANCH  15  17
ENDBRANCH  14  15
ENDBRANCH  13  14
ENDBRANCH  12  13
ENDBRANCH   1  12
BRANCH   1  27
HETATM   27  N2  UNL     1      13.105 -12.642  19.678  1.00  0.00    -0.057 N 
ATOM     28  H23 UNL     1      13.936 -13.062  19.262  1.00  0.00     0.276 HD
ATOM     29  H22 UNL     1      12.475 -13.439  19.590  1.00  0.00     0.276 HD
ATOM     30  H21 UNL     1      12.778 -11.835  19.146  1.00  0.00     0.276 HD
ENDBRANCH   1  27
TORSDOF 7
ENDMDL
MODEL 2
REMARK VINA RESULT: -7.071723753      3.792      7.154
REMARK  7 active torsions:
REMARK  status: ('A' for Active; 'I' for Inactive)
REMARK    1  A    between atoms: N1_2  and  C2_3 
REMARK    2  A    between atoms: N1_2  and  S2_21 
REMARK    3  A    between atoms: C2_3  and  C3_4 
REMARK    4  A    between atoms: C3_4  and  C4_5 
REMARK    5  A    between atoms: C4_5  and  C5_6 
REMARK    6  A    between atoms: C5_6  and  N2_7 
REMARK    7  A    between atoms: S2_21  and  C10_24 
ROOT
HETATM    1  C5  UNL     1      18.933 -15.493  22.465  1.00  0.00     0.231 C 
HETATM    2  C6  UNL     1      18.364 -16.026  23.712  1.00  0.00     0.091 C 
HETATM    3  N3  UNL     1      17.750 -17.109  23.761  1.00  0.00    -0.394 N 
ATOM      4  H31 UNL     1      17.356 -17.478  24.626  1.00  0.00     0.156 HD
ATOM      5  H32 UNL     1      17.619 -17.638  22.899  1.00  0.00     0.156 HD
HETATM    6  S1  UNL     1      18.599 -15.080  25.251  1.00  0.00    -0.036 SA
HETATM    7  C7  UNL     1      20.262 -14.362  25.064  1.00  0.00     0.199 C 
HETATM    8  O1  UNL     1      20.706 -13.595  25.841  1.00  0.00    -0.285 OA
HETATM    9  C8  UNL     1      20.989 -14.823  23.868  1.00  0.00     0.172 C 
HETATM   10  C9  UNL     1      20.177 -14.698  22.651  1.00  0.00     0.177 C 
HETATM   11  O2  UNL     1      20.524 -13.933  21.776  1.00  0.00    -0.294 OA
ENDROOT
BRANCH   1  12
HETATM   12  C4  UNL     1      17.890 -14.653  21.732  1.00  0.00     0.056 C 
BRANCH  12  13
HETATM   13  C3  UNL     1      17.240 -15.461  20.676  1.00  0.00     0.024 C 
BRANCH  13  14
HETATM   14  C2  UNL     1      15.725 -15.166  20.598  1.00  0.00     0.135 C 
BRANCH  14  15
HETATM   15  N1  UNL     1      15.521 -14.381  19.448  1.00  0.00    -0.311 N 
HETATM   16  C1  UNL     1      15.435 -15.061  18.210  1.00  0.00     0.163 C 
BRANCH  15  17
HETATM   17  S2  UNL     1      14.941 -12.832  19.557  1.00  0.00     0.268 S 
HETATM   18  O3  UNL     1      14.406 -12.400  18.197  1.00  0.00    -0.200 OA
HETATM   19  O4  UNL     1      16.023 -11.819  19.880  1.00  0.00    -0.200 OA
BRANCH  17  20
HETATM   20  C10 UNL     1      13.657 -12.553  20.712  1.00  0.00     0.143 A 
HETATM   21  S3  UNL     1      13.442 -11.369  21.910  1.00  0.00    -0.063 SA
HETATM   22  C11 UNL     1      11.939 -11.869  22.533  1.00  0.00     0.077 A 
HETATM   23 CL1  UNL     1      10.975 -11.158  23.843  1.00  0.00    -0.076 Cl
HETATM   24  C12 UNL     1      11.640 -12.963  21.777  1.00  0.00     0.057 A 
HETATM   25  C13 UNL     1      12.532 -13.327  20.823  1.00  0.00     0.066 A 
HETATM   26 CL2  UNL     1      12.226 -14.761  19.773  1.00  0.00    -0.082 Cl
ENDBRANCH  17  20
ENDBRANCH  15  17
ENDBRANCH  14  15
ENDBRANCH  13  14
ENDBRANCH  12  13
ENDBRANCH   1  12
BRANCH   1  27
HETATM   27  N2  UNL     1      19.299 -16.655  21.657  1.00  0.00    -0.057 N 
ATOM     28  H23 UNL     1      19.571 -17.450  22.234  1.00  0.00     0.276 HD
ATOM     29  H22 UNL     1      18.490 -17.073  21.199  1.00  0.00     0.276 HD
ATOM     30  H21 UNL     1      20.027 -16.402  20.989  1.00  0.00     0.276 HD
ENDBRANCH   1  27
TORSDOF 7
ENDMDL
MODEL 3
REMARK VINA RESULT: -7.042442036      1.513      1.715
REMARK  7 active torsions:
REMARK  status: ('A' for Active; 'I' for Inactive)
REMARK    1  A    between atoms: N1_2  and  C2_3 
REMARK    2  A    between atoms: N1_2  and  S2_21 
REMARK    3  A    between atoms: C2_3  and  C3_4 
REMARK    4  A    between atoms: C3_4  and  C4_5 
REMARK    5  A    between atoms: C4_5  and  C5_6 
REMARK    6  A    between atoms: C5_6  and  N2_7 
REMARK    7  A    between atoms: S2_21  and  C10_24 
ROOT
HETATM    1  C5  UNL     1      13.511 -12.336  21.003  1.00  0.00     0.231 C 
HETATM    2  C6  UNL     1      12.785 -11.060  21.089  1.00  0.00     0.091 C 
HETATM    3  N3  UNL     1      12.694 -10.274  20.127  1.00  0.00    -0.394 N 
ATOM      4  H31 UNL     1      12.191  -9.389  20.187  1.00  0.00     0.156 HD
ATOM      5  H32 UNL     1      13.158 -10.514  19.251  1.00  0.00     0.156 HD
HETATM    6  S1  UNL     1      11.958 -10.632  22.654  1.00  0.00    -0.036 SA
HETATM    7  C7  UNL     1      11.362 -12.236  23.278  1.00  0.00     0.199 C 
HETATM    8  O1  UNL     1      10.862 -12.350  24.340  1.00  0.00    -0.285 OA
HETATM    9  C8  UNL     1      11.562 -13.360  22.346  1.00  0.00     0.172 C 
HETATM   10  C9  UNL     1      12.943 -13.421  21.850  1.00  0.00     0.177 C 
HETATM   11  O2  UNL     1      13.639 -14.373  22.133  1.00  0.00    -0.294 OA
ENDROOT
BRANCH   1  12
HETATM   12  C4  UNL     1      14.982 -12.126  21.354  1.00  0.00     0.056 C 
BRANCH  12  13
HETATM   13  C3  UNL     1      15.838 -12.907  20.434  1.00  0.00     0.024 C 
BRANCH  13  14
HETATM   14  C2  UNL     1      17.204 -13.232  21.080  1.00  0.00     0.135 C 
BRANCH  14  15
HETATM   15  N1  UNL     1      17.314 -14.634  21.117  1.00  0.00    -0.311 N 
HETATM   16  C1  UNL     1      16.415 -15.373  20.313  1.00  0.00     0.163 C 
BRANCH  15  17
HETATM   17  S2  UNL     1      18.691 -15.373  21.673  1.00  0.00     0.268 S 
HETATM   18  O3  UNL     1      19.899 -14.796  20.944  1.00  0.00    -0.200 OA
HETATM   19  O4  UNL     1      18.731 -16.858  21.361  1.00  0.00    -0.200 OA
BRANCH  17  20
HETATM   20  C10 UNL     1      19.023 -15.230  23.385  1.00  0.00     0.143 A 
HETATM   21  S3  UNL     1      20.158 -14.311  24.250  1.00  0.00    -0.063 SA
HETATM   22  C11 UNL     1      19.763 -14.796  25.834  1.00  0.00     0.077 A 
HETATM   23 CL1  UNL     1      20.489 -14.294  27.374  1.00  0.00    -0.076 Cl
HETATM   24  C12 UNL     1      18.741 -15.676  25.642  1.00  0.00     0.057 A 
HETATM   25  C13 UNL     1      18.348 -15.908  24.365  1.00  0.00     0.066 A 
HETATM   26 CL2  UNL     1      17.004 -17.057  24.008  1.00  0.00    -0.082 Cl
ENDBRANCH  17  20
ENDBRANCH  15  17
ENDBRANCH  14  15
ENDBRANCH  13  14
ENDBRANCH  12  13
ENDBRANCH   1  12
BRANCH   1  27
HETATM   27  N2  UNL     1      13.384 -12.783  19.617  1.00  0.00    -0.057 N 
ATOM     28  H23 UNL     1      12.475 -13.207  19.435  1.00  0.00     0.276 HD
ATOM     29  H22 UNL     1      13.316 -11.999  18.968  1.00  0.00     0.276 HD
ATOM     30  H21 UNL     1      14.152 -13.410  19.379  1.00  0.00     0.276 HD
ENDBRANCH   1  27
TORSDOF 7
ENDMDL
MODEL 4
REMARK VINA RESULT: -6.973339082      3.716      7.333
REMARK  7 active torsions:
REMARK  status: ('A' for Active; 'I' for Inactive)
REMARK    1  A    between atoms: N1_2  and  C2_3 
REMARK    2  A    between atoms: N1_2  and  S2_21 
REMARK    3  A    between atoms: C2_3  and  C3_4 
REMARK    4  A    between atoms: C3_4  and  C4_5 
REMARK    5  A    between atoms: C4_5  and  C5_6 
REMARK    6  A    between atoms: C5_6  and  N2_7 
REMARK    7  A    between atoms: S2_21  and  C10_24 
ROOT
HETATM    1  C5  UNL     1      18.541 -16.053  22.766  1.00  0.00     0.231 C 
HETATM    2  C6  UNL     1      18.403 -15.256  23.994  1.00  0.00     0.091 C 
HETATM    3  N3  UNL     1      17.363 -15.256  24.680  1.00  0.00    -0.394 N 
ATOM      4  H31 UNL     1      17.268 -14.703  25.532  1.00  0.00     0.156 HD
ATOM      5  H32 UNL     1      16.568 -15.814  24.367  1.00  0.00     0.156 HD
HETATM    6  S1  UNL     1      19.823 -14.261  24.552  1.00  0.00    -0.036 SA
HETATM    7  C7  UNL     1      21.265 -15.280  24.103  1.00  0.00     0.199 C 
HETATM    8  O1  UNL     1      22.371 -14.891  24.227  1.00  0.00    -0.285 OA
HETATM    9  C8  UNL     1      20.923 -16.614  23.579  1.00  0.00     0.172 C 
HETATM   10  C9  UNL     1      19.923 -16.542  22.506  1.00  0.00     0.177 C 
HETATM   11  O2  UNL     1      20.225 -16.887  21.383  1.00  0.00    -0.294 OA
ENDROOT
BRANCH   1  12
HETATM   12  C4  UNL     1      18.044 -15.253  21.565  1.00  0.00     0.056 C 
BRANCH  12  13
HETATM   13  C3  UNL     1      16.867 -15.919  20.965  1.00  0.00     0.024 C 
BRANCH  13  14
HETATM   14  C2  UNL     1      15.606 -15.031  21.074  1.00  0.00     0.135 C 
BRANCH  14  15
HETATM   15  N1  UNL     1      15.499 -14.324  19.862  1.00  0.00    -0.311 N 
HETATM   16  C1  UNL     1      15.490 -15.085  18.670  1.00  0.00     0.163 C 
BRANCH  15  17
HETATM   17  S2  UNL     1      14.940 -12.764  19.826  1.00  0.00     0.268 S 
HETATM   18  O3  UNL     1      14.430 -12.447  18.425  1.00  0.00    -0.200 OA
HETATM   19  O4  UNL     1      16.033 -11.740  20.073  1.00  0.00    -0.200 OA
BRANCH  17  20
HETATM   20  C10 UNL     1      13.646 -12.366  20.932  1.00  0.00     0.143 A 
HETATM   21  S3  UNL     1      13.453 -11.103  22.051  1.00  0.00    -0.063 SA
HETATM   22  C11 UNL     1      11.919 -11.507  22.669  1.00  0.00     0.077 A 
HETATM   23 CL1  UNL     1      10.958 -10.681  23.913  1.00  0.00    -0.076 Cl
HETATM   24  C12 UNL     1      11.593 -12.633  21.975  1.00  0.00     0.057 A 
HETATM   25  C13 UNL     1      12.489 -13.088  21.065  1.00  0.00     0.066 A 
HETATM   26 CL2  UNL     1      12.149 -14.572  20.097  1.00  0.00    -0.082 Cl
ENDBRANCH  17  20
ENDBRANCH  15  17
ENDBRANCH  14  15
ENDBRANCH  13  14
ENDBRANCH  12  13
ENDBRANCH   1  12
BRANCH   1  27
HETATM   27  N2  UNL     1      17.711 -17.241  22.956  1.00  0.00    -0.057 N 
ATOM     28  H23 UNL     1      16.719 -17.034  22.847  1.00  0.00     0.276 HD
ATOM     29  H22 UNL     1      17.811 -17.904  22.188  1.00  0.00     0.276 HD
ATOM     30  H21 UNL     1      17.914 -17.670  23.859  1.00  0.00     0.276 HD
ENDBRANCH   1  27
TORSDOF 7
ENDMDL
MODEL 5
REMARK VINA RESULT: -6.966465366      2.573      3.097
REMARK  7 active torsions:
REMARK  status: ('A' for Active; 'I' for Inactive)
REMARK    1  A    between atoms: N1_2  and  C2_3 
REMARK    2  A    between atoms: N1_2  and  S2_21 
REMARK    3  A    between atoms: C2_3  and  C3_4 
REMARK    4  A    between atoms: C3_4  and  C4_5 
REMARK    5  A    between atoms: C4_5  and  C5_6 
REMARK    6  A    between atoms: C5_6  and  N2_7 
REMARK    7  A    between atoms: S2_21  and  C10_24 
ROOT
HETATM    1  C5  UNL     1      13.366 -11.637  21.172  1.00  0.00     0.231 C 
HETATM    2  C6  UNL     1      13.600 -12.915  21.860  1.00  0.00     0.091 C 
HETATM    3  N3  UNL     1      14.730 -13.433  21.947  1.00  0.00    -0.394 N 
ATOM      4  H31 UNL     1      14.892 -14.320  22.425  1.00  0.00     0.156 HD
ATOM      5  H32 UNL     1      15.521 -12.963  21.507  1.00  0.00     0.156 HD
HETATM    6  S1  UNL     1      12.188 -13.753  22.647  1.00  0.00    -0.036 SA
HETATM    7  C7  UNL     1      11.169 -12.380  23.275  1.00  0.00     0.199 C 
HETATM    8  O1  UNL     1      10.108 -12.556  23.758  1.00  0.00    -0.285 OA
HETATM    9  C8  UNL     1      11.786 -11.051  23.123  1.00  0.00     0.172 C 
HETATM   10  C9  UNL     1      12.265 -10.822  21.754  1.00  0.00     0.177 C 
HETATM   11  O2  UNL     1      11.756  -9.951  21.079  1.00  0.00    -0.294 OA
ENDROOT
BRANCH   1  12
HETATM   12  C4  UNL     1      13.096 -11.883  19.690  1.00  0.00     0.056 C 
BRANCH  12  13
HETATM   13  C3  UNL     1      13.561 -13.236  19.310  1.00  0.00     0.024 C 
BRANCH  13  14
HETATM   14  C2  UNL     1      14.691 -13.165  18.257  1.00  0.00     0.135 C 
BRANCH  14  15
HETATM   15  N1  UNL     1      15.704 -14.041  18.687  1.00  0.00    -0.311 N 
HETATM   16  C1  UNL     1      15.666 -15.364  18.189  1.00  0.00     0.163 C 
BRANCH  15  17
HETATM   17  S2  UNL     1      17.115 -13.467  19.341  1.00  0.00     0.268 S 
HETATM   18  O3  UNL     1      16.829 -12.172  20.093  1.00  0.00    -0.200 OA
HETATM   19  O4  UNL     1      18.138 -13.078  18.288  1.00  0.00    -0.200 OA
BRANCH  17  20
HETATM   20  C10 UNL     1      17.951 -14.522  20.459  1.00  0.00     0.143 A 
HETATM   21  S3  UNL     1      17.452 -15.905  21.307  1.00  0.00    -0.063 SA
HETATM   22  C11 UNL     1      18.895 -16.262  22.136  1.00  0.00     0.077 A 
HETATM   23 CL1  UNL     1      19.240 -17.586  23.268  1.00  0.00    -0.076 Cl
HETATM   24  C12 UNL     1      19.741 -15.277  21.723  1.00  0.00     0.057 A 
HETATM   25  C13 UNL     1      19.256 -14.364  20.846  1.00  0.00     0.066 A 
HETATM   26 CL2  UNL     1      20.298 -13.022  20.240  1.00  0.00    -0.082 Cl
ENDBRANCH  17  20
ENDBRANCH  15  17
ENDBRANCH  14  15
ENDBRANCH  13  14
ENDBRANCH  12  13
ENDBRANCH   1  12
BRANCH   1  27
HETATM   27  N2  UNL     1      14.591 -10.856  21.337  1.00  0.00    -0.057 N 
ATOM     28  H23 UNL     1      14.428  -9.998  21.863  1.00  0.00     0.276 HD
ATOM     29  H22 UNL     1      15.245 -11.303  21.979  1.00  0.00     0.276 HD
ATOM     30  H21 UNL     1      15.015 -10.672  20.427  1.00  0.00     0.276 HD
ENDBRANCH   1  27
TORSDOF 7
ENDMDL
