MODEL 1
REMARK VINA RESULT: -7.320714442      0.000      0.000
REMARK  7 active torsions:
REMARK  status: ('A' for Active; 'I' for Inactive)
REMARK    1  A    between atoms: C2_2  and  C3_3 
REMARK    2  A    between atoms: C3_3  and  N1_4 
REMARK    3  A    between atoms: C7_9  and  N2_10 
REMARK       I    between atoms: N2_10  and  C8_12 
REMARK    4  A    between atoms: C8_12  and  C9_14 
REMARK    5  A    between atoms: N4_24  and  C15_25 
REMARK    6  A    between atoms: N5_27  and  C17_28 
REMARK    7  A    between atoms: C17_28  and  C18_29 
ROOT
HETATM    1  N1  UNL     1      14.358 -13.129  20.411  1.00  0.00    -0.264 N 
HETATM    2  C4  UNL     1      14.044 -14.413  20.771  1.00  0.00     0.281 A 
HETATM    3  O1  UNL     1      12.874 -14.827  20.561  1.00  0.00    -0.265 OA
HETATM    4  C5  UNL     1      14.965 -15.259  21.352  1.00  0.00     0.133 A 
HETATM    5  C6  UNL     1      16.269 -14.794  21.586  1.00  0.00     0.100 A 
HETATM    6  C7  UNL     1      16.991 -15.818  22.113  1.00  0.00     0.087 A 
HETATM    7  C13 UNL     1      16.131 -16.934  22.214  1.00  0.00     0.037 A 
HETATM    8  C14 UNL     1      16.501 -18.275  22.740  1.00  0.00     0.071 C 
HETATM    9  N4  UNL     1      14.962 -16.540  21.753  1.00  0.00    -0.343 N 
HETATM   10  N5  UNL     1      16.570 -13.537  21.234  1.00  0.00    -0.295 N 
HETATM   11  C20 UNL     1      15.597 -12.762  20.660  1.00  0.00     0.332 A 
HETATM   12  O3  UNL     1      15.949 -11.593  20.347  1.00  0.00    -0.246 OA
ENDROOT
BRANCH   6  13
HETATM   13  N2  UNL     1      18.327 -15.858  22.508  1.00  0.00    -0.318 N 
HETATM   14  C8  UNL     1      18.889 -15.524  23.755  1.00  0.00     0.273 C 
HETATM   15  O2  UNL     1      18.084 -15.134  24.668  1.00  0.00    -0.266 OA
ATOM     16  H2  UNL     1      18.988 -16.173  21.797  1.00  0.00     0.169 HD
BRANCH  14  17
HETATM   17  C9  UNL     1      20.317 -15.603  24.032  1.00  0.00     0.105 A 
HETATM   18  C10 UNL     1      21.122 -14.500  24.208  1.00  0.00     0.080 A 
HETATM   19  C11 UNL     1      22.430 -14.932  24.454  1.00  0.00     0.157 A 
HETATM   20  F1  UNL     1      23.519 -14.161  24.679  1.00  0.00    -0.203 F 
HETATM   21  C12 UNL     1      22.369 -16.302  24.417  1.00  0.00     0.143 A 
HETATM   22 CL1  UNL     1      23.734 -17.362  24.663  1.00  0.00    -0.061 Cl
HETATM   23  N3  UNL     1      21.096 -16.670  24.164  1.00  0.00    -0.340 N 
ATOM     24  H3  UNL     1      20.776 -17.636  24.084  1.00  0.00     0.167 HD
ENDBRANCH  14  17
ENDBRANCH   6  13
BRANCH  10  25
HETATM   25  C17 UNL     1      17.819 -12.923  21.508  1.00  0.00     0.134 C 
BRANCH  25  26
HETATM   26  C18 UNL     1      18.824 -13.026  20.411  1.00  0.00     0.016 C 
HETATM   27  C19 UNL     1      20.182 -13.496  20.714  1.00  0.00     0.006 C 
ENDBRANCH  25  26
ENDBRANCH  10  25
BRANCH   9  28
HETATM   28  C15 UNL     1      13.782 -17.388  21.683  1.00  0.00     0.125 C 
HETATM   29  C16 UNL     1      13.736 -18.178  20.385  1.00  0.00     0.027 C 
ENDBRANCH   9  28
BRANCH   1  30
HETATM   30  C3  UNL     1      13.329 -12.356  19.801  1.00  0.00     0.137 C 
BRANCH  30  31
HETATM   31  C2  UNL     1      12.811 -11.181  20.524  1.00  0.00     0.016 C 
HETATM   32  C1  UNL     1      12.015 -11.617  21.729  1.00  0.00     0.006 C 
ENDBRANCH  30  31
ENDBRANCH   1  30
TORSDOF 7
ENDMDL
MODEL 2
REMARK VINA RESULT: -7.156150473      0.941      1.057
REMARK  7 active torsions:
REMARK  status: ('A' for Active; 'I' for Inactive)
REMARK    1  A    between atoms: C2_2  and  C3_3 
REMARK    2  A    between atoms: C3_3  and  N1_4 
REMARK    3  A    between atoms: C7_9  and  N2_10 
REMARK       I    between atoms: N2_10  and  C8_12 
REMARK    4  A    between atoms: C8_12  and  C9_14 
REMARK    5  A    between atoms: N4_24  and  C15_25 
REMARK    6  A    between atoms: N5_27  and  C17_28 
REMARK    7  A    between atoms: C17_28  and  C18_29 
ROOT
HETATM    1  N1  UNL     1      14.294 -13.090  20.430  1.00  0.00    -0.264 N 
HETATM    2  C4  UNL     1      13.977 -14.374  20.786  1.00  0.00     0.281 A 
HETATM    3  O1  UNL     1      12.803 -14.781  20.584  1.00  0.00    -0.265 OA
HETATM    4  C5  UNL     1      14.899 -15.228  21.353  1.00  0.00     0.133 A 
HETATM    5  C6  UNL     1      16.207 -14.771  21.577  1.00  0.00     0.100 A 
HETATM    6  C7  UNL     1      16.929 -15.801  22.091  1.00  0.00     0.087 A 
HETATM    7  C13 UNL     1      16.065 -16.914  22.194  1.00  0.00     0.037 A 
HETATM    8  C14 UNL     1      16.433 -18.259  22.709  1.00  0.00     0.071 C 
HETATM    9  N4  UNL     1      14.893 -16.511  21.746  1.00  0.00    -0.343 N 
HETATM   10  N5  UNL     1      16.511 -13.514  21.229  1.00  0.00    -0.295 N 
HETATM   11  C20 UNL     1      15.537 -12.730  20.669  1.00  0.00     0.332 A 
HETATM   12  O3  UNL     1      15.891 -11.561  20.360  1.00  0.00    -0.246 OA
ENDROOT
BRANCH   6  13
HETATM   13  N2  UNL     1      18.269 -15.850  22.474  1.00  0.00    -0.318 N 
HETATM   14  C8  UNL     1      18.850 -15.480  23.702  1.00  0.00     0.273 C 
HETATM   15  O2  UNL     1      18.063 -15.043  24.607  1.00  0.00    -0.266 OA
ATOM     16  H2  UNL     1      18.916 -16.202  21.768  1.00  0.00     0.169 HD
BRANCH  14  17
HETATM   17  C9  UNL     1      20.280 -15.574  23.965  1.00  0.00     0.105 A 
HETATM   18  C10 UNL     1      20.924 -16.756  24.260  1.00  0.00     0.080 A 
HETATM   19  C11 UNL     1      22.284 -16.488  24.457  1.00  0.00     0.157 A 
HETATM   20  F1  UNL     1      23.257 -17.377  24.764  1.00  0.00    -0.203 F 
HETATM   21  C12 UNL     1      22.416 -15.136  24.271  1.00  0.00     0.143 A 
HETATM   22 CL1  UNL     1      23.920 -14.260  24.398  1.00  0.00    -0.061 Cl
HETATM   23  N3  UNL     1      21.203 -14.621  23.979  1.00  0.00    -0.340 N 
ATOM     24  H3  UNL     1      21.021 -13.634  23.796  1.00  0.00     0.167 HD
ENDBRANCH  14  17
ENDBRANCH   6  13
BRANCH  10  25
HETATM   25  C17 UNL     1      17.765 -12.906  21.495  1.00  0.00     0.134 C 
BRANCH  25  26
HETATM   26  C18 UNL     1      18.754 -12.993  20.382  1.00  0.00     0.016 C 
HETATM   27  C19 UNL     1      20.099 -13.518  20.647  1.00  0.00     0.006 C 
ENDBRANCH  25  26
ENDBRANCH  10  25
BRANCH   9  28
HETATM   28  C15 UNL     1      13.709 -17.354  21.683  1.00  0.00     0.125 C 
HETATM   29  C16 UNL     1      13.646 -18.135  20.381  1.00  0.00     0.027 C 
ENDBRANCH   9  28
BRANCH   1  30
HETATM   30  C3  UNL     1      13.263 -12.308  19.834  1.00  0.00     0.137 C 
BRANCH  30  31
HETATM   31  C2  UNL     1      12.749 -11.142  20.574  1.00  0.00     0.016 C 
HETATM   32  C1  UNL     1      11.945 -11.592  21.768  1.00  0.00     0.006 C 
ENDBRANCH  30  31
ENDBRANCH   1  30
TORSDOF 7
ENDMDL
MODEL 3
REMARK VINA RESULT: -6.908433901      1.981      4.314
REMARK  7 active torsions:
REMARK  status: ('A' for Active; 'I' for Inactive)
REMARK    1  A    between atoms: C2_2  and  C3_3 
REMARK    2  A    between atoms: C3_3  and  N1_4 
REMARK    3  A    between atoms: C7_9  and  N2_10 
REMARK       I    between atoms: N2_10  and  C8_12 
REMARK    4  A    between atoms: C8_12  and  C9_14 
REMARK    5  A    between atoms: N4_24  and  C15_25 
REMARK    6  A    between atoms: N5_27  and  C17_28 
REMARK    7  A    between atoms: C17_28  and  C18_29 
ROOT
HETATM    1  N1  UNL     1      12.515 -16.838  20.681  1.00  0.00    -0.264 N 
HETATM    2  C4  UNL     1      12.720 -15.561  20.229  1.00  0.00     0.281 A 
HETATM    3  O1  UNL     1      11.874 -15.059  19.444  1.00  0.00    -0.265 OA
HETATM    4  C5  UNL     1      13.815 -14.814  20.608  1.00  0.00     0.133 A 
HETATM    5  C6  UNL     1      14.757 -15.377  21.484  1.00  0.00     0.100 A 
HETATM    6  C7  UNL     1      15.704 -14.437  21.742  1.00  0.00     0.087 A 
HETATM    7  C13 UNL     1      15.355 -13.275  21.018  1.00  0.00     0.037 A 
HETATM    8  C14 UNL     1      16.114 -11.996  21.003  1.00  0.00     0.071 C 
HETATM    9  N4  UNL     1      14.242 -13.563  20.376  1.00  0.00    -0.343 N 
HETATM   10  N5  UNL     1      14.553 -16.626  21.921  1.00  0.00    -0.295 N 
HETATM   11  C20 UNL     1      13.438 -17.300  21.498  1.00  0.00     0.332 A 
HETATM   12  O3  UNL     1      13.304 -18.468  21.952  1.00  0.00    -0.246 OA
ENDROOT
BRANCH   6  13
HETATM   13  N2  UNL     1      16.837 -14.509  22.551  1.00  0.00    -0.318 N 
HETATM   14  C8  UNL     1      18.184 -14.668  22.171  1.00  0.00     0.273 C 
HETATM   15  O2  UNL     1      18.427 -14.755  20.920  1.00  0.00    -0.266 OA
ATOM     16  H2  UNL     1      16.668 -14.435  23.554  1.00  0.00     0.169 HD
BRANCH  14  17
HETATM   17  C9  UNL     1      19.278 -14.738  23.130  1.00  0.00     0.105 A 
HETATM   18  C10 UNL     1      19.094 -14.909  24.485  1.00  0.00     0.080 A 
HETATM   19  C11 UNL     1      20.347 -14.931  25.109  1.00  0.00     0.157 A 
HETATM   20  F1  UNL     1      20.601 -15.080  26.429  1.00  0.00    -0.203 F 
HETATM   21  C12 UNL     1      21.256 -14.771  24.096  1.00  0.00     0.143 A 
HETATM   22 CL1  UNL     1      22.988 -14.725  24.315  1.00  0.00    -0.061 Cl
HETATM   23  N3  UNL     1      20.587 -14.659  22.929  1.00  0.00    -0.340 N 
ATOM     24  H3  UNL     1      21.027 -14.531  22.018  1.00  0.00     0.167 HD
ENDBRANCH  14  17
ENDBRANCH   6  13
BRANCH  10  25
HETATM   25  C17 UNL     1      15.480 -17.338  22.726  1.00  0.00     0.134 C 
BRANCH  25  26
HETATM   26  C18 UNL     1      16.569 -18.025  21.974  1.00  0.00     0.016 C 
HETATM   27  C19 UNL     1      17.844 -18.309  22.643  1.00  0.00     0.006 C 
ENDBRANCH  25  26
ENDBRANCH  10  25
BRANCH   9  28
HETATM   28  C15 UNL     1      13.539 -12.636  19.502  1.00  0.00     0.125 C 
HETATM   29  C16 UNL     1      14.156 -12.596  18.114  1.00  0.00     0.027 C 
ENDBRANCH   9  28
BRANCH   1  30
HETATM   30  C3  UNL     1      11.337 -17.503  20.236  1.00  0.00     0.137 C 
BRANCH  30  31
HETATM   31  C2  UNL     1      11.423 -18.361  19.041  1.00  0.00     0.016 C 
HETATM   32  C1  UNL     1      10.448 -17.893  17.989  1.00  0.00     0.006 C 
ENDBRANCH  30  31
ENDBRANCH   1  30
TORSDOF 7
ENDMDL
MODEL 4
REMARK VINA RESULT: -6.850574833      2.030      4.387
REMARK  7 active torsions:
REMARK  status: ('A' for Active; 'I' for Inactive)
REMARK    1  A    between atoms: C2_2  and  C3_3 
REMARK    2  A    between atoms: C3_3  and  N1_4 
REMARK    3  A    between atoms: C7_9  and  N2_10 
REMARK       I    between atoms: N2_10  and  C8_12 
REMARK    4  A    between atoms: C8_12  and  C9_14 
REMARK    5  A    between atoms: N4_24  and  C15_25 
REMARK    6  A    between atoms: N5_27  and  C17_28 
REMARK    7  A    between atoms: C17_28  and  C18_29 
ROOT
HETATM    1  N1  UNL     1      12.448 -16.915  20.593  1.00  0.00    -0.264 N 
HETATM    2  C4  UNL     1      12.646 -15.639  20.135  1.00  0.00     0.281 A 
HETATM    3  O1  UNL     1      11.825 -15.164  19.308  1.00  0.00    -0.265 OA
HETATM    4  C5  UNL     1      13.707 -14.865  20.553  1.00  0.00     0.133 A 
HETATM    5  C6  UNL     1      14.622 -15.398  21.476  1.00  0.00     0.100 A 
HETATM    6  C7  UNL     1      15.537 -14.435  21.764  1.00  0.00     0.087 A 
HETATM    7  C13 UNL     1      15.196 -13.289  21.011  1.00  0.00     0.037 A 
HETATM    8  C14 UNL     1      15.927 -11.995  21.015  1.00  0.00     0.071 C 
HETATM    9  N4  UNL     1      14.118 -13.607  20.325  1.00  0.00    -0.343 N 
HETATM   10  N5  UNL     1      14.425 -16.647  21.918  1.00  0.00    -0.295 N 
HETATM   11  C20 UNL     1      13.343 -17.348  21.455  1.00  0.00     0.332 A 
HETATM   12  O3  UNL     1      13.214 -18.514  21.917  1.00  0.00    -0.246 OA
ENDROOT
BRANCH   6  13
HETATM   13  N2  UNL     1      16.634 -14.473  22.622  1.00  0.00    -0.318 N 
HETATM   14  C8  UNL     1      17.995 -14.650  22.307  1.00  0.00     0.273 C 
HETATM   15  O2  UNL     1      18.291 -14.790  21.072  1.00  0.00    -0.266 OA
ATOM     16  H2  UNL     1      16.422 -14.358  23.613  1.00  0.00     0.169 HD
BRANCH  14  17
HETATM   17  C9  UNL     1      19.047 -14.680  23.314  1.00  0.00     0.105 A 
HETATM   18  C10 UNL     1      20.392 -14.669  23.013  1.00  0.00     0.080 A 
HETATM   19  C11 UNL     1      21.120 -14.707  24.208  1.00  0.00     0.157 A 
HETATM   20  F1  UNL     1      22.466 -14.709  24.346  1.00  0.00    -0.203 F 
HETATM   21  C12 UNL     1      20.177 -14.739  25.203  1.00  0.00     0.143 A 
HETATM   22 CL1  UNL     1      20.539 -14.792  26.910  1.00  0.00    -0.061 Cl
HETATM   23  N3  UNL     1      18.952 -14.722  24.638  1.00  0.00    -0.340 N 
ATOM     24  H3  UNL     1      18.074 -14.740  25.156  1.00  0.00     0.167 HD
ENDBRANCH  14  17
ENDBRANCH   6  13
BRANCH  10  25
HETATM   25  C17 UNL     1      15.330 -17.329  22.772  1.00  0.00     0.134 C 
BRANCH  25  26
HETATM   26  C18 UNL     1      16.463 -18.004  22.076  1.00  0.00     0.016 C 
HETATM   27  C19 UNL     1      17.717 -18.247  22.800  1.00  0.00     0.006 C 
ENDBRANCH  25  26
ENDBRANCH  10  25
BRANCH   9  28
HETATM   28  C15 UNL     1      13.435 -12.706  19.410  1.00  0.00     0.125 C 
HETATM   29  C16 UNL     1      14.167 -12.591  18.084  1.00  0.00     0.027 C 
ENDBRANCH   9  28
BRANCH   1  30
HETATM   30  C3  UNL     1      11.305 -17.610  20.105  1.00  0.00     0.137 C 
BRANCH  30  31
HETATM   31  C2  UNL     1      11.467 -18.499  18.941  1.00  0.00     0.016 C 
HETATM   32  C1  UNL     1      10.563 -18.059  17.816  1.00  0.00     0.006 C 
ENDBRANCH  30  31
ENDBRANCH   1  30
TORSDOF 7
ENDMDL
MODEL 5
REMARK VINA RESULT: -6.783324464      3.983      6.880
REMARK  7 active torsions:
REMARK  status: ('A' for Active; 'I' for Inactive)
REMARK    1  A    between atoms: C2_2  and  C3_3 
REMARK    2  A    between atoms: C3_3  and  N1_4 
REMARK    3  A    between atoms: C7_9  and  N2_10 
REMARK       I    between atoms: N2_10  and  C8_12 
REMARK    4  A    between atoms: C8_12  and  C9_14 
REMARK    5  A    between atoms: N4_24  and  C15_25 
REMARK    6  A    between atoms: N5_27  and  C17_28 
REMARK    7  A    between atoms: C17_28  and  C18_29 
ROOT
HETATM    1  N1  UNL     1      18.503 -15.682  24.769  1.00  0.00    -0.264 N 
HETATM    2  C4  UNL     1      17.555 -16.608  24.419  1.00  0.00     0.281 A 
HETATM    3  O1  UNL     1      17.246 -17.496  25.255  1.00  0.00    -0.265 OA
HETATM    4  C5  UNL     1      16.934 -16.594  23.188  1.00  0.00     0.133 A 
HETATM    5  C6  UNL     1      17.283 -15.602  22.257  1.00  0.00     0.100 A 
HETATM    6  C7  UNL     1      16.505 -15.769  21.155  1.00  0.00     0.087 A 
HETATM    7  C13 UNL     1      15.665 -16.879  21.395  1.00  0.00     0.037 A 
HETATM    8  C14 UNL     1      14.650 -17.423  20.455  1.00  0.00     0.071 C 
HETATM    9  N4  UNL     1      15.967 -17.315  22.601  1.00  0.00    -0.343 N 
HETATM   10  N5  UNL     1      18.212 -14.701  22.604  1.00  0.00    -0.295 N 
HETATM   11  C20 UNL     1      18.779 -14.784  23.848  1.00  0.00     0.332 A 
HETATM   12  O3  UNL     1      19.641 -13.902  24.112  1.00  0.00    -0.246 OA
ENDROOT
BRANCH   6  13
HETATM   13  N2  UNL     1      16.469 -15.039  19.968  1.00  0.00    -0.318 N 
HETATM   14  C8  UNL     1      15.670 -13.927  19.640  1.00  0.00     0.273 C 
HETATM   15  O2  UNL     1      14.866 -13.506  20.539  1.00  0.00    -0.266 OA
ATOM     16  H2  UNL     1      17.108 -15.354  19.238  1.00  0.00     0.169 HD
BRANCH  14  17
HETATM   17  C9  UNL     1      15.728 -13.260  18.346  1.00  0.00     0.105 A 
HETATM   18  C10 UNL     1      16.476 -13.719  17.285  1.00  0.00     0.080 A 
HETATM   19  C11 UNL     1      16.305 -12.846  16.204  1.00  0.00     0.157 A 
HETATM   20  F1  UNL     1      16.868 -12.942  14.977  1.00  0.00    -0.203 F 
HETATM   21  C12 UNL     1      15.447 -11.877  16.656  1.00  0.00     0.143 A 
HETATM   22 CL1  UNL     1      14.888 -10.524  15.704  1.00  0.00    -0.061 Cl
HETATM   23  N3  UNL     1      15.121 -12.153  17.936  1.00  0.00    -0.340 N 
ATOM     24  H3  UNL     1      14.496 -11.588  18.511  1.00  0.00     0.167 HD
ENDBRANCH  14  17
ENDBRANCH   6  13
BRANCH  10  25
HETATM   25  C17 UNL     1      18.718 -13.715  21.719  1.00  0.00     0.134 C 
BRANCH  25  26
HETATM   26  C18 UNL     1      19.775 -14.195  20.782  1.00  0.00     0.016 C 
HETATM   27  C19 UNL     1      20.071 -13.424  19.568  1.00  0.00     0.006 C 
ENDBRANCH  25  26
ENDBRANCH  10  25
BRANCH   9  28
HETATM   28  C15 UNL     1      15.332 -18.457  23.240  1.00  0.00     0.125 C 
HETATM   29  C16 UNL     1      16.047 -19.756  22.908  1.00  0.00     0.027 C 
ENDBRANCH   9  28
BRANCH   1  30
HETATM   30  C3  UNL     1      19.060 -15.787  26.076  1.00  0.00     0.137 C 
BRANCH  30  31
HETATM   31  C2  UNL     1      20.493 -15.491  26.254  1.00  0.00     0.016 C 
HETATM   32  C1  UNL     1      20.677 -14.378  27.256  1.00  0.00     0.006 C 
ENDBRANCH  30  31
ENDBRANCH   1  30
TORSDOF 7
ENDMDL
