MODEL 1
REMARK VINA RESULT: -11.045419990      0.000      0.000
REMARK  5 active torsions:
REMARK  status: ('A' for Active; 'I' for Inactive)
REMARK    1  A    between atoms: C4_4  and  C5_5 
REMARK    2  A    between atoms: C5_5  and  C6_6 
REMARK    3  A    between atoms: C6_6  and  C7_7 
REMARK    4  A    between atoms: C6_6  and  C19_19 
REMARK    5  A    between atoms: C10_10  and  C11_11 
ROOT
HETATM    1  C6  UNL     1      58.679  34.978  31.981  1.00  0.00    -0.033 C 
ENDROOT
BRANCH   1   2
HETATM    2  C5  UNL     1      58.018  34.038  32.922  1.00  0.00     0.078 C 
BRANCH   2   3
HETATM    3  C4  UNL     1      56.676  33.575  32.524  1.00  0.00    -0.054 A 
HETATM    4  C3  UNL     1      55.552  34.358  32.798  1.00  0.00     0.007 A 
HETATM    5  C2  UNL     1      54.335  33.881  32.418  1.00  0.00     0.001 A 
HETATM    6  C1  UNL     1      54.174  32.670  31.783  1.00  0.00     0.000 A 
HETATM    7  C30 UNL     1      55.262  31.875  31.499  1.00  0.00     0.001 A 
HETATM    8  C29 UNL     1      56.508  32.366  31.889  1.00  0.00     0.007 A 
ENDBRANCH   2   3
ENDBRANCH   1   2
BRANCH   1   9
HETATM    9  C7  UNL     1      58.339  34.787  30.549  1.00  0.00    -0.029 A 
HETATM   10  C8  UNL     1      58.888  33.757  29.838  1.00  0.00     0.013 A 
HETATM   11  C9  UNL     1      58.518  33.595  28.516  1.00  0.00     0.013 A 
HETATM   12  C10 UNL     1      57.618  34.421  27.869  1.00  0.00    -0.026 A 
HETATM   13  C17 UNL     1      57.082  35.448  28.608  1.00  0.00     0.013 A 
HETATM   14  C18 UNL     1      57.447  35.620  29.937  1.00  0.00     0.013 A 
BRANCH  12  15
HETATM   15  C11 UNL     1      57.235  34.241  26.488  1.00  0.00    -0.026 A 
HETATM   16  C12 UNL     1      58.091  34.640  25.483  1.00  0.00     0.012 A 
HETATM   17  C13 UNL     1      57.744  34.474  24.158  1.00  0.00     0.001 A 
HETATM   18  C14 UNL     1      56.516  33.901  23.836  1.00  0.00     0.000 A 
HETATM   19  C15 UNL     1      55.671  33.508  24.866  1.00  0.00     0.001 A 
HETATM   20  C16 UNL     1      56.011  33.670  26.189  1.00  0.00     0.012 A 
ENDBRANCH  12  15
ENDBRANCH   1   9
BRANCH   1  21
HETATM   21  C19 UNL     1      58.867  36.357  32.417  1.00  0.00    -0.018 A 
HETATM   22  C20 UNL     1      58.006  36.959  33.355  1.00  0.00     0.013 A 
HETATM   23  C21 UNL     1      58.111  38.231  33.802  1.00  0.00     0.002 A 
HETATM   24  C22 UNL     1      59.104  39.031  33.341  1.00  0.00     0.012 A 
HETATM   25  C23 UNL     1      59.986  38.530  32.425  1.00  0.00    -0.025 A 
HETATM   26  C24 UNL     1      60.983  39.371  31.982  1.00  0.00     0.012 A 
HETATM   27  C28 UNL     1      59.861  37.224  31.982  1.00  0.00    -0.015 A 
HETATM   28  C25 UNL     1      61.889  38.902  31.066  1.00  0.00     0.001 A 
HETATM   29  C26 UNL     1      61.793  37.603  30.602  1.00  0.00     0.001 A 
HETATM   30  C27 UNL     1      60.773  36.798  31.078  1.00  0.00     0.013 A 
ENDBRANCH   1  21
TORSDOF 5
ENDMDL
MODEL 2
REMARK VINA RESULT: -11.024120257      3.246      9.052
REMARK  5 active torsions:
REMARK  status: ('A' for Active; 'I' for Inactive)
REMARK    1  A    between atoms: C4_4  and  C5_5 
REMARK    2  A    between atoms: C5_5  and  C6_6 
REMARK    3  A    between atoms: C6_6  and  C7_7 
REMARK    4  A    between atoms: C6_6  and  C19_19 
REMARK    5  A    between atoms: C10_10  and  C11_11 
ROOT
HETATM    1  C6  UNL     1      58.348  34.398  24.888  1.00  0.00    -0.033 C 
ENDROOT
BRANCH   1   2
HETATM    2  C5  UNL     1      58.126  35.830  24.560  1.00  0.00     0.078 C 
BRANCH   2   3
HETATM    3  C4  UNL     1      59.317  36.695  24.641  1.00  0.00    -0.054 A 
HETATM    4  C3  UNL     1      59.948  36.911  25.869  1.00  0.00     0.007 A 
HETATM    5  C2  UNL     1      61.038  37.726  25.891  1.00  0.00     0.001 A 
HETATM    6  C1  UNL     1      61.535  38.337  24.761  1.00  0.00     0.000 A 
HETATM    7  C30 UNL     1      60.937  38.143  23.536  1.00  0.00     0.001 A 
HETATM    8  C29 UNL     1      59.820  37.309  23.516  1.00  0.00     0.007 A 
ENDBRANCH   2   3
ENDBRANCH   1   2
BRANCH   1   9
HETATM    9  C7  UNL     1      58.138  34.033  26.311  1.00  0.00    -0.029 A 
HETATM   10  C8  UNL     1      58.694  32.895  26.824  1.00  0.00     0.013 A 
HETATM   11  C9  UNL     1      58.501  32.611  28.163  1.00  0.00     0.013 A 
HETATM   12  C10 UNL     1      57.774  33.417  29.017  1.00  0.00    -0.026 A 
HETATM   13  C17 UNL     1      57.226  34.554  28.474  1.00  0.00     0.013 A 
HETATM   14  C18 UNL     1      57.413  34.850  27.130  1.00  0.00     0.013 A 
BRANCH  12  15
HETATM   15  C11 UNL     1      57.581  33.113  30.416  1.00  0.00    -0.026 A 
HETATM   16  C12 UNL     1      58.676  32.887  31.224  1.00  0.00     0.012 A 
HETATM   17  C13 UNL     1      58.513  32.598  32.564  1.00  0.00     0.001 A 
HETATM   18  C14 UNL     1      57.229  32.534  33.101  1.00  0.00     0.000 A 
HETATM   19  C15 UNL     1      56.143  32.765  32.266  1.00  0.00     0.001 A 
HETATM   20  C16 UNL     1      56.299  33.054  30.931  1.00  0.00     0.012 A 
ENDBRANCH  12  15
ENDBRANCH   1   9
BRANCH   1  21
HETATM   21  C19 UNL     1      57.937  33.403  23.903  1.00  0.00    -0.018 A 
HETATM   22  C20 UNL     1      58.811  32.957  22.894  1.00  0.00     0.013 A 
HETATM   23  C21 UNL     1      58.501  32.045  21.944  1.00  0.00     0.002 A 
HETATM   24  C22 UNL     1      57.265  31.489  21.917  1.00  0.00     0.012 A 
HETATM   25  C23 UNL     1      56.349  31.866  22.859  1.00  0.00    -0.025 A 
HETATM   26  C24 UNL     1      55.106  31.277  22.802  1.00  0.00     0.012 A 
HETATM   27  C28 UNL     1      56.688  32.800  23.823  1.00  0.00    -0.015 A 
HETATM   28  C25 UNL     1      54.162  31.626  23.733  1.00  0.00     0.001 A 
HETATM   29  C26 UNL     1      54.467  32.557  24.710  1.00  0.00     0.001 A 
HETATM   30  C27 UNL     1      55.731  33.119  24.724  1.00  0.00     0.013 A 
ENDBRANCH   1  21
TORSDOF 5
ENDMDL
MODEL 3
REMARK VINA RESULT: -10.941441457      2.908      8.659
REMARK  5 active torsions:
REMARK  status: ('A' for Active; 'I' for Inactive)
REMARK    1  A    between atoms: C4_4  and  C5_5 
REMARK    2  A    between atoms: C5_5  and  C6_6 
REMARK    3  A    between atoms: C6_6  and  C7_7 
REMARK    4  A    between atoms: C6_6  and  C19_19 
REMARK    5  A    between atoms: C10_10  and  C11_11 
ROOT
HETATM    1  C6  UNL     1      58.324  35.058  25.449  1.00  0.00    -0.033 C 
ENDROOT
BRANCH   1   2
HETATM    2  C5  UNL     1      58.653  36.493  25.252  1.00  0.00     0.078 C 
BRANCH   2   3
HETATM    3  C4  UNL     1      60.046  36.876  25.549  1.00  0.00    -0.054 A 
HETATM    4  C3  UNL     1      60.814  37.537  24.587  1.00  0.00     0.007 A 
HETATM    5  C2  UNL     1      62.097  37.860  24.908  1.00  0.00     0.001 A 
HETATM    6  C1  UNL     1      62.657  37.563  26.130  1.00  0.00     0.000 A 
HETATM    7  C30 UNL     1      61.926  36.913  27.099  1.00  0.00     0.001 A 
HETATM    8  C29 UNL     1      60.612  36.583  26.768  1.00  0.00     0.007 A 
ENDBRANCH   2   3
ENDBRANCH   1   2
BRANCH   1   9
HETATM    9  C7  UNL     1      58.142  34.637  26.860  1.00  0.00    -0.029 A 
HETATM   10  C8  UNL     1      58.576  33.411  27.279  1.00  0.00     0.013 A 
HETATM   11  C9  UNL     1      58.417  33.072  28.609  1.00  0.00     0.013 A 
HETATM   12  C10 UNL     1      57.841  33.908  29.546  1.00  0.00    -0.026 A 
HETATM   13  C17 UNL     1      57.413  35.134  29.097  1.00  0.00     0.013 A 
HETATM   14  C18 UNL     1      57.567  35.485  27.762  1.00  0.00     0.013 A 
BRANCH  12  15
HETATM   15  C11 UNL     1      57.682  33.546  30.935  1.00  0.00    -0.026 A 
HETATM   16  C12 UNL     1      56.549  33.936  31.618  1.00  0.00     0.012 A 
HETATM   17  C13 UNL     1      56.377  33.598  32.945  1.00  0.00     0.001 A 
HETATM   18  C14 UNL     1      57.360  32.858  33.598  1.00  0.00     0.000 A 
HETATM   19  C15 UNL     1      58.493  32.478  32.889  1.00  0.00     0.001 A 
HETATM   20  C16 UNL     1      58.669  32.811  31.566  1.00  0.00     0.012 A 
ENDBRANCH  12  15
ENDBRANCH   1   9
BRANCH   1  21
HETATM   21  C19 UNL     1      57.450  34.421  24.470  1.00  0.00    -0.018 A 
HETATM   22  C20 UNL     1      56.228  33.830  24.845  1.00  0.00     0.013 A 
HETATM   23  C21 UNL     1      55.370  33.216  24.000  1.00  0.00     0.002 A 
HETATM   24  C22 UNL     1      55.663  33.135  22.678  1.00  0.00     0.012 A 
HETATM   25  C23 UNL     1      56.831  33.681  22.225  1.00  0.00    -0.025 A 
HETATM   26  C24 UNL     1      57.092  33.583  20.876  1.00  0.00     0.012 A 
HETATM   27  C28 UNL     1      57.695  34.306  23.108  1.00  0.00    -0.015 A 
HETATM   28  C25 UNL     1      58.252  34.123  20.384  1.00  0.00     0.001 A 
HETATM   29  C26 UNL     1      59.138  34.753  21.238  1.00  0.00     0.001 A 
HETATM   30  C27 UNL     1      58.829  34.826  22.585  1.00  0.00     0.013 A 
ENDBRANCH   1  21
TORSDOF 5
ENDMDL
MODEL 4
REMARK VINA RESULT: -10.802550601      3.177      8.929
REMARK  5 active torsions:
REMARK  status: ('A' for Active; 'I' for Inactive)
REMARK    1  A    between atoms: C4_4  and  C5_5 
REMARK    2  A    between atoms: C5_5  and  C6_6 
REMARK    3  A    between atoms: C6_6  and  C7_7 
REMARK    4  A    between atoms: C6_6  and  C19_19 
REMARK    5  A    between atoms: C10_10  and  C11_11 
ROOT
HETATM    1  C6  UNL     1      57.440  34.009  25.232  1.00  0.00    -0.033 C 
ENDROOT
BRANCH   1   2
HETATM    2  C5  UNL     1      57.435  35.429  24.797  1.00  0.00     0.078 C 
BRANCH   2   3
HETATM    3  C4  UNL     1      58.712  36.149  24.954  1.00  0.00    -0.054 A 
HETATM    4  C3  UNL     1      59.304  36.265  26.214  1.00  0.00     0.007 A 
HETATM    5  C2  UNL     1      60.478  36.947  26.306  1.00  0.00     0.001 A 
HETATM    6  C1  UNL     1      61.095  37.521  25.216  1.00  0.00     0.000 A 
HETATM    7  C30 UNL     1      60.536  37.424  23.961  1.00  0.00     0.001 A 
HETATM    8  C29 UNL     1      59.334  36.724  23.869  1.00  0.00     0.007 A 
ENDBRANCH   2   3
ENDBRANCH   1   2
BRANCH   1   9
HETATM    9  C7  UNL     1      57.428  33.795  26.700  1.00  0.00    -0.029 A 
HETATM   10  C8  UNL     1      58.252  32.866  27.272  1.00  0.00     0.013 A 
HETATM   11  C9  UNL     1      58.233  32.723  28.646  1.00  0.00     0.013 A 
HETATM   12  C10 UNL     1      57.425  33.471  29.481  1.00  0.00    -0.026 A 
HETATM   13  C17 UNL     1      56.607  34.396  28.879  1.00  0.00     0.013 A 
HETATM   14  C18 UNL     1      56.617  34.549  27.499  1.00  0.00     0.013 A 
BRANCH  12  15
HETATM   15  C11 UNL     1      57.415  33.316  30.917  1.00  0.00    -0.026 A 
HETATM   16  C12 UNL     1      58.498  32.743  31.550  1.00  0.00     0.012 A 
HETATM   17  C13 UNL     1      58.509  32.590  32.922  1.00  0.00     0.001 A 
HETATM   18  C14 UNL     1      57.414  33.017  33.670  1.00  0.00     0.000 A 
HETATM   19  C15 UNL     1      56.336  33.591  33.009  1.00  0.00     0.001 A 
HETATM   20  C16 UNL     1      56.319  33.747  31.642  1.00  0.00     0.012 A 
ENDBRANCH  12  15
ENDBRANCH   1   9
BRANCH   1  21
HETATM   21  C19 UNL     1      56.676  33.052  24.438  1.00  0.00    -0.018 A 
HETATM   22  C20 UNL     1      55.396  32.619  24.832  1.00  0.00     0.013 A 
HETATM   23  C21 UNL     1      54.632  31.732  24.155  1.00  0.00     0.002 A 
HETATM   24  C22 UNL     1      55.090  31.187  23.001  1.00  0.00     0.012 A 
HETATM   25  C23 UNL     1      56.326  31.549  22.543  1.00  0.00    -0.025 A 
HETATM   26  C24 UNL     1      56.756  30.977  21.366  1.00  0.00     0.012 A 
HETATM   27  C28 UNL     1      57.091  32.460  23.252  1.00  0.00    -0.015 A 
HETATM   28  C25 UNL     1      57.989  31.319  20.873  1.00  0.00     0.001 A 
HETATM   29  C26 UNL     1      58.779  32.225  21.556  1.00  0.00     0.001 A 
HETATM   30  C27 UNL     1      58.301  32.772  22.734  1.00  0.00     0.013 A 
ENDBRANCH   1  21
TORSDOF 5
ENDMDL
MODEL 5
REMARK VINA RESULT: -10.774685575      3.012      5.774
REMARK  5 active torsions:
REMARK  status: ('A' for Active; 'I' for Inactive)
REMARK    1  A    between atoms: C4_4  and  C5_5 
REMARK    2  A    between atoms: C5_5  and  C6_6 
REMARK    3  A    between atoms: C6_6  and  C7_7 
REMARK    4  A    between atoms: C6_6  and  C19_19 
REMARK    5  A    between atoms: C10_10  and  C11_11 
ROOT
HETATM    1  C6  UNL     1      58.783  35.593  30.599  1.00  0.00    -0.033 C 
ENDROOT
BRANCH   1   2
HETATM    2  C5  UNL     1      59.328  35.775  31.969  1.00  0.00     0.078 C 
BRANCH   2   3
HETATM    3  C4  UNL     1      58.330  36.012  33.028  1.00  0.00    -0.054 A 
HETATM    4  C3  UNL     1      58.168  37.290  33.569  1.00  0.00     0.007 A 
HETATM    5  C2  UNL     1      57.239  37.453  34.550  1.00  0.00     0.001 A 
HETATM    6  C1  UNL     1      56.463  36.417  35.023  1.00  0.00     0.000 A 
HETATM    7  C30 UNL     1      56.599  35.147  34.510  1.00  0.00     0.001 A 
HETATM    8  C29 UNL     1      57.551  34.982  33.504  1.00  0.00     0.007 A 
ENDBRANCH   2   3
ENDBRANCH   1   2
BRANCH   1   9
HETATM    9  C7  UNL     1      59.637  36.111  29.502  1.00  0.00    -0.029 A 
HETATM   10  C8  UNL     1      60.773  36.816  29.782  1.00  0.00     0.013 A 
HETATM   11  C9  UNL     1      61.558  37.251  28.731  1.00  0.00     0.013 A 
HETATM   12  C10 UNL     1      61.257  37.011  27.403  1.00  0.00    -0.026 A 
HETATM   13  C17 UNL     1      60.109  36.299  27.151  1.00  0.00     0.013 A 
HETATM   14  C18 UNL     1      59.313  35.858  28.200  1.00  0.00     0.013 A 
BRANCH  12  15
HETATM   15  C11 UNL     1      62.086  37.466  26.311  1.00  0.00    -0.026 A 
HETATM   16  C12 UNL     1      63.436  37.189  26.316  1.00  0.00     0.012 A 
HETATM   17  C13 UNL     1      64.244  37.613  25.280  1.00  0.00     0.001 A 
HETATM   18  C14 UNL     1      63.686  38.329  24.223  1.00  0.00     0.000 A 
HETATM   19  C15 UNL     1      62.323  38.596  24.242  1.00  0.00     0.001 A 
HETATM   20  C16 UNL     1      61.513  38.176  25.271  1.00  0.00     0.012 A 
ENDBRANCH  12  15
ENDBRANCH   1   9
BRANCH   1  21
HETATM   21  C19 UNL     1      58.051  34.363  30.316  1.00  0.00    -0.018 A 
HETATM   22  C20 UNL     1      58.590  33.097  30.613  1.00  0.00     0.013 A 
HETATM   23  C21 UNL     1      57.976  31.916  30.375  1.00  0.00     0.002 A 
HETATM   24  C22 UNL     1      56.745  31.894  29.807  1.00  0.00     0.012 A 
HETATM   25  C23 UNL     1      56.145  33.079  29.483  1.00  0.00    -0.025 A 
HETATM   26  C24 UNL     1      54.894  33.017  28.910  1.00  0.00     0.012 A 
HETATM   27  C28 UNL     1      56.791  34.277  29.737  1.00  0.00    -0.015 A 
HETATM   28  C25 UNL     1      54.260  34.186  28.576  1.00  0.00     0.001 A 
HETATM   29  C26 UNL     1      54.876  35.400  28.814  1.00  0.00     0.001 A 
HETATM   30  C27 UNL     1      56.133  35.408  29.392  1.00  0.00     0.013 A 
ENDBRANCH   1  21
TORSDOF 5
ENDMDL
