MODEL 1
REMARK VINA RESULT: -12.078091432      0.000      0.000
REMARK  4 active torsions:
REMARK  status: ('A' for Active; 'I' for Inactive)
REMARK    1  A    between atoms: C7_7  and  C8_8 
REMARK    2  A    between atoms: C10_10  and  C11_11 
REMARK    3  A    between atoms: C12_12  and  C13_13 
REMARK    4  A    between atoms: C20_20  and  C21_21 
ROOT
HETATM    1  C8  UNL     1      59.078  35.935  26.494  1.00  0.00     0.044 A 
HETATM    2  C9  UNL     1      58.514  35.712  27.747  1.00  0.00     0.042 A 
HETATM    3  C10 UNL     1      57.372  34.950  27.927  1.00  0.00    -0.032 A 
HETATM    4  C19 UNL     1      56.798  34.404  26.773  1.00  0.00     0.043 A 
HETATM    5  C20 UNL     1      57.345  34.617  25.530  1.00  0.00     0.060 A 
HETATM    6  N2  UNL     1      58.444  35.363  25.470  1.00  0.00    -0.354 N 
ATOM      7  H2  UNL     1      58.844  35.515  24.543  1.00  0.00     0.166 HD
ENDROOT
BRANCH   5   8
HETATM    8  C21 UNL     1      56.703  34.020  24.347  1.00  0.00     0.060 A 
HETATM    9  C22 UNL     1      57.281  33.849  23.117  1.00  0.00     0.045 A 
HETATM   10  C23 UNL     1      56.310  33.249  22.311  1.00  0.00    -0.007 A 
HETATM   11  C24 UNL     1      56.274  32.831  20.996  1.00  0.00     0.014 A 
HETATM   12  C28 UNL     1      55.187  33.081  23.079  1.00  0.00     0.043 A 
HETATM   13  C25 UNL     1      55.145  32.251  20.439  1.00  0.00     0.001 A 
HETATM   14  C26 UNL     1      54.012  32.078  21.203  1.00  0.00     0.002 A 
HETATM   15  C27 UNL     1      54.053  32.499  22.517  1.00  0.00     0.030 A 
HETATM   16  N1  UNL     1      55.453  33.556  24.306  1.00  0.00    -0.354 N 
ATOM     17  H1  UNL     1      54.799  33.562  25.089  1.00  0.00     0.166 HD
ENDBRANCH   5   8
BRANCH   3  18
HETATM   18  C11 UNL     1      56.762  34.701  29.210  1.00  0.00     0.012 C 
HETATM   19  C12 UNL     1      57.155  35.318  30.293  1.00  0.00     0.012 C 
BRANCH  19  20
HETATM   20  C13 UNL     1      56.558  35.087  31.609  1.00  0.00    -0.036 A 
HETATM   21  C14 UNL     1      55.417  34.313  31.686  1.00  0.00     0.011 A 
HETATM   22  C15 UNL     1      54.812  34.064  32.910  1.00  0.00     0.001 A 
HETATM   23  C16 UNL     1      55.328  34.579  34.079  1.00  0.00     0.000 A 
HETATM   24  C17 UNL     1      56.467  35.354  34.015  1.00  0.00     0.001 A 
HETATM   25  C18 UNL     1      57.064  35.594  32.778  1.00  0.00     0.011 A 
ENDBRANCH  19  20
ENDBRANCH   3  18
BRANCH   1  26
HETATM   26  C7  UNL     1      60.287  36.740  26.299  1.00  0.00    -0.004 A 
HETATM   27  C2  UNL     1      60.412  37.656  25.280  1.00  0.00    -0.050 A 
HETATM   28  C1  UNL     1      59.321  37.889  24.306  1.00  0.00     0.049 C 
HETATM   29  C3  UNL     1      61.589  38.402  25.136  1.00  0.00     0.007 A 
HETATM   30  C4  UNL     1      62.652  38.258  25.987  1.00  0.00     0.001 A 
HETATM   31  C5  UNL     1      62.545  37.355  27.001  1.00  0.00     0.001 A 
HETATM   32  C6  UNL     1      61.374  36.605  27.153  1.00  0.00     0.014 A 
ENDBRANCH   1  26
TORSDOF 4
ENDMDL
MODEL 2
REMARK VINA RESULT: -11.874662615      0.483      1.345
REMARK  4 active torsions:
REMARK  status: ('A' for Active; 'I' for Inactive)
REMARK    1  A    between atoms: C7_7  and  C8_8 
REMARK    2  A    between atoms: C10_10  and  C11_11 
REMARK    3  A    between atoms: C12_12  and  C13_13 
REMARK    4  A    between atoms: C20_20  and  C21_21 
ROOT
HETATM    1  C8  UNL     1      59.047  35.906  26.531  1.00  0.00     0.044 A 
HETATM    2  C9  UNL     1      58.506  35.678  27.793  1.00  0.00     0.042 A 
HETATM    3  C10 UNL     1      57.366  34.918  27.991  1.00  0.00    -0.032 A 
HETATM    4  C19 UNL     1      56.768  34.379  26.845  1.00  0.00     0.043 A 
HETATM    5  C20 UNL     1      57.293  34.597  25.593  1.00  0.00     0.060 A 
HETATM    6  N2  UNL     1      58.392  35.341  25.516  1.00  0.00    -0.354 N 
ATOM      7  H2  UNL     1      58.774  35.496  24.583  1.00  0.00     0.166 HD
ENDROOT
BRANCH   5   8
HETATM    8  C21 UNL     1      56.627  34.007  24.420  1.00  0.00     0.060 A 
HETATM    9  C22 UNL     1      55.447  33.312  24.428  1.00  0.00     0.045 A 
HETATM   10  C23 UNL     1      55.202  32.946  23.102  1.00  0.00    -0.007 A 
HETATM   11  C24 UNL     1      54.196  32.246  22.466  1.00  0.00     0.014 A 
HETATM   12  C28 UNL     1      56.238  33.431  22.345  1.00  0.00     0.043 A 
HETATM   13  C25 UNL     1      54.207  32.024  21.098  1.00  0.00     0.001 A 
HETATM   14  C26 UNL     1      55.243  32.507  20.330  1.00  0.00     0.002 A 
HETATM   15  C27 UNL     1      56.246  33.205  20.970  1.00  0.00     0.030 A 
HETATM   16  N1  UNL     1      57.085  34.068  23.169  1.00  0.00    -0.354 N 
ATOM     17  H1  UNL     1      57.948  34.530  22.881  1.00  0.00     0.166 HD
ENDBRANCH   5   8
BRANCH   3  18
HETATM   18  C11 UNL     1      56.780  34.664  29.284  1.00  0.00     0.012 C 
HETATM   19  C12 UNL     1      57.120  35.350  30.343  1.00  0.00     0.012 C 
BRANCH  19  20
HETATM   20  C13 UNL     1      56.545  35.117  31.668  1.00  0.00    -0.036 A 
HETATM   21  C14 UNL     1      57.134  35.728  32.757  1.00  0.00     0.011 A 
HETATM   22  C15 UNL     1      56.627  35.539  34.035  1.00  0.00     0.001 A 
HETATM   23  C16 UNL     1      55.526  34.740  34.255  1.00  0.00     0.000 A 
HETATM   24  C17 UNL     1      54.929  34.124  33.176  1.00  0.00     0.001 A 
HETATM   25  C18 UNL     1      55.449  34.324  31.898  1.00  0.00     0.011 A 
ENDBRANCH  19  20
ENDBRANCH   3  18
BRANCH   1  26
HETATM   26  C7  UNL     1      60.253  36.709  26.317  1.00  0.00    -0.004 A 
HETATM   27  C2  UNL     1      60.391  37.574  25.254  1.00  0.00    -0.050 A 
HETATM   28  C1  UNL     1      59.317  37.749  24.251  1.00  0.00     0.049 C 
HETATM   29  C3  UNL     1      61.566  38.320  25.094  1.00  0.00     0.007 A 
HETATM   30  C4  UNL     1      62.614  38.227  25.970  1.00  0.00     0.001 A 
HETATM   31  C5  UNL     1      62.495  37.375  27.026  1.00  0.00     0.001 A 
HETATM   32  C6  UNL     1      61.326  36.626  27.196  1.00  0.00     0.014 A 
ENDBRANCH   1  26
TORSDOF 4
ENDMDL
MODEL 3
REMARK VINA RESULT: -11.800518720      0.914      1.821
REMARK  4 active torsions:
REMARK  status: ('A' for Active; 'I' for Inactive)
REMARK    1  A    between atoms: C7_7  and  C8_8 
REMARK    2  A    between atoms: C10_10  and  C11_11 
REMARK    3  A    between atoms: C12_12  and  C13_13 
REMARK    4  A    between atoms: C20_20  and  C21_21 
ROOT
HETATM    1  C8  UNL     1      59.319  36.225  25.526  1.00  0.00     0.044 A 
HETATM    2  C9  UNL     1      59.041  35.988  26.870  1.00  0.00     0.042 A 
HETATM    3  C10 UNL     1      58.030  35.138  27.284  1.00  0.00    -0.032 A 
HETATM    4  C19 UNL     1      57.285  34.516  26.275  1.00  0.00     0.043 A 
HETATM    5  C20 UNL     1      57.550  34.741  24.945  1.00  0.00     0.060 A 
HETATM    6  N2  UNL     1      58.544  35.575  24.657  1.00  0.00    -0.354 N 
ATOM      7  H2  UNL     1      58.734  35.736  23.667  1.00  0.00     0.166 HD
ENDROOT
BRANCH   5   8
HETATM    8  C21 UNL     1      56.738  34.061  23.923  1.00  0.00     0.060 A 
HETATM    9  C22 UNL     1      55.530  33.448  24.129  1.00  0.00     0.045 A 
HETATM   10  C23 UNL     1      55.132  32.945  22.888  1.00  0.00    -0.007 A 
HETATM   11  C24 UNL     1      54.032  32.241  22.442  1.00  0.00     0.014 A 
HETATM   12  C28 UNL     1      56.109  33.270  21.981  1.00  0.00     0.043 A 
HETATM   13  C25 UNL     1      53.891  31.859  21.117  1.00  0.00     0.001 A 
HETATM   14  C26 UNL     1      54.866  32.180  20.200  1.00  0.00     0.002 A 
HETATM   15  C27 UNL     1      55.964  32.884  20.651  1.00  0.00     0.030 A 
HETATM   16  N1  UNL     1      57.068  33.944  22.636  1.00  0.00    -0.354 N 
ATOM     17  H1  UNL     1      57.920  34.313  22.212  1.00  0.00     0.166 HD
ENDBRANCH   5   8
BRANCH   3  18
HETATM   18  C11 UNL     1      57.715  34.872  28.666  1.00  0.00     0.012 C 
HETATM   19  C12 UNL     1      56.525  35.093  29.159  1.00  0.00     0.012 C 
BRANCH  19  20
HETATM   20  C13 UNL     1      56.175  34.834  30.556  1.00  0.00    -0.036 A 
HETATM   21  C14 UNL     1      55.071  34.049  30.822  1.00  0.00     0.011 A 
HETATM   22  C15 UNL     1      54.696  33.774  32.129  1.00  0.00     0.001 A 
HETATM   23  C16 UNL     1      55.411  34.273  33.197  1.00  0.00     0.000 A 
HETATM   24  C17 UNL     1      56.516  35.059  32.944  1.00  0.00     0.001 A 
HETATM   25  C18 UNL     1      56.880  35.326  31.625  1.00  0.00     0.011 A 
ENDBRANCH  19  20
ENDBRANCH   3  18
BRANCH   1  26
HETATM   26  C7  UNL     1      60.388  37.123  25.083  1.00  0.00    -0.004 A 
HETATM   27  C2  UNL     1      61.515  37.364  25.835  1.00  0.00    -0.050 A 
HETATM   28  C1  UNL     1      61.721  36.723  27.154  1.00  0.00     0.049 C 
HETATM   29  C3  UNL     1      62.510  38.232  25.367  1.00  0.00     0.007 A 
HETATM   30  C4  UNL     1      62.411  38.872  24.160  1.00  0.00     0.001 A 
HETATM   31  C5  UNL     1      61.301  38.646  23.403  1.00  0.00     0.001 A 
HETATM   32  C6  UNL     1      60.302  37.780  23.861  1.00  0.00     0.014 A 
ENDBRANCH   1  26
TORSDOF 4
ENDMDL
MODEL 4
REMARK VINA RESULT: -11.785548733      0.788      1.744
REMARK  4 active torsions:
REMARK  status: ('A' for Active; 'I' for Inactive)
REMARK    1  A    between atoms: C7_7  and  C8_8 
REMARK    2  A    between atoms: C10_10  and  C11_11 
REMARK    3  A    between atoms: C12_12  and  C13_13 
REMARK    4  A    between atoms: C20_20  and  C21_21 
ROOT
HETATM    1  C8  UNL     1      59.373  36.274  25.542  1.00  0.00     0.044 A 
HETATM    2  C9  UNL     1      59.074  36.062  26.885  1.00  0.00     0.042 A 
HETATM    3  C10 UNL     1      58.051  35.225  27.298  1.00  0.00    -0.032 A 
HETATM    4  C19 UNL     1      57.317  34.591  26.289  1.00  0.00     0.043 A 
HETATM    5  C20 UNL     1      57.603  34.792  24.960  1.00  0.00     0.060 A 
HETATM    6  N2  UNL     1      58.607  35.615  24.672  1.00  0.00    -0.354 N 
ATOM      7  H2  UNL     1      58.812  35.758  23.683  1.00  0.00     0.166 HD
ENDROOT
BRANCH   5   8
HETATM    8  C21 UNL     1      56.801  34.101  23.937  1.00  0.00     0.060 A 
HETATM    9  C22 UNL     1      57.206  33.799  22.663  1.00  0.00     0.045 A 
HETATM   10  C23 UNL     1      56.129  33.149  22.057  1.00  0.00    -0.007 A 
HETATM   11  C24 UNL     1      55.911  32.608  20.805  1.00  0.00     0.014 A 
HETATM   12  C28 UNL     1      55.117  33.081  22.980  1.00  0.00     0.043 A 
HETATM   13  C25 UNL     1      54.712  32.005  20.463  1.00  0.00     0.001 A 
HETATM   14  C26 UNL     1      53.690  31.932  21.385  1.00  0.00     0.002 A 
HETATM   15  C27 UNL     1      53.912  32.475  22.634  1.00  0.00     0.030 A 
HETATM   16  N1  UNL     1      55.552  33.665  24.108  1.00  0.00    -0.354 N 
ATOM     17  H1  UNL     1      55.010  33.760  24.967  1.00  0.00     0.166 HD
ENDBRANCH   5   8
BRANCH   3  18
HETATM   18  C11 UNL     1      57.715  34.985  28.680  1.00  0.00     0.012 C 
HETATM   19  C12 UNL     1      56.478  34.987  29.101  1.00  0.00     0.012 C 
BRANCH  19  20
HETATM   20  C13 UNL     1      56.105  34.747  30.495  1.00  0.00    -0.036 A 
HETATM   21  C14 UNL     1      56.887  35.299  31.490  1.00  0.00     0.011 A 
HETATM   22  C15 UNL     1      56.576  35.101  32.827  1.00  0.00     0.001 A 
HETATM   23  C16 UNL     1      55.482  34.351  33.202  1.00  0.00     0.000 A 
HETATM   24  C17 UNL     1      54.694  33.793  32.218  1.00  0.00     0.001 A 
HETATM   25  C18 UNL     1      55.018  34.002  30.879  1.00  0.00     0.011 A 
ENDBRANCH  19  20
ENDBRANCH   3  18
BRANCH   1  26
HETATM   26  C7  UNL     1      60.455  37.158  25.099  1.00  0.00    -0.004 A 
HETATM   27  C2  UNL     1      61.592  37.372  25.845  1.00  0.00    -0.050 A 
HETATM   28  C1  UNL     1      61.795  36.715  27.157  1.00  0.00     0.049 C 
HETATM   29  C3  UNL     1      62.598  38.227  25.378  1.00  0.00     0.007 A 
HETATM   30  C4  UNL     1      62.501  38.879  24.178  1.00  0.00     0.001 A 
HETATM   31  C5  UNL     1      61.383  38.679  23.427  1.00  0.00     0.001 A 
HETATM   32  C6  UNL     1      60.372  37.827  23.884  1.00  0.00     0.014 A 
ENDBRANCH   1  26
TORSDOF 4
ENDMDL
MODEL 5
REMARK VINA RESULT: -11.775890350      1.213      7.796
REMARK  4 active torsions:
REMARK  status: ('A' for Active; 'I' for Inactive)
REMARK    1  A    between atoms: C7_7  and  C8_8 
REMARK    2  A    between atoms: C10_10  and  C11_11 
REMARK    3  A    between atoms: C12_12  and  C13_13 
REMARK    4  A    between atoms: C20_20  and  C21_21 
ROOT
HETATM    1  C8  UNL     1      59.056  35.887  26.740  1.00  0.00     0.044 A 
HETATM    2  C9  UNL     1      58.391  35.188  25.736  1.00  0.00     0.042 A 
HETATM    3  C10 UNL     1      57.274  34.408  25.984  1.00  0.00    -0.032 A 
HETATM    4  C19 UNL     1      56.836  34.351  27.312  1.00  0.00     0.043 A 
HETATM    5  C20 UNL     1      57.484  35.036  28.312  1.00  0.00     0.060 A 
HETATM    6  N2  UNL     1      58.547  35.756  27.964  1.00  0.00    -0.354 N 
ATOM      7  H2  UNL     1      59.021  36.262  28.713  1.00  0.00     0.166 HD
ENDROOT
BRANCH   5   8
HETATM    8  C21 UNL     1      56.983  34.943  29.693  1.00  0.00     0.060 A 
HETATM    9  C22 UNL     1      55.805  34.363  30.086  1.00  0.00     0.045 A 
HETATM   10  C23 UNL     1      55.745  34.506  31.474  1.00  0.00    -0.007 A 
HETATM   11  C24 UNL     1      54.831  34.140  32.441  1.00  0.00     0.014 A 
HETATM   12  C28 UNL     1      56.883  35.163  31.868  1.00  0.00     0.043 A 
HETATM   13  C25 UNL     1      55.031  34.416  33.784  1.00  0.00     0.001 A 
HETATM   14  C26 UNL     1      56.171  35.075  34.190  1.00  0.00     0.002 A 
HETATM   15  C27 UNL     1      57.081  35.439  33.219  1.00  0.00     0.030 A 
HETATM   16  N1  UNL     1      57.613  35.415  30.770  1.00  0.00    -0.354 N 
ATOM     17  H1  UNL     1      58.513  35.894  30.760  1.00  0.00     0.166 HD
ENDBRANCH   5   8
BRANCH   3  18
HETATM   18  C11 UNL     1      56.562  33.672  24.968  1.00  0.00     0.012 C 
HETATM   19  C12 UNL     1      56.546  34.058  23.720  1.00  0.00     0.012 C 
BRANCH  19  20
HETATM   20  C13 UNL     1      55.834  33.334  22.666  1.00  0.00    -0.036 A 
HETATM   21  C14 UNL     1      54.623  32.747  22.975  1.00  0.00     0.011 A 
HETATM   22  C15 UNL     1      53.908  32.049  22.012  1.00  0.00     0.001 A 
HETATM   23  C16 UNL     1      54.382  31.922  20.724  1.00  0.00     0.000 A 
HETATM   24  C17 UNL     1      55.591  32.503  20.403  1.00  0.00     0.001 A 
HETATM   25  C18 UNL     1      56.297  33.201  21.381  1.00  0.00     0.011 A 
ENDBRANCH  19  20
ENDBRANCH   3  18
BRANCH   1  26
HETATM   26  C7  UNL     1      60.238  36.714  26.482  1.00  0.00    -0.004 A 
HETATM   27  C2  UNL     1      60.301  37.616  25.444  1.00  0.00    -0.050 A 
HETATM   28  C1  UNL     1      59.166  37.810  24.513  1.00  0.00     0.049 C 
HETATM   29  C3  UNL     1      61.454  38.384  25.239  1.00  0.00     0.007 A 
HETATM   30  C4  UNL     1      62.555  38.276  26.046  1.00  0.00     0.001 A 
HETATM   31  C5  UNL     1      62.510  37.388  27.078  1.00  0.00     0.001 A 
HETATM   32  C6  UNL     1      61.363  36.616  27.291  1.00  0.00     0.014 A 
ENDBRANCH   1  26
TORSDOF 4
ENDMDL
