MODEL 1
REMARK VINA RESULT: -9.932197041      0.000      0.000
REMARK  5 active torsions:
REMARK  status: ('A' for Active; 'I' for Inactive)
REMARK    1  A    between atoms: C2_2  and  O1_3 
REMARK    2  A    between atoms: O1_3  and  C3_4 
REMARK    3  A    between atoms: C8_9  and  C9_10 
REMARK    4  A    between atoms: C10_11  and  C11_12 
REMARK    5  A    between atoms: C14_15  and  C15_16 
ROOT
HETATM    1  C9  UNL     1      58.348  35.511  29.038  1.00  0.00     0.017 A 
HETATM    2  C10 UNL     1      59.111  35.703  27.909  1.00  0.00     0.055 A 
HETATM    3  N1  UNL     1      60.244  36.327  28.270  1.00  0.00    -0.354 N 
ATOM      4  H1  UNL     1      60.995  36.594  27.632  1.00  0.00     0.166 HD
HETATM    5  C23 UNL     1      60.245  36.548  29.607  1.00  0.00     0.043 A 
HETATM    6  C24 UNL     1      61.144  37.137  30.464  1.00  0.00     0.030 A 
HETATM    7  C25 UNL     1      60.907  37.243  31.819  1.00  0.00     0.002 A 
HETATM    8  C26 UNL     1      59.720  36.733  32.301  1.00  0.00     0.001 A 
HETATM    9  C27 UNL     1      58.791  36.133  31.466  1.00  0.00     0.014 A 
HETATM   10  C28 UNL     1      59.051  36.040  30.123  1.00  0.00     0.004 A 
ENDROOT
BRANCH   2  11
HETATM   11  C11 UNL     1      58.710  35.283  26.576  1.00  0.00    -0.009 A 
HETATM   12  C12 UNL     1      58.188  34.025  26.361  1.00  0.00     0.014 A 
HETATM   13  C13 UNL     1      57.818  33.655  25.086  1.00  0.00     0.013 A 
HETATM   14  C14 UNL     1      57.962  34.537  24.005  1.00  0.00    -0.026 A 
HETATM   15  C21 UNL     1      58.483  35.791  24.225  1.00  0.00     0.013 A 
HETATM   16  C22 UNL     1      58.847  36.151  25.480  1.00  0.00     0.014 A 
BRANCH  14  17
HETATM   17  C15 UNL     1      57.570  34.146  22.661  1.00  0.00    -0.026 A 
HETATM   18  C16 UNL     1      58.333  34.383  21.542  1.00  0.00     0.012 A 
HETATM   19  C17 UNL     1      57.898  33.983  20.276  1.00  0.00     0.001 A 
HETATM   20  C18 UNL     1      56.696  33.340  20.121  1.00  0.00     0.000 A 
HETATM   21  C19 UNL     1      55.930  33.100  21.229  1.00  0.00     0.001 A 
HETATM   22  C20 UNL     1      56.367  33.501  22.485  1.00  0.00     0.012 A 
ENDBRANCH  14  17
ENDBRANCH   2  11
BRANCH   1  23
HETATM   23  C8  UNL     1      57.048  34.870  29.069  1.00  0.00     0.011 A 
HETATM   24  C3  UNL     1      56.934  33.518  29.437  1.00  0.00     0.080 A 
HETATM   25  C4  UNL     1      55.686  32.921  29.463  1.00  0.00     0.037 A 
HETATM   26  C5  UNL     1      54.527  33.624  29.132  1.00  0.00     0.003 A 
HETATM   27  C6  UNL     1      54.647  34.936  28.776  1.00  0.00     0.001 A 
HETATM   28  C7  UNL     1      55.880  35.515  28.753  1.00  0.00     0.015 A 
BRANCH  24  29
HETATM   29  O1  UNL     1      58.087  32.856  29.756  1.00  0.00    -0.351 OA
BRANCH  29  30
HETATM   30  C2  UNL     1      58.206  31.952  30.814  1.00  0.00     0.171 C 
HETATM   31  C1  UNL     1      58.258  32.588  32.175  1.00  0.00     0.034 C 
ENDBRANCH  29  30
ENDBRANCH  24  29
ENDBRANCH   1  23
TORSDOF 5
ENDMDL
MODEL 2
REMARK VINA RESULT: -9.843338293      1.037      1.404
REMARK  5 active torsions:
REMARK  status: ('A' for Active; 'I' for Inactive)
REMARK    1  A    between atoms: C2_2  and  O1_3 
REMARK    2  A    between atoms: O1_3  and  C3_4 
REMARK    3  A    between atoms: C8_9  and  C9_10 
REMARK    4  A    between atoms: C10_11  and  C11_12 
REMARK    5  A    between atoms: C14_15  and  C15_16 
ROOT
HETATM    1  C9  UNL     1      58.237  35.277  28.776  1.00  0.00     0.017 A 
HETATM    2  C10 UNL     1      58.854  35.302  27.546  1.00  0.00     0.055 A 
HETATM    3  N1  UNL     1      60.022  35.951  27.675  1.00  0.00    -0.354 N 
ATOM      4  H1  UNL     1      60.686  36.118  26.918  1.00  0.00     0.166 HD
HETATM    5  C23 UNL     1      60.189  36.353  28.958  1.00  0.00     0.043 A 
HETATM    6  C24 UNL     1      61.187  37.039  29.608  1.00  0.00     0.030 A 
HETATM    7  C25 UNL     1      61.121  37.333  30.955  1.00  0.00     0.002 A 
HETATM    8  C26 UNL     1      60.004  36.911  31.645  1.00  0.00     0.001 A 
HETATM    9  C27 UNL     1      58.979  36.217  31.022  1.00  0.00     0.014 A 
HETATM   10  C28 UNL     1      59.070  35.938  29.683  1.00  0.00     0.004 A 
ENDROOT
BRANCH   2  11
HETATM   11  C11 UNL     1      58.290  34.710  26.343  1.00  0.00    -0.009 A 
HETATM   12  C12 UNL     1      58.270  35.411  25.156  1.00  0.00     0.014 A 
HETATM   13  C13 UNL     1      57.729  34.825  24.032  1.00  0.00     0.013 A 
HETATM   14  C14 UNL     1      57.199  33.526  24.077  1.00  0.00    -0.026 A 
HETATM   15  C21 UNL     1      57.221  32.831  25.264  1.00  0.00     0.013 A 
HETATM   16  C22 UNL     1      57.754  33.412  26.367  1.00  0.00     0.014 A 
BRANCH  14  17
HETATM   17  C15 UNL     1      56.629  32.908  22.892  1.00  0.00    -0.026 A 
HETATM   18  C16 UNL     1      57.288  31.982  22.119  1.00  0.00     0.012 A 
HETATM   19  C17 UNL     1      56.683  31.424  20.989  1.00  0.00     0.001 A 
HETATM   20  C18 UNL     1      55.413  31.791  20.625  1.00  0.00     0.000 A 
HETATM   21  C19 UNL     1      54.748  32.712  21.387  1.00  0.00     0.001 A 
HETATM   22  C20 UNL     1      55.355  33.263  22.509  1.00  0.00     0.012 A 
ENDBRANCH  14  17
ENDBRANCH   2  11
BRANCH   1  23
HETATM   23  C8  UNL     1      56.953  34.666  29.056  1.00  0.00     0.011 A 
HETATM   24  C3  UNL     1      56.888  33.396  29.656  1.00  0.00     0.080 A 
HETATM   25  C4  UNL     1      55.654  32.827  29.917  1.00  0.00     0.037 A 
HETATM   26  C5  UNL     1      54.462  33.479  29.601  1.00  0.00     0.003 A 
HETATM   27  C6  UNL     1      54.534  34.711  29.019  1.00  0.00     0.001 A 
HETATM   28  C7  UNL     1      55.754  35.263  28.765  1.00  0.00     0.015 A 
BRANCH  24  29
HETATM   29  O1  UNL     1      58.074  32.784  29.955  1.00  0.00    -0.351 OA
BRANCH  29  30
HETATM   30  C2  UNL     1      58.297  32.024  31.105  1.00  0.00     0.171 C 
HETATM   31  C1  UNL     1      58.356  32.821  32.377  1.00  0.00     0.034 C 
ENDBRANCH  29  30
ENDBRANCH  24  29
ENDBRANCH   1  23
TORSDOF 5
ENDMDL
MODEL 3
REMARK VINA RESULT: -9.541681201      2.766      4.920
REMARK  5 active torsions:
REMARK  status: ('A' for Active; 'I' for Inactive)
REMARK    1  A    between atoms: C2_2  and  O1_3 
REMARK    2  A    between atoms: O1_3  and  C3_4 
REMARK    3  A    between atoms: C8_9  and  C9_10 
REMARK    4  A    between atoms: C10_11  and  C11_12 
REMARK    5  A    between atoms: C14_15  and  C15_16 
ROOT
HETATM    1  C9  UNL     1      60.949  36.965  27.651  1.00  0.00     0.017 A 
HETATM    2  C10 UNL     1      59.826  36.169  27.625  1.00  0.00     0.055 A 
HETATM    3  N1  UNL     1      59.429  35.964  28.892  1.00  0.00    -0.354 N 
ATOM      4  H1  UNL     1      58.619  35.408  29.168  1.00  0.00     0.166 HD
HETATM    5  C23 UNL     1      60.262  36.603  29.748  1.00  0.00     0.043 A 
HETATM    6  C24 UNL     1      60.302  36.713  31.117  1.00  0.00     0.030 A 
HETATM    7  C25 UNL     1      61.277  37.441  31.768  1.00  0.00     0.002 A 
HETATM    8  C26 UNL     1      62.229  38.069  30.992  1.00  0.00     0.001 A 
HETATM    9  C27 UNL     1      62.219  37.979  29.610  1.00  0.00     0.014 A 
HETATM   10  C28 UNL     1      61.239  37.249  28.988  1.00  0.00     0.004 A 
ENDROOT
BRANCH   2  11
HETATM   11  C11 UNL     1      59.216  35.665  26.405  1.00  0.00    -0.009 A 
HETATM   12  C12 UNL     1      59.204  36.428  25.257  1.00  0.00     0.014 A 
HETATM   13  C13 UNL     1      58.617  35.923  24.116  1.00  0.00     0.013 A 
HETATM   14  C14 UNL     1      58.033  34.648  24.105  1.00  0.00    -0.026 A 
HETATM   15  C21 UNL     1      58.048  33.892  25.254  1.00  0.00     0.013 A 
HETATM   16  C22 UNL     1      58.625  34.391  26.374  1.00  0.00     0.014 A 
BRANCH  14  17
HETATM   17  C15 UNL     1      57.415  34.116  22.902  1.00  0.00    -0.026 A 
HETATM   18  C16 UNL     1      56.191  33.491  22.882  1.00  0.00     0.012 A 
HETATM   19  C17 UNL     1      55.652  33.000  21.690  1.00  0.00     0.001 A 
HETATM   20  C18 UNL     1      56.335  33.133  20.508  1.00  0.00     0.000 A 
HETATM   21  C19 UNL     1      57.554  33.753  20.517  1.00  0.00     0.001 A 
HETATM   22  C20 UNL     1      58.085  34.239  21.706  1.00  0.00     0.012 A 
ENDBRANCH  14  17
ENDBRANCH   2  11
BRANCH   1  23
HETATM   23  C8  UNL     1      61.683  37.414  26.483  1.00  0.00     0.011 A 
HETATM   24  C3  UNL     1      62.925  36.840  26.164  1.00  0.00     0.080 A 
HETATM   25  C4  UNL     1      63.612  37.279  25.046  1.00  0.00     0.037 A 
HETATM   26  C5  UNL     1      63.106  38.282  24.218  1.00  0.00     0.003 A 
HETATM   27  C6  UNL     1      61.898  38.834  24.537  1.00  0.00     0.001 A 
HETATM   28  C7  UNL     1      61.230  38.395  25.640  1.00  0.00     0.015 A 
BRANCH  24  29
HETATM   29  O1  UNL     1      63.394  35.859  26.993  1.00  0.00    -0.351 OA
BRANCH  29  30
HETATM   30  C2  UNL     1      64.667  35.293  26.899  1.00  0.00     0.171 C 
HETATM   31  C1  UNL     1      64.687  33.791  26.937  1.00  0.00     0.034 C 
ENDBRANCH  29  30
ENDBRANCH  24  29
ENDBRANCH   1  23
TORSDOF 5
ENDMDL
MODEL 4
REMARK VINA RESULT: -9.526066677      3.490      5.124
REMARK  5 active torsions:
REMARK  status: ('A' for Active; 'I' for Inactive)
REMARK    1  A    between atoms: C2_2  and  O1_3 
REMARK    2  A    between atoms: O1_3  and  C3_4 
REMARK    3  A    between atoms: C8_9  and  C9_10 
REMARK    4  A    between atoms: C10_11  and  C11_12 
REMARK    5  A    between atoms: C14_15  and  C15_16 
ROOT
HETATM    1  C9  UNL     1      57.602  35.374  31.352  1.00  0.00     0.017 A 
HETATM    2  C10 UNL     1      58.774  36.087  31.464  1.00  0.00     0.055 A 
HETATM    3  N1  UNL     1      58.932  36.435  32.752  1.00  0.00    -0.354 N 
ATOM      4  H1  UNL     1      59.717  36.972  33.121  1.00  0.00     0.166 HD
HETATM    5  C23 UNL     1      57.895  35.969  33.488  1.00  0.00     0.043 A 
HETATM    6  C24 UNL     1      57.577  36.046  34.822  1.00  0.00     0.030 A 
HETATM    7  C25 UNL     1      56.434  35.473  35.341  1.00  0.00     0.002 A 
HETATM    8  C26 UNL     1      55.600  34.809  34.466  1.00  0.00     0.001 A 
HETATM    9  C27 UNL     1      55.889  34.712  33.114  1.00  0.00     0.014 A 
HETATM   10  C28 UNL     1      57.032  35.289  32.625  1.00  0.00     0.004 A 
ENDROOT
BRANCH   2  11
HETATM   11  C11 UNL     1      59.654  36.385  30.345  1.00  0.00    -0.009 A 
HETATM   12  C12 UNL     1      60.860  37.021  30.548  1.00  0.00     0.014 A 
HETATM   13  C13 UNL     1      61.673  37.291  29.467  1.00  0.00     0.013 A 
HETATM   14  C14 UNL     1      61.293  36.928  28.167  1.00  0.00    -0.026 A 
HETATM   15  C21 UNL     1      60.088  36.294  27.970  1.00  0.00     0.013 A 
HETATM   16  C22 UNL     1      59.291  36.031  29.035  1.00  0.00     0.014 A 
BRANCH  14  17
HETATM   17  C15 UNL     1      62.151  37.212  27.028  1.00  0.00    -0.026 A 
HETATM   18  C16 UNL     1      61.807  38.063  26.005  1.00  0.00     0.012 A 
HETATM   19  C17 UNL     1      62.678  38.293  24.936  1.00  0.00     0.001 A 
HETATM   20  C18 UNL     1      63.901  37.672  24.886  1.00  0.00     0.000 A 
HETATM   21  C19 UNL     1      64.251  36.823  25.899  1.00  0.00     0.001 A 
HETATM   22  C20 UNL     1      63.381  36.598  26.959  1.00  0.00     0.012 A 
ENDBRANCH  14  17
ENDBRANCH   2  11
BRANCH   1  23
HETATM   23  C8  UNL     1      57.076  34.819  30.120  1.00  0.00     0.011 A 
HETATM   24  C3  UNL     1      57.504  33.558  29.672  1.00  0.00     0.080 A 
HETATM   25  C4  UNL     1      56.991  33.042  28.496  1.00  0.00     0.037 A 
HETATM   26  C5  UNL     1      56.054  33.740  27.733  1.00  0.00     0.003 A 
HETATM   27  C6  UNL     1      55.644  34.964  28.176  1.00  0.00     0.001 A 
HETATM   28  C7  UNL     1      56.155  35.464  29.336  1.00  0.00     0.015 A 
BRANCH  24  29
HETATM   29  O1  UNL     1      58.422  32.898  30.442  1.00  0.00    -0.351 OA
BRANCH  29  30
HETATM   30  C2  UNL     1      58.094  31.961  31.424  1.00  0.00     0.171 C 
HETATM   31  C1  UNL     1      58.653  32.263  32.785  1.00  0.00     0.034 C 
ENDBRANCH  29  30
ENDBRANCH  24  29
ENDBRANCH   1  23
TORSDOF 5
ENDMDL
MODEL 5
REMARK VINA RESULT: -9.477291942      3.976      5.584
REMARK  5 active torsions:
REMARK  status: ('A' for Active; 'I' for Inactive)
REMARK    1  A    between atoms: C2_2  and  O1_3 
REMARK    2  A    between atoms: O1_3  and  C3_4 
REMARK    3  A    between atoms: C8_9  and  C9_10 
REMARK    4  A    between atoms: C10_11  and  C11_12 
REMARK    5  A    between atoms: C14_15  and  C15_16 
ROOT
HETATM    1  C9  UNL     1      58.055  35.066  31.966  1.00  0.00     0.017 A 
HETATM    2  C10 UNL     1      58.869  36.165  31.808  1.00  0.00     0.055 A 
HETATM    3  N1  UNL     1      58.768  36.923  32.912  1.00  0.00    -0.354 N 
ATOM      4  H1  UNL     1      59.265  37.801  33.067  1.00  0.00     0.166 HD
HETATM    5  C23 UNL     1      57.910  36.351  33.790  1.00  0.00     0.043 A 
HETATM    6  C24 UNL     1      57.465  36.707  35.040  1.00  0.00     0.030 A 
HETATM    7  C25 UNL     1      56.567  35.935  35.750  1.00  0.00     0.002 A 
HETATM    8  C26 UNL     1      56.120  34.772  35.158  1.00  0.00     0.001 A 
HETATM    9  C27 UNL     1      56.547  34.382  33.900  1.00  0.00     0.014 A 
HETATM   10  C28 UNL     1      57.440  35.167  33.216  1.00  0.00     0.004 A 
ENDROOT
BRANCH   2  11
HETATM   11  C11 UNL     1      59.678  36.413  30.626  1.00  0.00    -0.009 A 
HETATM   12  C12 UNL     1      59.227  36.048  29.375  1.00  0.00     0.014 A 
HETATM   13  C13 UNL     1      60.017  36.296  28.272  1.00  0.00     0.013 A 
HETATM   14  C14 UNL     1      61.271  36.913  28.403  1.00  0.00    -0.026 A 
HETATM   15  C21 UNL     1      61.715  37.275  29.654  1.00  0.00     0.013 A 
HETATM   16  C22 UNL     1      60.935  37.029  30.736  1.00  0.00     0.014 A 
BRANCH  14  17
HETATM   17  C15 UNL     1      62.102  37.174  27.240  1.00  0.00    -0.026 A 
HETATM   18  C16 UNL     1      61.718  37.971  26.188  1.00  0.00     0.012 A 
HETATM   19  C17 UNL     1      62.566  38.182  25.097  1.00  0.00     0.001 A 
HETATM   20  C18 UNL     1      63.806  37.597  25.053  1.00  0.00     0.000 A 
HETATM   21  C19 UNL     1      64.197  36.801  26.095  1.00  0.00     0.001 A 
HETATM   22  C20 UNL     1      63.350  36.595  27.177  1.00  0.00     0.012 A 
ENDBRANCH  14  17
ENDBRANCH   2  11
BRANCH   1  23
HETATM   23  C8  UNL     1      57.884  34.005  30.992  1.00  0.00     0.011 A 
HETATM   24  C3  UNL     1      56.821  34.051  30.074  1.00  0.00     0.080 A 
HETATM   25  C4  UNL     1      56.673  33.032  29.150  1.00  0.00     0.037 A 
HETATM   26  C5  UNL     1      57.553  31.950  29.101  1.00  0.00     0.003 A 
HETATM   27  C6  UNL     1      58.582  31.913  29.997  1.00  0.00     0.001 A 
HETATM   28  C7  UNL     1      58.719  32.922  30.903  1.00  0.00     0.015 A 
BRANCH  24  29
HETATM   29  O1  UNL     1      55.977  35.125  30.146  1.00  0.00    -0.351 OA
BRANCH  29  30
HETATM   30  C2  UNL     1      55.540  35.856  29.039  1.00  0.00     0.171 C 
HETATM   31  C1  UNL     1      54.229  35.397  28.467  1.00  0.00     0.034 C 
ENDBRANCH  29  30
ENDBRANCH  24  29
ENDBRANCH   1  23
TORSDOF 5
ENDMDL
