MODEL 1
REMARK VINA RESULT: -8.742614506      0.000      0.000
REMARK  6 active torsions:
REMARK  status: ('A' for Active; 'I' for Inactive)
REMARK    1  A    between atoms: O1_1  and  C1_3 
REMARK    2  A    between atoms: C1_3  and  N1_4 
REMARK    3  A    between atoms: C1_3  and  C13_24 
REMARK    4  A    between atoms: N2_7  and  C4_8 
REMARK    5  A    between atoms: C4_8  and  N3_10 
REMARK    6  A    between atoms: N3_10  and  C5_12 
ROOT
HETATM    1  N1  UNL     1      24.543   2.751  21.097  1.00  0.00    -0.327 N 
HETATM    2  C2  UNL     1      24.848   4.146  21.287  1.00  0.00     0.148 C 
HETATM    3  C3  UNL     1      24.351   4.990  20.134  1.00  0.00     0.145 C 
HETATM    4  N2  UNL     1      24.965   4.561  18.871  1.00  0.00    -0.352 N 
HETATM    5  C11 UNL     1      25.519   3.253  18.878  1.00  0.00     0.190 C 
HETATM    6  C12 UNL     1      24.577   2.331  19.686  1.00  0.00     0.206 C 
HETATM    7 CL1  UNL     1      25.160   0.656  19.503  1.00  0.00    -0.076 Cl
HETATM    8 CL2  UNL     1      22.969   2.505  18.966  1.00  0.00    -0.076 Cl
ENDROOT
BRANCH   1   9
HETATM    9  C1  UNL     1      24.237   1.806  22.091  1.00  0.00     0.125 C 
BRANCH   9  10
HETATM   10  O1  UNL     1      25.277   1.239  22.638  1.00  0.00    -0.349 OA
ATOM     11  H1  UNL     1      25.381   0.319  22.424  1.00  0.00     0.219 HD
ENDBRANCH   9  10
BRANCH   9  12
HETATM   12  C13 UNL     1      22.922   1.375  22.591  1.00  0.00     0.026 C 
HETATM   13  C14 UNL     1      22.973   1.149  24.067  1.00  0.00     0.022 C 
HETATM   14  C15 UNL     1      21.670   0.615  24.632  1.00  0.00    -0.013 C 
HETATM   15  C16 UNL     1      21.314  -0.641  23.909  1.00  0.00     0.009 C 
HETATM   16  C20 UNL     1      20.650   1.723  24.449  1.00  0.00     0.009 C 
HETATM   17  C17 UNL     1      21.070  -0.300  22.478  1.00  0.00    -0.013 C 
HETATM   18  C18 UNL     1      20.041   0.800  22.290  1.00  0.00     0.009 C 
HETATM   19  C22 UNL     1      22.349   0.213  21.834  1.00  0.00     0.022 C 
HETATM   20  C19 UNL     1      20.594   2.028  22.986  1.00  0.00    -0.013 C 
HETATM   21  C21 UNL     1      21.891   2.506  22.397  1.00  0.00     0.022 C 
ENDBRANCH   9  12
ENDBRANCH   1   9
BRANCH   4  22
HETATM   22  C4  UNL     1      24.929   5.516  17.839  1.00  0.00     0.174 C 
HETATM   23  S1  UNL     1      25.013   4.905  16.246  1.00  0.00    -0.041 SA
BRANCH  22  24
HETATM   24  N3  UNL     1      24.836   6.902  17.873  1.00  0.00    -0.328 N 
ATOM     25  H3  UNL     1      25.705   7.394  18.079  1.00  0.00     0.168 HD
BRANCH  24  26
HETATM   26  C5  UNL     1      23.719   7.718  17.664  1.00  0.00     0.112 A 
HETATM   27  C6  UNL     1      23.355   8.240  16.437  1.00  0.00     0.146 A 
HETATM   28  F1  UNL     1      24.086   7.913  15.346  1.00  0.00    -0.204 F 
HETATM   29  C7  UNL     1      22.287   9.067  16.309  1.00  0.00     0.045 A 
HETATM   30  C8  UNL     1      21.535   9.407  17.415  1.00  0.00     0.006 A 
HETATM   31  C9  UNL     1      21.848   8.918  18.667  1.00  0.00     0.045 A 
HETATM   32  C10 UNL     1      22.943   8.075  18.763  1.00  0.00     0.146 A 
HETATM   33  F2  UNL     1      23.291   7.568  19.972  1.00  0.00    -0.204 F 
ENDBRANCH  24  26
ENDBRANCH  22  24
ENDBRANCH   4  22
TORSDOF 6
ENDMDL
MODEL 2
REMARK VINA RESULT: -8.650520853      0.083      1.472
REMARK  6 active torsions:
REMARK  status: ('A' for Active; 'I' for Inactive)
REMARK    1  A    between atoms: O1_1  and  C1_3 
REMARK    2  A    between atoms: C1_3  and  N1_4 
REMARK    3  A    between atoms: C1_3  and  C13_24 
REMARK    4  A    between atoms: N2_7  and  C4_8 
REMARK    5  A    between atoms: C4_8  and  N3_10 
REMARK    6  A    between atoms: N3_10  and  C5_12 
ROOT
HETATM    1  N1  UNL     1      24.550   2.699  21.079  1.00  0.00    -0.327 N 
HETATM    2  C2  UNL     1      24.825   4.098  21.284  1.00  0.00     0.148 C 
HETATM    3  C3  UNL     1      24.337   4.940  20.125  1.00  0.00     0.145 C 
HETATM    4  N2  UNL     1      24.987   4.530  18.874  1.00  0.00    -0.352 N 
HETATM    5  C11 UNL     1      25.565   3.232  18.885  1.00  0.00     0.190 C 
HETATM    6  C12 UNL     1      24.623   2.288  19.666  1.00  0.00     0.206 C 
HETATM    7 CL1  UNL     1      25.240   0.625  19.487  1.00  0.00    -0.076 Cl
HETATM    8 CL2  UNL     1      23.027   2.437  18.912  1.00  0.00    -0.076 Cl
ENDROOT
BRANCH   1   9
HETATM    9  C1  UNL     1      24.239   1.742  22.061  1.00  0.00     0.125 C 
BRANCH   9  10
HETATM   10  O1  UNL     1      25.275   1.138  22.576  1.00  0.00    -0.349 OA
ATOM     11  H1  UNL     1      25.931   1.723  22.936  1.00  0.00     0.219 HD
ENDBRANCH   9  10
BRANCH   9  12
HETATM   12  C13 UNL     1      22.923   1.333  22.577  1.00  0.00     0.026 C 
HETATM   13  C14 UNL     1      22.984   1.127  24.056  1.00  0.00     0.022 C 
HETATM   14  C15 UNL     1      21.680   0.616  24.639  1.00  0.00    -0.013 C 
HETATM   15  C16 UNL     1      21.304  -0.645  23.937  1.00  0.00     0.009 C 
HETATM   16  C20 UNL     1      20.671   1.733  24.448  1.00  0.00     0.009 C 
HETATM   17  C17 UNL     1      21.051  -0.321  22.503  1.00  0.00    -0.013 C 
HETATM   18  C18 UNL     1      20.034   0.787  22.308  1.00  0.00     0.009 C 
HETATM   19  C22 UNL     1      22.331   0.167  21.841  1.00  0.00     0.022 C 
HETATM   20  C19 UNL     1      20.606   2.019  22.982  1.00  0.00    -0.013 C 
HETATM   21  C21 UNL     1      21.904   2.474  22.376  1.00  0.00     0.022 C 
ENDBRANCH   9  12
ENDBRANCH   1   9
BRANCH   4  22
HETATM   22  C4  UNL     1      24.957   5.491  17.847  1.00  0.00     0.174 C 
HETATM   23  S1  UNL     1      24.996   4.886  16.250  1.00  0.00    -0.041 SA
BRANCH  22  24
HETATM   24  N3  UNL     1      24.900   6.878  17.889  1.00  0.00    -0.328 N 
ATOM     25  H3  UNL     1      25.797   7.349  18.009  1.00  0.00     0.168 HD
BRANCH  24  26
HETATM   26  C5  UNL     1      23.787   7.720  17.788  1.00  0.00     0.112 A 
HETATM   27  C6  UNL     1      22.953   8.037  18.843  1.00  0.00     0.146 A 
HETATM   28  F1  UNL     1      23.243   7.551  20.073  1.00  0.00    -0.204 F 
HETATM   29  C7  UNL     1      21.858   8.820  18.669  1.00  0.00     0.045 A 
HETATM   30  C8  UNL     1      21.554   9.321  17.421  1.00  0.00     0.006 A 
HETATM   31  C9  UNL     1      22.348   9.040  16.328  1.00  0.00     0.045 A 
HETATM   32  C10 UNL     1      23.458   8.239  16.539  1.00  0.00     0.146 A 
HETATM   33  F2  UNL     1      24.270   7.935  15.496  1.00  0.00    -0.204 F 
ENDBRANCH  24  26
ENDBRANCH  22  24
ENDBRANCH   4  22
TORSDOF 6
ENDMDL
MODEL 3
REMARK VINA RESULT: -8.638688703      1.772      2.504
REMARK  6 active torsions:
REMARK  status: ('A' for Active; 'I' for Inactive)
REMARK    1  A    between atoms: O1_1  and  C1_3 
REMARK    2  A    between atoms: C1_3  and  N1_4 
REMARK    3  A    between atoms: C1_3  and  C13_24 
REMARK    4  A    between atoms: N2_7  and  C4_8 
REMARK    5  A    between atoms: C4_8  and  N3_10 
REMARK    6  A    between atoms: N3_10  and  C5_12 
ROOT
HETATM    1  N1  UNL     1      23.970   3.601  21.442  1.00  0.00    -0.327 N 
HETATM    2  C2  UNL     1      24.191   4.889  22.050  1.00  0.00     0.148 C 
HETATM    3  C3  UNL     1      23.350   5.966  21.401  1.00  0.00     0.145 C 
HETATM    4  N2  UNL     1      23.664   6.081  19.971  1.00  0.00    -0.352 N 
HETATM    5  C11 UNL     1      24.314   4.955  19.398  1.00  0.00     0.190 C 
HETATM    6  C12 UNL     1      23.687   3.676  19.998  1.00  0.00     0.206 C 
HETATM    7 CL1  UNL     1      24.349   2.275  19.116  1.00  0.00    -0.076 Cl
HETATM    8 CL2  UNL     1      21.941   3.802  19.733  1.00  0.00    -0.076 Cl
ENDROOT
BRANCH   1   9
HETATM    9  C1  UNL     1      24.005   2.347  22.075  1.00  0.00     0.125 C 
BRANCH   9  10
HETATM   10  O1  UNL     1      25.186   1.792  22.112  1.00  0.00    -0.349 OA
ATOM     11  H1  UNL     1      25.255   0.980  21.623  1.00  0.00     0.219 HD
ENDBRANCH   9  10
BRANCH   9  12
HETATM   12  C13 UNL     1      22.907   1.584  22.690  1.00  0.00     0.026 C 
HETATM   13  C14 UNL     1      21.758   2.486  23.005  1.00  0.00     0.022 C 
HETATM   14  C15 UNL     1      20.627   1.776  23.724  1.00  0.00    -0.013 C 
HETATM   15  C16 UNL     1      21.168   1.145  24.963  1.00  0.00     0.009 C 
HETATM   16  C20 UNL     1      20.066   0.773  22.735  1.00  0.00     0.009 C 
HETATM   17  C17 UNL     1      22.158   0.104  24.559  1.00  0.00    -0.013 C 
HETATM   18  C18 UNL     1      21.597  -0.908  23.578  1.00  0.00     0.009 C 
HETATM   19  C22 UNL     1      23.343   0.750  23.858  1.00  0.00     0.022 C 
HETATM   20  C19 UNL     1      21.191  -0.130  22.342  1.00  0.00    -0.013 C 
HETATM   21  C21 UNL     1      22.346   0.564  21.677  1.00  0.00     0.022 C 
ENDBRANCH   9  12
ENDBRANCH   1   9
BRANCH   4  22
HETATM   22  C4  UNL     1      23.289   7.300  19.377  1.00  0.00     0.174 C 
HETATM   23  S1  UNL     1      21.846   8.006  19.957  1.00  0.00    -0.041 SA
BRANCH  22  24
HETATM   24  N3  UNL     1      23.889   8.059  18.380  1.00  0.00    -0.328 N 
ATOM     25  H3  UNL     1      24.533   8.780  18.706  1.00  0.00     0.168 HD
BRANCH  24  26
HETATM   26  C5  UNL     1      23.735   7.974  16.992  1.00  0.00     0.112 A 
HETATM   27  C6  UNL     1      22.788   8.675  16.270  1.00  0.00     0.146 A 
HETATM   28  F1  UNL     1      21.979   9.542  16.922  1.00  0.00    -0.204 F 
HETATM   29  C7  UNL     1      22.656   8.509  14.929  1.00  0.00     0.045 A 
HETATM   30  C8  UNL     1      23.475   7.628  14.254  1.00  0.00     0.006 A 
HETATM   31  C9  UNL     1      24.439   6.899  14.919  1.00  0.00     0.045 A 
HETATM   32  C10 UNL     1      24.549   7.092  16.287  1.00  0.00     0.146 A 
HETATM   33  F2  UNL     1      25.482   6.399  16.986  1.00  0.00    -0.204 F 
ENDBRANCH  24  26
ENDBRANCH  22  24
ENDBRANCH   4  22
TORSDOF 6
ENDMDL
MODEL 4
REMARK VINA RESULT: -8.553242034      1.788      2.474
REMARK  6 active torsions:
REMARK  status: ('A' for Active; 'I' for Inactive)
REMARK    1  A    between atoms: O1_1  and  C1_3 
REMARK    2  A    between atoms: C1_3  and  N1_4 
REMARK    3  A    between atoms: C1_3  and  C13_24 
REMARK    4  A    between atoms: N2_7  and  C4_8 
REMARK    5  A    between atoms: C4_8  and  N3_10 
REMARK    6  A    between atoms: N3_10  and  C5_12 
ROOT
HETATM    1  N1  UNL     1      23.959   3.632  21.455  1.00  0.00    -0.327 N 
HETATM    2  C2  UNL     1      24.181   4.920  22.061  1.00  0.00     0.148 C 
HETATM    3  C3  UNL     1      23.339   5.996  21.413  1.00  0.00     0.145 C 
HETATM    4  N2  UNL     1      23.649   6.110  19.982  1.00  0.00    -0.352 N 
HETATM    5  C11 UNL     1      24.297   4.983  19.409  1.00  0.00     0.190 C 
HETATM    6  C12 UNL     1      23.672   3.705  20.012  1.00  0.00     0.206 C 
HETATM    7 CL1  UNL     1      24.331   2.302  19.130  1.00  0.00    -0.076 Cl
HETATM    8 CL2  UNL     1      21.925   3.831  19.752  1.00  0.00    -0.076 Cl
ENDROOT
BRANCH   1   9
HETATM    9  C1  UNL     1      23.995   2.378  22.089  1.00  0.00     0.125 C 
BRANCH   9  10
HETATM   10  O1  UNL     1      25.178   1.828  22.134  1.00  0.00    -0.349 OA
ATOM     11  H1  UNL     1      25.623   1.919  22.968  1.00  0.00     0.219 HD
ENDBRANCH   9  10
BRANCH   9  12
HETATM   12  C13 UNL     1      22.897   1.611  22.698  1.00  0.00     0.026 C 
HETATM   13  C14 UNL     1      21.789   2.525  23.110  1.00  0.00     0.022 C 
HETATM   14  C15 UNL     1      20.662   1.805  23.828  1.00  0.00    -0.013 C 
HETATM   15  C16 UNL     1      21.228   1.084  25.005  1.00  0.00     0.009 C 
HETATM   16  C20 UNL     1      20.035   0.881  22.802  1.00  0.00     0.009 C 
HETATM   17  C17 UNL     1      22.169   0.042  24.503  1.00  0.00    -0.013 C 
HETATM   18  C18 UNL     1      21.542  -0.892  23.485  1.00  0.00     0.009 C 
HETATM   19  C22 UNL     1      23.349   0.695  23.798  1.00  0.00     0.022 C 
HETATM   20  C19 UNL     1      21.117  -0.028  22.313  1.00  0.00    -0.013 C 
HETATM   21  C21 UNL     1      22.269   0.671  21.648  1.00  0.00     0.022 C 
ENDBRANCH   9  12
ENDBRANCH   1   9
BRANCH   4  22
HETATM   22  C4  UNL     1      23.272   7.328  19.388  1.00  0.00     0.174 C 
HETATM   23  S1  UNL     1      21.877   8.077  20.028  1.00  0.00    -0.041 SA
BRANCH  22  24
HETATM   24  N3  UNL     1      23.838   8.058  18.350  1.00  0.00    -0.328 N 
ATOM     25  H3  UNL     1      24.403   8.858  18.635  1.00  0.00     0.168 HD
BRANCH  24  26
HETATM   26  C5  UNL     1      23.743   7.850  16.970  1.00  0.00     0.112 A 
HETATM   27  C6  UNL     1      24.552   6.988  16.255  1.00  0.00     0.146 A 
HETATM   28  F1  UNL     1      25.471   6.251  16.921  1.00  0.00    -0.204 F 
HETATM   29  C7  UNL     1      24.442   6.869  14.907  1.00  0.00     0.045 A 
HETATM   30  C8  UNL     1      23.509   7.615  14.218  1.00  0.00     0.006 A 
HETATM   31  C9  UNL     1      22.672   8.493  14.875  1.00  0.00     0.045 A 
HETATM   32  C10 UNL     1      22.809   8.590  16.250  1.00  0.00     0.146 A 
HETATM   33  F2  UNL     1      22.009   9.439  16.942  1.00  0.00    -0.204 F 
ENDBRANCH  24  26
ENDBRANCH  22  24
ENDBRANCH   4  22
TORSDOF 6
ENDMDL
MODEL 5
REMARK VINA RESULT: -8.550033758      3.230      4.744
REMARK  6 active torsions:
REMARK  status: ('A' for Active; 'I' for Inactive)
REMARK    1  A    between atoms: O1_1  and  C1_3 
REMARK    2  A    between atoms: C1_3  and  N1_4 
REMARK    3  A    between atoms: C1_3  and  C13_24 
REMARK    4  A    between atoms: N2_7  and  C4_8 
REMARK    5  A    between atoms: C4_8  and  N3_10 
REMARK    6  A    between atoms: N3_10  and  C5_12 
ROOT
HETATM    1  N1  UNL     1      23.867   2.609  19.587  1.00  0.00    -0.327 N 
HETATM    2  C2  UNL     1      22.685   2.719  20.404  1.00  0.00     0.148 C 
HETATM    3  C3  UNL     1      22.252   4.160  20.569  1.00  0.00     0.145 C 
HETATM    4  N2  UNL     1      23.314   4.954  21.200  1.00  0.00    -0.352 N 
HETATM    5  C11 UNL     1      24.616   4.390  21.135  1.00  0.00     0.190 C 
HETATM    6  C12 UNL     1      24.795   3.742  19.743  1.00  0.00     0.206 C 
HETATM    7 CL1  UNL     1      26.497   3.235  19.587  1.00  0.00    -0.076 Cl
HETATM    8 CL2  UNL     1      24.416   4.998  18.554  1.00  0.00    -0.076 Cl
ENDROOT
BRANCH   1   9
HETATM    9  C1  UNL     1      24.194   1.564  18.705  1.00  0.00     0.125 C 
BRANCH   9  10
HETATM   10  O1  UNL     1      24.088   1.871  17.441  1.00  0.00    -0.349 OA
ATOM     11  H1  UNL     1      23.701   2.722  17.273  1.00  0.00     0.219 HD
ENDBRANCH   9  10
BRANCH   9  12
HETATM   12  C13 UNL     1      24.631   0.193  19.008  1.00  0.00     0.026 C 
HETATM   13  C14 UNL     1      23.771  -0.799  18.295  1.00  0.00     0.022 C 
HETATM   14  C15 UNL     1      24.114  -2.237  18.638  1.00  0.00    -0.013 C 
HETATM   15  C16 UNL     1      24.021  -2.412  20.117  1.00  0.00     0.009 C 
HETATM   16  C20 UNL     1      25.508  -2.476  18.091  1.00  0.00     0.009 C 
HETATM   17  C17 UNL     1      25.056  -1.546  20.752  1.00  0.00    -0.013 C 
HETATM   18  C18 UNL     1      26.454  -1.791  20.216  1.00  0.00     0.009 C 
HETATM   19  C22 UNL     1      24.756  -0.080  20.479  1.00  0.00     0.022 C 
HETATM   20  C19 UNL     1      26.409  -1.471  18.735  1.00  0.00    -0.013 C 
HETATM   21  C21 UNL     1      26.052  -0.039  18.452  1.00  0.00     0.022 C 
ENDBRANCH   9  12
ENDBRANCH   1   9
BRANCH   4  22
HETATM   22  C4  UNL     1      22.884   6.154  21.793  1.00  0.00     0.174 C 
HETATM   23  S1  UNL     1      22.131   6.011  23.320  1.00  0.00    -0.041 SA
BRANCH  22  24
HETATM   24  N3  UNL     1      22.958   7.472  21.360  1.00  0.00    -0.328 N 
ATOM     25  H3  UNL     1      23.725   8.019  21.751  1.00  0.00     0.168 HD
BRANCH  24  26
HETATM   26  C5  UNL     1      22.130   8.155  20.462  1.00  0.00     0.112 A 
HETATM   27  C6  UNL     1      20.885   8.662  20.782  1.00  0.00     0.146 A 
HETATM   28  F1  UNL     1      20.441   8.545  22.055  1.00  0.00    -0.204 F 
HETATM   29  C7  UNL     1      20.108   9.270  19.850  1.00  0.00     0.045 A 
HETATM   30  C8  UNL     1      20.551   9.394  18.550  1.00  0.00     0.006 A 
HETATM   31  C9  UNL     1      21.784   8.908  18.168  1.00  0.00     0.045 A 
HETATM   32  C10 UNL     1      22.553   8.294  19.143  1.00  0.00     0.146 A 
HETATM   33  F2  UNL     1      23.774   7.800  18.817  1.00  0.00    -0.204 F 
ENDBRANCH  24  26
ENDBRANCH  22  24
ENDBRANCH   4  22
TORSDOF 6
ENDMDL
