MODEL 1
REMARK VINA RESULT: -8.187213868      0.000      0.000
REMARK  2 active torsions:
REMARK  status: ('A' for Active; 'I' for Inactive)
REMARK    1  A    between atoms: C2_2  and  C3_3 
REMARK    2  A    between atoms: C19_23  and  C20_24 
ROOT
HETATM    1  C1  UNL     1      23.854   6.017  15.512  1.00  0.00     0.025 C 
HETATM    2  C2  UNL     1      24.135   6.314  17.006  1.00  0.00     0.039 C 
HETATM    3  C4  UNL     1      25.593   5.973  17.193  1.00  0.00     0.020 C 
HETATM    4  C5  UNL     1      25.540   4.462  17.230  1.00  0.00     0.011 C 
HETATM    5  C6  UNL     1      24.262   4.081  17.952  1.00  0.00    -0.035 C 
HETATM    6  C7  UNL     1      23.602   3.018  17.126  1.00  0.00     0.016 C 
HETATM    7  C8  UNL     1      23.447   5.334  17.876  1.00  0.00     0.011 C 
HETATM    8  C9  UNL     1      23.121   5.906  19.213  1.00  0.00     0.007 C 
HETATM    9  C10 UNL     1      22.481   4.740  19.962  1.00  0.00     0.012 C 
HETATM   10  C11 UNL     1      23.566   3.743  20.391  1.00  0.00    -0.017 C 
HETATM   11  C12 UNL     1      24.187   4.481  21.602  1.00  0.00     0.018 C 
HETATM   12  C13 UNL     1      24.591   3.638  19.358  1.00  0.00     0.004 C 
HETATM   13  C14 UNL     1      25.312   2.311  19.276  1.00  0.00     0.007 C 
HETATM   14  C15 UNL     1      24.473   1.122  19.476  1.00  0.00     0.015 C 
HETATM   15  C16 UNL     1      23.390   1.200  20.473  1.00  0.00     0.089 C 
HETATM   16  C17 UNL     1      23.853   0.501  21.714  1.00  0.00     0.201 C 
HETATM   17  O2  UNL     1      24.226  -0.702  21.703  1.00  0.00    -0.289 OA
HETATM   18  C18 UNL     1      23.769   1.441  22.781  1.00  0.00     0.205 C 
HETATM   19  O3  UNL     1      24.462   1.400  23.837  1.00  0.00    -0.289 OA
HETATM   20  C19 UNL     1      22.727   2.423  22.368  1.00  0.00     0.142 C 
HETATM   21  C21 UNL     1      22.860   2.527  20.872  1.00  0.00     0.070 C 
HETATM   22 CL4  UNL     1      21.135   2.516  20.301  1.00  0.00    -0.117 Cl
ENDROOT
BRANCH   2  23
HETATM   23  C3  UNL     1      23.820   7.726  17.208  1.00  0.00     0.239 C 
HETATM   24  N1  UNL     1      22.527   8.267  17.064  1.00  0.00    -0.061 NA
HETATM   25  O1  UNL     1      24.727   8.532  17.529  1.00  0.00    -0.276 OA
ENDBRANCH   2  23
BRANCH  20  26
HETATM   26  C20 UNL     1      21.393   1.929  22.869  1.00  0.00     0.201 C 
HETATM   27 CL1  UNL     1      21.628   1.752  24.657  1.00  0.00    -0.083 Cl
HETATM   28 CL2  UNL     1      20.865   0.390  22.276  1.00  0.00    -0.083 Cl
HETATM   29 CL3  UNL     1      20.137   3.217  22.769  1.00  0.00    -0.083 Cl
ENDBRANCH  20  26
TORSDOF 2
ENDMDL
MODEL 2
REMARK VINA RESULT: -6.762103145      3.013      4.249
REMARK  2 active torsions:
REMARK  status: ('A' for Active; 'I' for Inactive)
REMARK    1  A    between atoms: C2_2  and  C3_3 
REMARK    2  A    between atoms: C19_23  and  C20_24 
ROOT
HETATM    1  C1  UNL     1      26.807   4.350  17.773  1.00  0.00     0.025 C 
HETATM    2  C2  UNL     1      25.962   3.057  17.671  1.00  0.00     0.039 C 
HETATM    3  C4  UNL     1      24.738   3.464  16.887  1.00  0.00     0.020 C 
HETATM    4  C5  UNL     1      23.949   4.211  17.939  1.00  0.00     0.011 C 
HETATM    5  C6  UNL     1      24.174   3.492  19.255  1.00  0.00    -0.035 C 
HETATM    6  C7  UNL     1      24.489   4.546  20.274  1.00  0.00     0.016 C 
HETATM    7  C8  UNL     1      25.406   2.685  18.991  1.00  0.00     0.011 C 
HETATM    8  C9  UNL     1      25.185   1.216  19.110  1.00  0.00     0.007 C 
HETATM    9  C10 UNL     1      24.566   1.051  20.496  1.00  0.00     0.012 C 
HETATM   10  C11 UNL     1      23.101   1.510  20.465  1.00  0.00    -0.017 C 
HETATM   11  C12 UNL     1      22.426   0.303  19.769  1.00  0.00     0.018 C 
HETATM   12  C13 UNL     1      22.952   2.669  19.594  1.00  0.00     0.004 C 
HETATM   13  C14 UNL     1      21.829   3.618  19.943  1.00  0.00     0.007 C 
HETATM   14  C15 UNL     1      21.628   3.860  21.378  1.00  0.00     0.015 C 
HETATM   15  C16 UNL     1      21.818   2.728  22.303  1.00  0.00     0.089 C 
HETATM   16  C17 UNL     1      20.467   2.208  22.683  1.00  0.00     0.201 C 
HETATM   17  O2  UNL     1      19.593   2.946  23.214  1.00  0.00    -0.289 OA
HETATM   18  C18 UNL     1      20.433   0.829  22.329  1.00  0.00     0.205 C 
HETATM   19  O3  UNL     1      19.384   0.175  22.069  1.00  0.00    -0.289 OA
HETATM   20  C19 UNL     1      21.853   0.379  22.341  1.00  0.00     0.142 C 
HETATM   21  C21 UNL     1      22.646   1.571  21.879  1.00  0.00     0.070 C 
HETATM   22 CL4  UNL     1      24.065   1.590  23.013  1.00  0.00    -0.117 Cl
ENDROOT
BRANCH   2  23
HETATM   23  C3  UNL     1      26.803   2.072  16.997  1.00  0.00     0.239 C 
HETATM   24  N1  UNL     1      26.297   0.995  16.243  1.00  0.00    -0.061 NA
HETATM   25  O1  UNL     1      28.054   2.159  17.071  1.00  0.00    -0.276 OA
ENDBRANCH   2  23
BRANCH  20  26
HETATM   26  C20 UNL     1      22.175  -0.117  23.729  1.00  0.00     0.201 C 
HETATM   27 CL1  UNL     1      21.045  -1.513  23.975  1.00  0.00    -0.083 Cl
HETATM   28 CL2  UNL     1      21.897   0.990  25.030  1.00  0.00    -0.083 Cl
HETATM   29 CL3  UNL     1      23.791  -0.913  23.783  1.00  0.00    -0.083 Cl
ENDBRANCH  20  26
TORSDOF 2
ENDMDL
MODEL 3
REMARK VINA RESULT: -6.570345911      3.466      5.056
REMARK  2 active torsions:
REMARK  status: ('A' for Active; 'I' for Inactive)
REMARK    1  A    between atoms: C2_2  and  C3_3 
REMARK    2  A    between atoms: C19_23  and  C20_24 
ROOT
HETATM    1  C1  UNL     1      25.042   3.553  17.965  1.00  0.00     0.025 C 
HETATM    2  C2  UNL     1      24.518   2.125  18.257  1.00  0.00     0.039 C 
HETATM    3  C4  UNL     1      23.024   2.223  18.066  1.00  0.00     0.020 C 
HETATM    4  C5  UNL     1      22.609   2.923  19.341  1.00  0.00     0.011 C 
HETATM    5  C6  UNL     1      23.503   2.396  20.447  1.00  0.00    -0.035 C 
HETATM    6  C7  UNL     1      23.988   3.589  21.214  1.00  0.00     0.016 C 
HETATM    7  C8  UNL     1      24.650   1.799  19.695  1.00  0.00     0.011 C 
HETATM    8  C9  UNL     1      24.807   0.334  19.923  1.00  0.00     0.007 C 
HETATM    9  C10 UNL     1      24.869   0.207  21.443  1.00  0.00     0.012 C 
HETATM   10  C11 UNL     1      23.464   0.390  22.034  1.00  0.00    -0.017 C 
HETATM   11  C12 UNL     1      22.825  -0.984  21.715  1.00  0.00     0.018 C 
HETATM   12  C13 UNL     1      22.731   1.407  21.290  1.00  0.00     0.004 C 
HETATM   13  C14 UNL     1      21.686   2.171  22.070  1.00  0.00     0.007 C 
HETATM   14  C15 UNL     1      22.055   2.521  23.449  1.00  0.00     0.015 C 
HETATM   15  C16 UNL     1      22.841   1.543  24.223  1.00  0.00     0.089 C 
HETATM   16  C17 UNL     1      21.909   0.832  25.154  1.00  0.00     0.201 C 
HETATM   17  O2  UNL     1      21.204   1.452  25.995  1.00  0.00    -0.289 OA
HETATM   18  C18 UNL     1      22.016  -0.560  24.873  1.00  0.00     0.205 C 
HETATM   19  O3  UNL     1      21.113  -1.415  25.098  1.00  0.00    -0.289 OA
HETATM   20  C19 UNL     1      23.372  -0.745  24.283  1.00  0.00     0.142 C 
HETATM   21  C21 UNL     1      23.636   0.515  23.506  1.00  0.00     0.070 C 
HETATM   22 CL4  UNL     1      25.361   0.905  23.922  1.00  0.00    -0.117 Cl
ENDROOT
BRANCH   2  23
HETATM   23  C3  UNL     1      25.186   1.242  17.305  1.00  0.00     0.239 C 
HETATM   24  N1  UNL     1      24.537   0.195  16.622  1.00  0.00    -0.061 NA
HETATM   25  O1  UNL     1      26.407   1.396  17.056  1.00  0.00    -0.276 OA
ENDBRANCH   2  23
BRANCH  20  26
HETATM   26  C20 UNL     1      24.336  -1.029  25.408  1.00  0.00     0.201 C 
HETATM   27 CL1  UNL     1      23.743  -2.587  26.119  1.00  0.00    -0.083 Cl
HETATM   28 CL2  UNL     1      24.383   0.126  26.697  1.00  0.00    -0.083 Cl
HETATM   29 CL3  UNL     1      25.962  -1.485  24.779  1.00  0.00    -0.083 Cl
ENDBRANCH  20  26
TORSDOF 2
ENDMDL
MODEL 4
REMARK VINA RESULT: -6.395926902      3.524      4.964
REMARK  2 active torsions:
REMARK  status: ('A' for Active; 'I' for Inactive)
REMARK    1  A    between atoms: C2_2  and  C3_3 
REMARK    2  A    between atoms: C19_23  and  C20_24 
ROOT
HETATM    1  C1  UNL     1      26.063   1.749  17.515  1.00  0.00     0.025 C 
HETATM    2  C2  UNL     1      24.732   1.083  17.943  1.00  0.00     0.039 C 
HETATM    3  C4  UNL     1      23.668   1.852  17.200  1.00  0.00     0.020 C 
HETATM    4  C5  UNL     1      23.600   3.124  18.015  1.00  0.00     0.011 C 
HETATM    5  C6  UNL     1      23.806   2.733  19.466  1.00  0.00    -0.035 C 
HETATM    6  C7  UNL     1      24.812   3.690  20.031  1.00  0.00     0.016 C 
HETATM    7  C8  UNL     1      24.428   1.376  19.361  1.00  0.00     0.011 C 
HETATM    8  C9  UNL     1      23.609   0.302  19.990  1.00  0.00     0.007 C 
HETATM    9  C10 UNL     1      23.362   0.814  21.407  1.00  0.00     0.012 C 
HETATM   10  C11 UNL     1      22.307   1.929  21.377  1.00  0.00    -0.017 C 
HETATM   11  C12 UNL     1      21.008   1.105  21.201  1.00  0.00     0.018 C 
HETATM   12  C13 UNL     1      22.478   2.754  20.186  1.00  0.00     0.004 C 
HETATM   13  C14 UNL     1      22.034   4.193  20.311  1.00  0.00     0.007 C 
HETATM   14  C15 UNL     1      22.340   4.841  21.594  1.00  0.00     0.015 C 
HETATM   15  C16 UNL     1      22.231   4.031  22.820  1.00  0.00     0.089 C 
HETATM   16  C17 UNL     1      20.939   4.378  23.491  1.00  0.00     0.201 C 
HETATM   17  O2  UNL     1      20.660   5.559  23.832  1.00  0.00    -0.289 OA
HETATM   18  C18 UNL     1      20.198   3.170  23.628  1.00  0.00     0.205 C 
HETATM   19  O3  UNL     1      18.940   3.098  23.714  1.00  0.00    -0.289 OA
HETATM   20  C19 UNL     1      21.213   2.079  23.643  1.00  0.00     0.142 C 
HETATM   21  C21 UNL     1      22.309   2.552  22.727  1.00  0.00     0.070 C 
HETATM   22 CL4  UNL     1      23.823   2.120  23.633  1.00  0.00    -0.117 Cl
ENDROOT
BRANCH   2  23
HETATM   23  C3  UNL     1      24.836  -0.321  17.556  1.00  0.00     0.239 C 
HETATM   24  N1  UNL     1      25.843  -1.188  18.021  1.00  0.00    -0.061 NA
HETATM   25  O1  UNL     1      23.996  -0.818  16.765  1.00  0.00    -0.276 OA
ENDBRANCH   2  23
BRANCH  20  26
HETATM   26  C20 UNL     1      21.622   1.839  25.075  1.00  0.00     0.201 C 
HETATM   27 CL1  UNL     1      21.672   0.034  25.227  1.00  0.00    -0.083 Cl
HETATM   28 CL2  UNL     1      20.540   2.417  26.296  1.00  0.00    -0.083 Cl
HETATM   29 CL3  UNL     1      23.343   2.298  25.352  1.00  0.00    -0.083 Cl
ENDBRANCH  20  26
TORSDOF 2
ENDMDL
MODEL 5
REMARK VINA RESULT: -6.230739952      4.072      5.680
REMARK  2 active torsions:
REMARK  status: ('A' for Active; 'I' for Inactive)
REMARK    1  A    between atoms: C2_2  and  C3_3 
REMARK    2  A    between atoms: C19_23  and  C20_24 
ROOT
HETATM    1  C1  UNL     1      25.078   2.269  17.929  1.00  0.00     0.025 C 
HETATM    2  C2  UNL     1      24.433   0.954  18.432  1.00  0.00     0.039 C 
HETATM    3  C4  UNL     1      22.948   1.182  18.290  1.00  0.00     0.020 C 
HETATM    4  C5  UNL     1      22.673   2.080  19.475  1.00  0.00     0.011 C 
HETATM    5  C6  UNL     1      23.570   1.611  20.605  1.00  0.00    -0.035 C 
HETATM    6  C7  UNL     1      24.211   2.837  21.183  1.00  0.00     0.016 C 
HETATM    7  C8  UNL     1      24.611   0.805  19.893  1.00  0.00     0.011 C 
HETATM    8  C9  UNL     1      24.636  -0.625  20.310  1.00  0.00     0.007 C 
HETATM    9  C10 UNL     1      24.768  -0.561  21.830  1.00  0.00     0.012 C 
HETATM   10  C11 UNL     1      23.422  -0.157  22.448  1.00  0.00    -0.017 C 
HETATM   11  C12 UNL     1      22.635  -1.487  22.342  1.00  0.00     0.018 C 
HETATM   12  C13 UNL     1      22.752   0.826  21.604  1.00  0.00     0.004 C 
HETATM   13  C14 UNL     1      21.830   1.789  22.316  1.00  0.00     0.007 C 
HETATM   14  C15 UNL     1      22.306   2.275  23.619  1.00  0.00     0.015 C 
HETATM   15  C16 UNL     1      23.034   1.329  24.485  1.00  0.00     0.089 C 
HETATM   16  C17 UNL     1      22.089   0.846  25.540  1.00  0.00     0.201 C 
HETATM   17  O2  UNL     1      21.494   1.640  26.318  1.00  0.00    -0.289 OA
HETATM   18  C18 UNL     1      22.044  -0.574  25.445  1.00  0.00     0.205 C 
HETATM   19  O3  UNL     1      21.075  -1.294  25.820  1.00  0.00    -0.289 OA
HETATM   20  C19 UNL     1      23.341  -0.975  24.831  1.00  0.00     0.142 C 
HETATM   21  C21 UNL     1      23.684   0.140  23.881  1.00  0.00     0.070 C 
HETATM   22 CL4  UNL     1      25.459   0.399  24.169  1.00  0.00    -0.117 Cl
ENDROOT
BRANCH   2  23
HETATM   23  C3  UNL     1      24.959  -0.109  17.581  1.00  0.00     0.239 C 
HETATM   24  N1  UNL     1      26.277  -0.133  17.083  1.00  0.00    -0.061 NA
HETATM   25  O1  UNL     1      24.224  -1.074  17.255  1.00  0.00    -0.276 OA
ENDBRANCH   2  23
BRANCH  20  26
HETATM   26  C20 UNL     1      24.333  -1.209  25.943  1.00  0.00     0.201 C 
HETATM   27 CL1  UNL     1      23.587  -2.532  26.932  1.00  0.00    -0.083 Cl
HETATM   28 CL2  UNL     1      24.620   0.119  27.016  1.00  0.00    -0.083 Cl
HETATM   29 CL3  UNL     1      25.837  -1.987  25.328  1.00  0.00    -0.083 Cl
ENDBRANCH  20  26
TORSDOF 2
ENDMDL
