MODEL 1
REMARK VINA RESULT: -9.285554930      0.000      0.000
REMARK  6 active torsions:
REMARK  status: ('A' for Active; 'I' for Inactive)
REMARK    1  A    between atoms: N1_2  and  C2_3 
REMARK    2  A    between atoms: N1_2  and  C20_31 
REMARK    3  A    between atoms: C2_3  and  O1_4 
REMARK    4  A    between atoms: C2_3  and  N2_6 
REMARK       I    between atoms: N3_12  and  C8_13 
REMARK       I    between atoms: C8_13  and  N4_15 
REMARK    5  A    between atoms: N4_15  and  C9_17 
REMARK    6  A    between atoms: C13_21  and  C14_22 
ROOT
HETATM    1  N2  UNL     1      24.828   1.222  17.902  1.00  0.00    -0.347 N 
HETATM    2  C3  UNL     1      23.427   1.277  17.768  1.00  0.00     0.127 C 
HETATM    3  C4  UNL     1      23.030   2.606  18.455  1.00  0.00     0.029 C 
HETATM    4  C5  UNL     1      23.418   2.524  19.878  1.00  0.00    -0.035 C 
HETATM    5  C6  UNL     1      22.133   2.526  20.698  1.00  0.00     0.029 C 
HETATM    6  C7  UNL     1      22.107   3.542  21.787  1.00  0.00     0.128 C 
HETATM    7  N3  UNL     1      22.366   4.891  21.350  1.00  0.00    -0.334 N 
HETATM    8  C8  UNL     1      21.858   6.065  21.984  1.00  0.00     0.322 C 
HETATM    9  O2  UNL     1      22.179   7.164  21.472  1.00  0.00    -0.247 OA
HETATM   10  N4  UNL     1      21.045   5.979  23.120  1.00  0.00    -0.309 N 
ATOM     11  H4  UNL     1      20.830   5.042  23.462  1.00  0.00     0.170 HD
HETATM   12  C16 UNL     1      23.224   5.006  20.159  1.00  0.00     0.128 C 
HETATM   13  C17 UNL     1      24.153   3.840  20.198  1.00  0.00     0.029 C 
HETATM   14  C18 UNL     1      24.333   1.438  20.297  1.00  0.00     0.029 C 
HETATM   15  C19 UNL     1      25.232   0.837  19.295  1.00  0.00     0.127 C 
ENDROOT
BRANCH   1  16
HETATM   16  C2  UNL     1      25.825   1.480  16.961  1.00  0.00     0.218 C 
BRANCH  16  17
HETATM   17  N1  UNL     1      26.728   0.771  16.205  1.00  0.00    -0.330 N 
HETATM   18  C1  UNL     1      28.033   1.500  15.941  1.00  0.00     0.155 C 
BRANCH  17  19
HETATM   19  C20 UNL     1      26.720  -0.553  15.640  1.00  0.00     0.105 C 
HETATM   20  C21 UNL     1      27.742  -1.479  16.258  1.00  0.00     0.056 C 
HETATM   21  C22 UNL     1      25.357  -1.179  15.538  1.00  0.00     0.056 C 
HETATM   22 CL1  UNL     1      27.260  -0.449  13.888  1.00  0.00    -0.096 Cl
ENDBRANCH  17  19
ENDBRANCH  16  17
BRANCH  16  23
HETATM   23  O1  UNL     1      25.947   2.813  16.703  1.00  0.00    -0.332 OA
ATOM     24  H1  UNL     1      26.745   2.976  16.213  1.00  0.00     0.220 HD
ENDBRANCH  16  23
ENDBRANCH   1  16
BRANCH  10  25
HETATM   25  C9  UNL     1      20.488   7.074  23.847  1.00  0.00     0.037 A 
HETATM   26  C10 UNL     1      20.269   8.318  23.321  1.00  0.00     0.029 A 
HETATM   27  C11 UNL     1      19.699   9.322  24.049  1.00  0.00     0.003 A 
HETATM   28  C12 UNL     1      19.320   9.116  25.354  1.00  0.00     0.016 A 
HETATM   29  C13 UNL     1      19.528   7.871  25.917  1.00  0.00     0.050 A 
HETATM   30  C15 UNL     1      20.100   6.869  25.182  1.00  0.00     0.045 A 
BRANCH  29  31
HETATM   31  C14 UNL     1      19.097   7.676  27.330  1.00  0.00     0.417 C 
HETATM   32  F1  UNL     1      18.337   6.496  27.356  1.00  0.00    -0.166 F 
HETATM   33  F2  UNL     1      18.359   8.752  27.762  1.00  0.00    -0.166 F 
HETATM   34  F3  UNL     1      20.198   7.465  28.133  1.00  0.00    -0.166 F 
ENDBRANCH  29  31
ENDBRANCH  10  25
TORSDOF 6
ENDMDL
MODEL 2
REMARK VINA RESULT: -9.284998296      5.888      8.362
REMARK  6 active torsions:
REMARK  status: ('A' for Active; 'I' for Inactive)
REMARK    1  A    between atoms: N1_2  and  C2_3 
REMARK    2  A    between atoms: N1_2  and  C20_31 
REMARK    3  A    between atoms: C2_3  and  O1_4 
REMARK    4  A    between atoms: C2_3  and  N2_6 
REMARK       I    between atoms: N3_12  and  C8_13 
REMARK       I    between atoms: C8_13  and  N4_15 
REMARK    5  A    between atoms: N4_15  and  C9_17 
REMARK    6  A    between atoms: C13_21  and  C14_22 
ROOT
HETATM    1  N2  UNL     1      22.277   0.040  24.091  1.00  0.00    -0.347 N 
HETATM    2  C3  UNL     1      23.565   0.489  23.740  1.00  0.00     0.127 C 
HETATM    3  C4  UNL     1      23.335   1.921  23.200  1.00  0.00     0.029 C 
HETATM    4  C5  UNL     1      22.469   1.831  22.007  1.00  0.00    -0.035 C 
HETATM    5  C6  UNL     1      23.304   2.263  20.807  1.00  0.00     0.029 C 
HETATM    6  C7  UNL     1      22.668   3.317  19.970  1.00  0.00     0.128 C 
HETATM    7  N3  UNL     1      22.275   4.500  20.695  1.00  0.00    -0.334 N 
HETATM    8  C8  UNL     1      22.202   5.812  20.139  1.00  0.00     0.322 C 
HETATM    9  O2  UNL     1      21.843   6.732  20.913  1.00  0.00    -0.247 OA
HETATM   10  N4  UNL     1      22.518   6.046  18.796  1.00  0.00    -0.309 N 
ATOM     11  H4  UNL     1      22.808   5.239  18.244  1.00  0.00     0.170 HD
HETATM   12  C16 UNL     1      21.932   4.277  22.111  1.00  0.00     0.128 C 
HETATM   13  C17 UNL     1      21.371   2.897  22.193  1.00  0.00     0.029 C 
HETATM   14  C18 UNL     1      21.757   0.559  21.748  1.00  0.00     0.029 C 
HETATM   15  C19 UNL     1      21.481  -0.346  22.878  1.00  0.00     0.127 C 
ENDROOT
BRANCH   1  16
HETATM   16  C2  UNL     1      21.680  -0.069  25.347  1.00  0.00     0.218 C 
BRANCH  16  17
HETATM   17  N1  UNL     1      21.504   0.706  26.468  1.00  0.00    -0.330 N 
HETATM   18  C1  UNL     1      21.154  -0.076  27.723  1.00  0.00     0.155 C 
BRANCH  17  19
HETATM   19  C20 UNL     1      21.627   2.118  26.723  1.00  0.00     0.105 C 
HETATM   20  C21 UNL     1      23.058   2.582  26.867  1.00  0.00     0.056 C 
HETATM   21  C22 UNL     1      20.823   2.990  25.801  1.00  0.00     0.056 C 
HETATM   22 CL1  UNL     1      20.905   2.483  28.372  1.00  0.00    -0.096 Cl
ENDBRANCH  17  19
ENDBRANCH  16  17
BRANCH  16  23
HETATM   23  O1  UNL     1      21.095  -1.287  25.528  1.00  0.00    -0.332 OA
ATOM     24  H1  UNL     1      20.919  -1.691  24.685  1.00  0.00     0.220 HD
ENDBRANCH  16  23
ENDBRANCH   1  16
BRANCH  10  25
HETATM   25  C9  UNL     1      22.474   7.304  18.123  1.00  0.00     0.037 A 
HETATM   26  C10 UNL     1      23.471   7.785  17.319  1.00  0.00     0.029 A 
HETATM   27  C11 UNL     1      23.364   8.980  16.669  1.00  0.00     0.003 A 
HETATM   28  C12 UNL     1      22.235   9.753  16.799  1.00  0.00     0.016 A 
HETATM   29  C13 UNL     1      21.208   9.297  17.605  1.00  0.00     0.050 A 
HETATM   30  C15 UNL     1      21.323   8.099  18.254  1.00  0.00     0.045 A 
BRANCH  29  31
HETATM   31  C14 UNL     1      19.993  10.153  17.718  1.00  0.00     0.417 C 
HETATM   32  F1  UNL     1      20.232  11.290  16.932  1.00  0.00    -0.166 F 
HETATM   33  F2  UNL     1      19.765  10.494  19.030  1.00  0.00    -0.166 F 
HETATM   34  F3  UNL     1      18.908   9.503  17.170  1.00  0.00    -0.166 F 
ENDBRANCH  29  31
ENDBRANCH  10  25
TORSDOF 6
ENDMDL
MODEL 3
REMARK VINA RESULT: -9.122063966      5.703      8.274
REMARK  6 active torsions:
REMARK  status: ('A' for Active; 'I' for Inactive)
REMARK    1  A    between atoms: N1_2  and  C2_3 
REMARK    2  A    between atoms: N1_2  and  C20_31 
REMARK    3  A    between atoms: C2_3  and  O1_4 
REMARK    4  A    between atoms: C2_3  and  N2_6 
REMARK       I    between atoms: N3_12  and  C8_13 
REMARK       I    between atoms: C8_13  and  N4_15 
REMARK    5  A    between atoms: N4_15  and  C9_17 
REMARK    6  A    between atoms: C13_21  and  C14_22 
ROOT
HETATM    1  N2  UNL     1      22.311  -0.015  24.064  1.00  0.00    -0.347 N 
HETATM    2  C3  UNL     1      23.596   0.380  23.644  1.00  0.00     0.127 C 
HETATM    3  C4  UNL     1      23.400   1.823  23.119  1.00  0.00     0.029 C 
HETATM    4  C5  UNL     1      22.467   1.773  21.975  1.00  0.00    -0.035 C 
HETATM    5  C6  UNL     1      23.254   2.174  20.732  1.00  0.00     0.029 C 
HETATM    6  C7  UNL     1      22.619   3.257  19.932  1.00  0.00     0.128 C 
HETATM    7  N3  UNL     1      22.317   4.452  20.678  1.00  0.00    -0.334 N 
HETATM    8  C8  UNL     1      22.270   5.768  20.127  1.00  0.00     0.322 C 
HETATM    9  O2  UNL     1      21.994   6.700  20.921  1.00  0.00    -0.247 OA
HETATM   10  N4  UNL     1      22.523   5.993  18.770  1.00  0.00    -0.309 N 
ATOM     11  H4  UNL     1      22.748   5.176  18.202  1.00  0.00     0.170 HD
HETATM   12  C16 UNL     1      22.042   4.240  22.110  1.00  0.00     0.128 C 
HETATM   13  C17 UNL     1      21.427   2.885  22.221  1.00  0.00     0.029 C 
HETATM   14  C18 UNL     1      21.687   0.534  21.753  1.00  0.00     0.029 C 
HETATM   15  C19 UNL     1      21.434  -0.362  22.895  1.00  0.00     0.127 C 
ENDROOT
BRANCH   1  16
HETATM   16  C2  UNL     1      21.779  -0.103  25.351  1.00  0.00     0.218 C 
BRANCH  16  17
HETATM   17  N1  UNL     1      21.852   0.586  26.538  1.00  0.00    -0.330 N 
HETATM   18  C1  UNL     1      22.007  -0.296  27.765  1.00  0.00     0.155 C 
BRANCH  17  19
HETATM   19  C20 UNL     1      21.859   1.987  26.870  1.00  0.00     0.105 C 
HETATM   20  C21 UNL     1      21.064   2.838  25.907  1.00  0.00     0.056 C 
HETATM   21  C22 UNL     1      21.545   2.289  28.308  1.00  0.00     0.056 C 
HETATM   22 CL1  UNL     1      23.569   2.629  26.676  1.00  0.00    -0.096 Cl
ENDBRANCH  17  19
ENDBRANCH  16  17
BRANCH  16  23
HETATM   23  O1  UNL     1      20.940  -1.169  25.482  1.00  0.00    -0.332 OA
ATOM     24  H1  UNL     1      21.443  -1.971  25.558  1.00  0.00     0.220 HD
ENDBRANCH  16  23
ENDBRANCH   1  16
BRANCH  10  25
HETATM   25  C9  UNL     1      22.497   7.254  18.101  1.00  0.00     0.037 A 
HETATM   26  C10 UNL     1      23.491   7.715  17.283  1.00  0.00     0.029 A 
HETATM   27  C11 UNL     1      23.401   8.914  16.638  1.00  0.00     0.003 A 
HETATM   28  C12 UNL     1      22.293   9.713  16.789  1.00  0.00     0.016 A 
HETATM   29  C13 UNL     1      21.269   9.277  17.610  1.00  0.00     0.050 A 
HETATM   30  C15 UNL     1      21.366   8.075  18.254  1.00  0.00     0.045 A 
BRANCH  29  31
HETATM   31  C14 UNL     1      20.076  10.160  17.746  1.00  0.00     0.417 C 
HETATM   32  F1  UNL     1      18.989   9.445  17.221  1.00  0.00    -0.166 F 
HETATM   33  F2  UNL     1      20.269  11.340  17.067  1.00  0.00    -0.166 F 
HETATM   34  F3  UNL     1      19.806  10.384  19.079  1.00  0.00    -0.166 F 
ENDBRANCH  29  31
ENDBRANCH  10  25
TORSDOF 6
ENDMDL
MODEL 4
REMARK VINA RESULT: -8.943993385      5.298      6.757
REMARK  6 active torsions:
REMARK  status: ('A' for Active; 'I' for Inactive)
REMARK    1  A    between atoms: N1_2  and  C2_3 
REMARK    2  A    between atoms: N1_2  and  C20_31 
REMARK    3  A    between atoms: C2_3  and  O1_4 
REMARK    4  A    between atoms: C2_3  and  N2_6 
REMARK       I    between atoms: N3_12  and  C8_13 
REMARK       I    between atoms: C8_13  and  N4_15 
REMARK    5  A    between atoms: N4_15  and  C9_17 
REMARK    6  A    between atoms: C13_21  and  C14_22 
ROOT
HETATM    1  N2  UNL     1      22.465  -0.757  23.662  1.00  0.00    -0.347 N 
HETATM    2  C3  UNL     1      21.357  -0.623  22.804  1.00  0.00     0.127 C 
HETATM    3  C4  UNL     1      21.786   0.470  21.795  1.00  0.00     0.029 C 
HETATM    4  C5  UNL     1      22.023   1.721  22.544  1.00  0.00    -0.035 C 
HETATM    5  C6  UNL     1      20.958   2.720  22.106  1.00  0.00     0.029 C 
HETATM    6  C7  UNL     1      21.499   4.038  21.675  1.00  0.00     0.128 C 
HETATM    7  N3  UNL     1      22.499   3.963  20.639  1.00  0.00    -0.334 N 
HETATM    8  C8  UNL     1      22.749   4.982  19.671  1.00  0.00     0.322 C 
HETATM    9  O2  UNL     1      23.658   4.753  18.837  1.00  0.00    -0.247 OA
HETATM   10  N4  UNL     1      22.011   6.170  19.665  1.00  0.00    -0.309 N 
ATOM     11  H4  UNL     1      21.286   6.265  20.377  1.00  0.00     0.170 HD
HETATM   12  C16 UNL     1      23.293   2.722  20.629  1.00  0.00     0.128 C 
HETATM   13  C17 UNL     1      23.377   2.267  22.047  1.00  0.00     0.029 C 
HETATM   14  C18 UNL     1      22.133   1.650  24.018  1.00  0.00     0.029 C 
HETATM   15  C19 UNL     1      22.541   0.378  24.642  1.00  0.00     0.127 C 
ENDROOT
BRANCH   1  16
HETATM   16  C2  UNL     1      23.449  -1.745  23.703  1.00  0.00     0.218 C 
BRANCH  16  17
HETATM   17  N1  UNL     1      24.651  -2.018  23.096  1.00  0.00    -0.330 N 
HETATM   18  C1  UNL     1      25.819  -2.167  24.055  1.00  0.00     0.155 C 
BRANCH  17  19
HETATM   19  C20 UNL     1      25.039  -2.244  21.728  1.00  0.00     0.105 C 
HETATM   20  C21 UNL     1      26.445  -2.775  21.578  1.00  0.00     0.056 C 
HETATM   21  C22 UNL     1      24.037  -3.015  20.914  1.00  0.00     0.056 C 
HETATM   22 CL1  UNL     1      25.114  -0.624  20.863  1.00  0.00    -0.096 Cl
ENDBRANCH  17  19
ENDBRANCH  16  17
BRANCH  16  23
HETATM   23  O1  UNL     1      23.149  -2.724  24.603  1.00  0.00    -0.332 OA
ATOM     24  H1  UNL     1      22.207  -2.812  24.685  1.00  0.00     0.220 HD
ENDBRANCH  16  23
ENDBRANCH   1  16
BRANCH  10  25
HETATM   25  C9  UNL     1      22.172   7.263  18.760  1.00  0.00     0.037 A 
HETATM   26  C10 UNL     1      23.264   7.444  17.955  1.00  0.00     0.029 A 
HETATM   27  C11 UNL     1      23.354   8.487  17.081  1.00  0.00     0.003 A 
HETATM   28  C12 UNL     1      22.337   9.406  16.976  1.00  0.00     0.016 A 
HETATM   29  C13 UNL     1      21.220   9.254  17.776  1.00  0.00     0.050 A 
HETATM   30  C15 UNL     1      21.137   8.206  18.651  1.00  0.00     0.045 A 
BRANCH  29  31
HETATM   31  C14 UNL     1      20.131  10.261  17.632  1.00  0.00     0.417 C 
HETATM   32  F1  UNL     1      20.647  11.296  16.838  1.00  0.00    -0.166 F 
HETATM   33  F2  UNL     1      19.740  10.728  18.865  1.00  0.00    -0.166 F 
HETATM   34  F3  UNL     1      19.071   9.712  16.942  1.00  0.00    -0.166 F 
ENDBRANCH  29  31
ENDBRANCH  10  25
TORSDOF 6
ENDMDL
MODEL 5
REMARK VINA RESULT: -8.919106860      5.705      7.406
REMARK  6 active torsions:
REMARK  status: ('A' for Active; 'I' for Inactive)
REMARK    1  A    between atoms: N1_2  and  C2_3 
REMARK    2  A    between atoms: N1_2  and  C20_31 
REMARK    3  A    between atoms: C2_3  and  O1_4 
REMARK    4  A    between atoms: C2_3  and  N2_6 
REMARK       I    between atoms: N3_12  and  C8_13 
REMARK       I    between atoms: C8_13  and  N4_15 
REMARK    5  A    between atoms: N4_15  and  C9_17 
REMARK    6  A    between atoms: C13_21  and  C14_22 
ROOT
HETATM    1  N2  UNL     1      22.175  -0.789  23.961  1.00  0.00    -0.347 N 
HETATM    2  C3  UNL     1      21.149  -0.699  23.001  1.00  0.00     0.127 C 
HETATM    3  C4  UNL     1      21.653   0.370  22.002  1.00  0.00     0.029 C 
HETATM    4  C5  UNL     1      21.802   1.647  22.730  1.00  0.00    -0.035 C 
HETATM    5  C6  UNL     1      20.767   2.613  22.166  1.00  0.00     0.029 C 
HETATM    6  C7  UNL     1      21.326   3.927  21.746  1.00  0.00     0.128 C 
HETATM    7  N3  UNL     1      22.419   3.840  20.809  1.00  0.00    -0.334 N 
HETATM    8  C8  UNL     1      22.742   4.833  19.836  1.00  0.00     0.322 C 
HETATM    9  O2  UNL     1      23.726   4.596  19.096  1.00  0.00    -0.247 OA
HETATM   10  N4  UNL     1      21.990   6.008  19.726  1.00  0.00    -0.309 N 
ATOM     11  H4  UNL     1      21.201   6.111  20.365  1.00  0.00     0.170 HD
HETATM   12  C16 UNL     1      23.228   2.613  20.910  1.00  0.00     0.128 C 
HETATM   13  C17 UNL     1      23.187   2.202  22.343  1.00  0.00     0.029 C 
HETATM   14  C18 UNL     1      21.777   1.621  24.210  1.00  0.00     0.029 C 
HETATM   15  C19 UNL     1      22.144   0.376  24.908  1.00  0.00     0.127 C 
ENDROOT
BRANCH   1  16
HETATM   16  C2  UNL     1      23.166  -1.758  24.123  1.00  0.00     0.218 C 
BRANCH  16  17
HETATM   17  N1  UNL     1      24.538  -1.820  24.183  1.00  0.00    -0.330 N 
HETATM   18  C1  UNL     1      25.180  -2.606  23.053  1.00  0.00     0.155 C 
BRANCH  17  19
HETATM   19  C20 UNL     1      25.514  -1.253  25.076  1.00  0.00     0.105 C 
HETATM   20  C21 UNL     1      25.107  -1.309  26.530  1.00  0.00     0.056 C 
HETATM   21  C22 UNL     1      26.920  -1.731  24.848  1.00  0.00     0.056 C 
HETATM   22 CL1  UNL     1      25.633   0.551  24.749  1.00  0.00    -0.096 Cl
ENDBRANCH  17  19
ENDBRANCH  16  17
BRANCH  16  23
HETATM   23  O1  UNL     1      22.637  -3.006  24.269  1.00  0.00    -0.332 OA
ATOM     24  H1  UNL     1      21.972  -2.998  24.948  1.00  0.00     0.220 HD
ENDBRANCH  16  23
ENDBRANCH   1  16
BRANCH  10  25
HETATM   25  C9  UNL     1      22.218   7.076  18.806  1.00  0.00     0.037 A 
HETATM   26  C10 UNL     1      23.323   7.183  18.007  1.00  0.00     0.029 A 
HETATM   27  C11 UNL     1      23.476   8.206  17.117  1.00  0.00     0.003 A 
HETATM   28  C12 UNL     1      22.513   9.179  16.991  1.00  0.00     0.016 A 
HETATM   29  C13 UNL     1      21.384   9.102  17.785  1.00  0.00     0.050 A 
HETATM   30  C15 UNL     1      21.237   8.074  18.675  1.00  0.00     0.045 A 
BRANCH  29  31
HETATM   31  C14 UNL     1      20.354  10.165  17.619  1.00  0.00     0.417 C 
HETATM   32  F1  UNL     1      20.955  11.189  16.871  1.00  0.00    -0.166 F 
HETATM   33  F2  UNL     1      19.933  10.626  18.844  1.00  0.00    -0.166 F 
HETATM   34  F3  UNL     1      19.299   9.686  16.872  1.00  0.00    -0.166 F 
ENDBRANCH  29  31
ENDBRANCH  10  25
TORSDOF 6
ENDMDL
