MODEL 1
REMARK VINA RESULT: -10.081159927      0.000      0.000
REMARK  3 active torsions:
REMARK  status: ('A' for Active; 'I' for Inactive)
REMARK       I    between atoms: N2_10  and  C9_11 
REMARK       I    between atoms: C9_11  and  N3_13 
REMARK    1  A    between atoms: N3_13  and  C10_15 
REMARK    2  A    between atoms: C17_22  and  C18_23 
REMARK    3  A    between atoms: C22_27  and  C23_28 
ROOT
HETATM    1  C1  UNL     1      22.394  -1.057  23.509  1.00  0.00     0.309 C 
HETATM    2  N1  UNL     1      22.615  -0.782  22.099  1.00  0.00     0.085 N 
HETATM    3  C2  UNL     1      24.024  -0.538  21.933  1.00  0.00     0.272 C 
HETATM    4  C3  UNL     1      24.157   0.968  21.721  1.00  0.00     0.041 C 
HETATM    5  C4  UNL     1      22.936   1.284  20.946  1.00  0.00    -0.012 C 
HETATM    6  C5  UNL     1      22.457   2.670  21.034  1.00  0.00     0.012 C 
HETATM    7  C6  UNL     1      23.481   3.717  20.611  1.00  0.00     0.007 C 
HETATM    8  C7  UNL     1      23.364   4.032  19.160  1.00  0.00     0.008 C 
HETATM    9  C8  UNL     1      24.227   5.268  18.869  1.00  0.00     0.132 C 
HETATM   10  N2  UNL     1      24.225   5.487  17.432  1.00  0.00    -0.334 N 
HETATM   11  C9  UNL     1      23.659   6.518  16.710  1.00  0.00     0.318 C 
HETATM   12  O1  UNL     1      23.695   6.514  15.442  1.00  0.00    -0.247 OA
HETATM   13  N3  UNL     1      23.011   7.621  17.323  1.00  0.00    -0.335 N 
ATOM     14  H3  UNL     1      22.979   7.673  18.342  1.00  0.00     0.165 HD
HETATM   15  C14 UNL     1      24.929   4.415  16.707  1.00  0.00     0.128 C 
HETATM   16  C15 UNL     1      23.928   3.276  16.815  1.00  0.00     0.025 C 
HETATM   17  C16 UNL     1      23.503   2.933  18.196  1.00  0.00     0.001 C 
HETATM   18  C17 UNL     1      23.951   1.575  18.710  1.00  0.00     0.027 C 
HETATM   19  C25 UNL     1      22.964   0.830  19.493  1.00  0.00     0.021 C 
HETATM   20  C26 UNL     1      21.898   0.393  21.648  1.00  0.00     0.281 C 
ENDROOT
BRANCH  18  21
HETATM   21  C18 UNL     1      24.681   0.813  17.691  1.00  0.00    -0.014 A 
HETATM   22  C19 UNL     1      24.064  -0.249  17.013  1.00  0.00     0.011 A 
HETATM   23  C20 UNL     1      24.651  -0.964  16.009  1.00  0.00     0.002 A 
HETATM   24  C21 UNL     1      25.949  -0.650  15.601  1.00  0.00     0.019 A 
HETATM   25  C22 UNL     1      26.579   0.376  16.243  1.00  0.00     0.086 A 
HETATM   26  C24 UNL     1      25.955   1.079  17.250  1.00  0.00     0.138 A 
HETATM   27  F4  UNL     1      26.683   2.055  17.819  1.00  0.00    -0.205 F 
BRANCH  25  28
HETATM   28  C23 UNL     1      27.989   0.698  15.886  1.00  0.00     0.420 C 
HETATM   29  F1  UNL     1      28.724  -0.458  16.027  1.00  0.00    -0.166 F 
HETATM   30  F2  UNL     1      28.491   1.729  16.635  1.00  0.00    -0.166 F 
HETATM   31  F3  UNL     1      27.981   1.086  14.531  1.00  0.00    -0.166 F 
ENDBRANCH  25  28
ENDBRANCH  18  21
BRANCH  13  32
HETATM   32  C10 UNL     1      22.398   8.667  16.554  1.00  0.00     0.023 C 
HETATM   33  C11 UNL     1      23.045   9.995  16.893  1.00  0.00     0.037 C 
HETATM   34  C12 UNL     1      22.372   8.465  15.086  1.00  0.00     0.037 C 
HETATM   35  C13 UNL     1      20.961   8.800  17.120  1.00  0.00     0.037 C 
ENDBRANCH  13  32
TORSDOF 3
ENDMDL
MODEL 2
REMARK VINA RESULT: -9.496319613      4.101      7.347
REMARK  3 active torsions:
REMARK  status: ('A' for Active; 'I' for Inactive)
REMARK       I    between atoms: N2_10  and  C9_11 
REMARK       I    between atoms: C9_11  and  N3_13 
REMARK    1  A    between atoms: N3_13  and  C10_15 
REMARK    2  A    between atoms: C17_22  and  C18_23 
REMARK    3  A    between atoms: C22_27  and  C23_28 
ROOT
HETATM    1  C1  UNL     1      20.362   2.985  25.309  1.00  0.00     0.309 C 
HETATM    2  N1  UNL     1      21.207   3.534  24.261  1.00  0.00     0.085 N 
HETATM    3  C2  UNL     1      20.361   3.787  23.125  1.00  0.00     0.272 C 
HETATM    4  C3  UNL     1      20.695   2.693  22.113  1.00  0.00     0.041 C 
HETATM    5  C4  UNL     1      22.149   2.508  22.322  1.00  0.00    -0.012 C 
HETATM    6  C5  UNL     1      22.694   1.200  21.933  1.00  0.00     0.012 C 
HETATM    7  C6  UNL     1      22.448   0.825  20.476  1.00  0.00     0.007 C 
HETATM    8  C7  UNL     1      23.570   1.273  19.605  1.00  0.00     0.008 C 
HETATM    9  C8  UNL     1      23.386   0.632  18.223  1.00  0.00     0.132 C 
HETATM   10  N2  UNL     1      24.399   1.182  17.336  1.00  0.00    -0.334 N 
HETATM   11  C9  UNL     1      25.485   0.554  16.762  1.00  0.00     0.318 C 
HETATM   12  O1  UNL     1      26.314   1.211  16.061  1.00  0.00    -0.247 OA
HETATM   13  N3  UNL     1      25.743  -0.833  16.917  1.00  0.00    -0.335 N 
ATOM     14  H3  UNL     1      25.088  -1.401  17.455  1.00  0.00     0.165 HD
HETATM   15  C14 UNL     1      24.182   2.615  17.068  1.00  0.00     0.128 C 
HETATM   16  C15 UNL     1      24.607   3.231  18.391  1.00  0.00     0.025 C 
HETATM   17  C16 UNL     1      23.913   2.701  19.591  1.00  0.00     0.001 C 
HETATM   18  C17 UNL     1      22.988   3.671  20.307  1.00  0.00     0.027 C 
HETATM   19  C25 UNL     1      23.023   3.626  21.770  1.00  0.00     0.021 C 
HETATM   20  C26 UNL     1      22.246   2.611  23.852  1.00  0.00     0.281 C 
ENDROOT
BRANCH  18  21
HETATM   21  C18 UNL     1      23.011   5.005  19.698  1.00  0.00    -0.014 A 
HETATM   22  C19 UNL     1      23.757   5.248  18.535  1.00  0.00     0.011 A 
HETATM   23  C20 UNL     1      23.780   6.441  17.871  1.00  0.00     0.002 A 
HETATM   24  C21 UNL     1      23.025   7.514  18.348  1.00  0.00     0.019 A 
HETATM   25  C22 UNL     1      22.289   7.312  19.479  1.00  0.00     0.086 A 
HETATM   26  C24 UNL     1      22.288   6.093  20.122  1.00  0.00     0.138 A 
HETATM   27  F4  UNL     1      21.539   6.021  21.236  1.00  0.00    -0.205 F 
BRANCH  25  28
HETATM   28  C23 UNL     1      21.524   8.451  20.060  1.00  0.00     0.420 C 
HETATM   29  F1  UNL     1      22.270   8.960  21.101  1.00  0.00    -0.166 F 
HETATM   30  F2  UNL     1      20.265   8.082  20.453  1.00  0.00    -0.166 F 
HETATM   31  F3  UNL     1      21.415   9.421  19.043  1.00  0.00    -0.166 F 
ENDBRANCH  25  28
ENDBRANCH  18  21
BRANCH  13  32
HETATM   32  C10 UNL     1      26.897  -1.460  16.340  1.00  0.00     0.023 C 
HETATM   33  C11 UNL     1      26.494  -2.216  15.089  1.00  0.00     0.037 C 
HETATM   34  C12 UNL     1      28.049  -0.571  16.057  1.00  0.00     0.037 C 
HETATM   35  C13 UNL     1      27.293  -2.579  17.337  1.00  0.00     0.037 C 
ENDBRANCH  13  32
TORSDOF 3
ENDMDL
MODEL 3
REMARK VINA RESULT: -9.420357691      3.924      7.611
REMARK  3 active torsions:
REMARK  status: ('A' for Active; 'I' for Inactive)
REMARK       I    between atoms: N2_10  and  C9_11 
REMARK       I    between atoms: C9_11  and  N3_13 
REMARK    1  A    between atoms: N3_13  and  C10_15 
REMARK    2  A    between atoms: C17_22  and  C18_23 
REMARK    3  A    between atoms: C22_27  and  C23_28 
ROOT
HETATM    1  C1  UNL     1      21.742   8.300  21.069  1.00  0.00     0.309 C 
HETATM    2  N1  UNL     1      21.474   6.874  20.974  1.00  0.00     0.085 N 
HETATM    3  C2  UNL     1      22.206   6.236  22.036  1.00  0.00     0.272 C 
HETATM    4  C3  UNL     1      23.384   5.538  21.359  1.00  0.00     0.041 C 
HETATM    5  C4  UNL     1      22.791   5.097  20.077  1.00  0.00    -0.012 C 
HETATM    6  C5  UNL     1      23.734   4.887  18.969  1.00  0.00     0.012 C 
HETATM    7  C6  UNL     1      24.838   3.880  19.267  1.00  0.00     0.007 C 
HETATM    8  C7  UNL     1      24.439   2.504  18.858  1.00  0.00     0.008 C 
HETATM    9  C8  UNL     1      25.680   1.605  18.935  1.00  0.00     0.132 C 
HETATM   10  N2  UNL     1      25.260   0.237  18.675  1.00  0.00    -0.334 N 
HETATM   11  C9  UNL     1      25.545  -0.569  17.592  1.00  0.00     0.318 C 
HETATM   12  O1  UNL     1      25.032  -1.725  17.496  1.00  0.00    -0.247 OA
HETATM   13  N3  UNL     1      26.405  -0.167  16.538  1.00  0.00    -0.335 N 
ATOM     14  H3  UNL     1      26.855   0.747  16.588  1.00  0.00     0.165 HD
HETATM   15  C14 UNL     1      24.401  -0.292  19.749  1.00  0.00     0.128 C 
HETATM   16  C15 UNL     1      23.103   0.453  19.486  1.00  0.00     0.025 C 
HETATM   17  C16 UNL     1      23.217   1.932  19.440  1.00  0.00     0.001 C 
HETATM   18  C17 UNL     1      22.534   2.687  20.568  1.00  0.00     0.027 C 
HETATM   19  C25 UNL     1      21.837   3.916  20.184  1.00  0.00     0.021 C 
HETATM   20  C26 UNL     1      21.921   6.312  19.716  1.00  0.00     0.281 C 
ENDROOT
BRANCH  18  21
HETATM   21  C18 UNL     1      21.814   1.788  21.476  1.00  0.00    -0.014 A 
HETATM   22  C19 UNL     1      20.444   1.540  21.300  1.00  0.00     0.011 A 
HETATM   23  C20 UNL     1      19.718   0.669  22.060  1.00  0.00     0.002 A 
HETATM   24  C21 UNL     1      20.341  -0.040  23.089  1.00  0.00     0.019 A 
HETATM   25  C22 UNL     1      21.673   0.179  23.288  1.00  0.00     0.086 A 
HETATM   26  C24 UNL     1      22.375   1.064  22.499  1.00  0.00     0.138 A 
HETATM   27  F4  UNL     1      23.677   1.210  22.803  1.00  0.00    -0.205 F 
BRANCH  25  28
HETATM   28  C23 UNL     1      22.360  -0.505  24.418  1.00  0.00     0.420 C 
HETATM   29  F1  UNL     1      22.719   0.464  25.330  1.00  0.00    -0.166 F 
HETATM   30  F2  UNL     1      23.431  -1.248  23.999  1.00  0.00    -0.166 F 
HETATM   31  F3  UNL     1      21.410  -1.368  25.001  1.00  0.00    -0.166 F 
ENDBRANCH  25  28
ENDBRANCH  18  21
BRANCH  13  32
HETATM   32  C10 UNL     1      26.661  -1.007  15.403  1.00  0.00     0.023 C 
HETATM   33  C11 UNL     1      27.704  -2.047  15.764  1.00  0.00     0.037 C 
HETATM   34  C12 UNL     1      25.477  -1.654  14.791  1.00  0.00     0.037 C 
HETATM   35  C13 UNL     1      27.386  -0.097  14.378  1.00  0.00     0.037 C 
ENDBRANCH  13  32
TORSDOF 3
ENDMDL
MODEL 4
REMARK VINA RESULT: -9.374570362      1.372      1.879
REMARK  3 active torsions:
REMARK  status: ('A' for Active; 'I' for Inactive)
REMARK       I    between atoms: N2_10  and  C9_11 
REMARK       I    between atoms: C9_11  and  N3_13 
REMARK    1  A    between atoms: N3_13  and  C10_15 
REMARK    2  A    between atoms: C17_22  and  C18_23 
REMARK    3  A    between atoms: C22_27  and  C23_28 
ROOT
HETATM    1  C1  UNL     1      22.774  -1.145  22.808  1.00  0.00     0.309 C 
HETATM    2  N1  UNL     1      23.112  -0.714  21.461  1.00  0.00     0.085 N 
HETATM    3  C2  UNL     1      24.467  -0.232  21.500  1.00  0.00     0.272 C 
HETATM    4  C3  UNL     1      24.362   1.289  21.408  1.00  0.00     0.041 C 
HETATM    5  C4  UNL     1      23.207   1.469  20.501  1.00  0.00    -0.012 C 
HETATM    6  C5  UNL     1      22.489   2.746  20.616  1.00  0.00     0.012 C 
HETATM    7  C6  UNL     1      23.361   3.978  20.403  1.00  0.00     0.007 C 
HETATM    8  C7  UNL     1      23.365   4.396  18.973  1.00  0.00     0.008 C 
HETATM    9  C8  UNL     1      24.030   5.776  18.882  1.00  0.00     0.132 C 
HETATM   10  N2  UNL     1      24.162   6.118  17.475  1.00  0.00    -0.334 N 
HETATM   11  C9  UNL     1      23.518   7.103  16.755  1.00  0.00     0.318 C 
HETATM   12  O1  UNL     1      23.705   7.216  15.505  1.00  0.00    -0.247 OA
HETATM   13  N3  UNL     1      22.620   8.028  17.349  1.00  0.00    -0.335 N 
ATOM     14  H3  UNL     1      22.459   7.984  18.355  1.00  0.00     0.165 HD
HETATM   15  C14 UNL     1      25.122   5.242  16.780  1.00  0.00     0.128 C 
HETATM   16  C15 UNL     1      24.327   3.951  16.679  1.00  0.00     0.025 C 
HETATM   17  C16 UNL     1      23.806   3.423  17.966  1.00  0.00     0.001 C 
HETATM   18  C17 UNL     1      24.417   2.116  18.443  1.00  0.00     0.027 C 
HETATM   19  C25 UNL     1      23.486   1.155  19.037  1.00  0.00     0.021 C 
HETATM   20  C26 UNL     1      22.262   0.363  20.998  1.00  0.00     0.281 C 
ENDROOT
BRANCH  18  21
HETATM   21  C18 UNL     1      25.384   1.576  17.481  1.00  0.00    -0.014 A 
HETATM   22  C19 UNL     1      26.567   2.270  17.190  1.00  0.00     0.011 A 
HETATM   23  C20 UNL     1      27.545   1.806  16.358  1.00  0.00     0.002 A 
HETATM   24  C21 UNL     1      27.396   0.564  15.737  1.00  0.00     0.019 A 
HETATM   25  C22 UNL     1      26.254  -0.136  15.997  1.00  0.00     0.086 A 
HETATM   26  C24 UNL     1      25.289   0.362  16.845  1.00  0.00     0.138 A 
HETATM   27  F4  UNL     1      24.201  -0.410  17.009  1.00  0.00    -0.205 F 
BRANCH  25  28
HETATM   28  C23 UNL     1      26.024  -1.433  15.302  1.00  0.00     0.420 C 
HETATM   29  F1  UNL     1      26.980  -1.547  14.316  1.00  0.00    -0.166 F 
HETATM   30  F2  UNL     1      24.751  -1.537  14.807  1.00  0.00    -0.166 F 
HETATM   31  F3  UNL     1      26.220  -2.444  16.264  1.00  0.00    -0.166 F 
ENDBRANCH  25  28
ENDBRANCH  18  21
BRANCH  13  32
HETATM   32  C10 UNL     1      21.933   9.023  16.576  1.00  0.00     0.023 C 
HETATM   33  C11 UNL     1      22.389  10.404  17.004  1.00  0.00     0.037 C 
HETATM   34  C12 UNL     1      22.024   8.882  15.104  1.00  0.00     0.037 C 
HETATM   35  C13 UNL     1      20.458   8.957  17.048  1.00  0.00     0.037 C 
ENDBRANCH  13  32
TORSDOF 3
ENDMDL
MODEL 5
REMARK VINA RESULT: -9.354899491      1.833      2.424
REMARK  3 active torsions:
REMARK  status: ('A' for Active; 'I' for Inactive)
REMARK       I    between atoms: N2_10  and  C9_11 
REMARK       I    between atoms: C9_11  and  N3_13 
REMARK    1  A    between atoms: N3_13  and  C10_15 
REMARK    2  A    between atoms: C17_22  and  C18_23 
REMARK    3  A    between atoms: C22_27  and  C23_28 
ROOT
HETATM    1  C1  UNL     1      22.174  -0.808  23.719  1.00  0.00     0.309 C 
HETATM    2  N1  UNL     1      22.465  -0.303  22.387  1.00  0.00     0.085 N 
HETATM    3  C2  UNL     1      23.784   0.271  22.432  1.00  0.00     0.272 C 
HETATM    4  C3  UNL     1      23.573   1.783  22.402  1.00  0.00     0.041 C 
HETATM    5  C4  UNL     1      22.398   1.917  21.513  1.00  0.00    -0.012 C 
HETATM    6  C5  UNL     1      21.595   3.136  21.685  1.00  0.00     0.012 C 
HETATM    7  C6  UNL     1      22.376   4.433  21.514  1.00  0.00     0.007 C 
HETATM    8  C7  UNL     1      22.335   4.905  20.101  1.00  0.00     0.008 C 
HETATM    9  C8  UNL     1      22.902   6.331  20.059  1.00  0.00     0.132 C 
HETATM   10  N2  UNL     1      22.993   6.735  18.665  1.00  0.00    -0.334 N 
HETATM   11  C9  UNL     1      22.273   7.700  17.991  1.00  0.00     0.318 C 
HETATM   12  O1  UNL     1      22.438   7.875  16.745  1.00  0.00    -0.247 OA
HETATM   13  N3  UNL     1      21.321   8.536  18.628  1.00  0.00    -0.335 N 
ATOM     14  H3  UNL     1      21.175   8.443  19.634  1.00  0.00     0.165 HD
HETATM   15  C14 UNL     1      24.003   5.956  17.927  1.00  0.00     0.128 C 
HETATM   16  C15 UNL     1      23.297   4.617  17.782  1.00  0.00     0.025 C 
HETATM   17  C16 UNL     1      22.830   4.005  19.052  1.00  0.00     0.001 C 
HETATM   18  C17 UNL     1      23.535   2.726  19.472  1.00  0.00     0.027 C 
HETATM   19  C25 UNL     1      22.680   1.680  20.036  1.00  0.00     0.021 C 
HETATM   20  C26 UNL     1      21.537   0.730  21.975  1.00  0.00     0.281 C 
ENDROOT
BRANCH  18  21
HETATM   21  C18 UNL     1      24.526   2.292  18.481  1.00  0.00    -0.014 A 
HETATM   22  C19 UNL     1      25.689   3.043  18.255  1.00  0.00     0.011 A 
HETATM   23  C20 UNL     1      26.687   2.675  17.400  1.00  0.00     0.002 A 
HETATM   24  C21 UNL     1      26.581   1.482  16.683  1.00  0.00     0.019 A 
HETATM   25  C22 UNL     1      25.461   0.728  16.877  1.00  0.00     0.086 A 
HETATM   26  C24 UNL     1      24.474   1.130  17.751  1.00  0.00     0.138 A 
HETATM   27  F4  UNL     1      23.409   0.314  17.844  1.00  0.00    -0.205 F 
BRANCH  25  28
HETATM   28  C23 UNL     1      25.277  -0.517  16.081  1.00  0.00     0.420 C 
HETATM   29  F1  UNL     1      26.319  -0.590  15.184  1.00  0.00    -0.166 F 
HETATM   30  F2  UNL     1      24.055  -0.561  15.464  1.00  0.00    -0.166 F 
HETATM   31  F3  UNL     1      25.364  -1.590  16.990  1.00  0.00    -0.166 F 
ENDBRANCH  25  28
ENDBRANCH  18  21
BRANCH  13  32
HETATM   32  C10 UNL     1      20.558   9.511  17.903  1.00  0.00     0.023 C 
HETATM   33  C11 UNL     1      21.492  10.399  17.105  1.00  0.00     0.037 C 
HETATM   34  C12 UNL     1      19.483   8.978  17.032  1.00  0.00     0.037 C 
HETATM   35  C13 UNL     1      19.976  10.459  18.982  1.00  0.00     0.037 C 
ENDBRANCH  13  32
TORSDOF 3
ENDMDL
