MODEL 1
REMARK VINA RESULT: -7.999181132      0.000      0.000
REMARK  0 active torsions:
REMARK  status: ('A' for Active; 'I' for Inactive)
ROOT
HETATM    1  C1  UNL     1      27.344   0.212  19.062  1.00  0.00     0.154 C 
HETATM    2  N1  UNL     1      26.221   0.589  19.890  1.00  0.00    -0.371 N 
HETATM    3  C2  UNL     1      25.044  -0.180  19.447  1.00  0.00     0.086 C 
HETATM    4  C3  UNL     1      23.729  -0.029  19.675  1.00  0.00     0.000 C 
HETATM    5  C4  UNL     1      23.172   1.073  20.509  1.00  0.00    -0.017 C 
HETATM    6  C5  UNL     1      23.140   2.174  19.588  1.00  0.00     0.057 C 
HETATM    7  C6  UNL     1      23.596   3.544  19.702  1.00  0.00     0.246 C 
HETATM    8  F1  UNL     1      24.650   3.908  18.813  1.00  0.00    -0.243 F 
HETATM    9  C7  UNL     1      23.986   4.111  20.993  1.00  0.00     0.311 C 
HETATM   10  F2  UNL     1      23.144   5.241  21.251  1.00  0.00    -0.199 F 
HETATM   11  F3  UNL     1      25.209   4.784  21.016  1.00  0.00    -0.199 F 
HETATM   12  C8  UNL     1      23.702   3.274  22.166  1.00  0.00     0.196 C 
HETATM   13  F4  UNL     1      24.040   4.156  23.220  1.00  0.00    -0.234 F 
HETATM   14  C9  UNL     1      22.200   3.147  22.207  1.00  0.00     0.113 C 
HETATM   15 BR1  UNL     1      21.388   4.461  23.408  1.00  0.00    -0.087 Br
HETATM   16  C10 UNL     1      21.768   1.740  22.457  1.00  0.00    -0.022 C 
HETATM   17  C11 UNL     1      20.259   1.816  22.757  1.00  0.00     0.017 C 
HETATM   18  C12 UNL     1      21.804   0.904  21.154  1.00  0.00     0.024 C 
HETATM   19  C13 UNL     1      22.454   1.246  23.651  1.00  0.00     0.008 C 
HETATM   20  C14 UNL     1      21.804   1.632  24.985  1.00  0.00     0.084 C 
HETATM   21  C15 UNL     1      22.571   0.796  26.007  1.00  0.00     0.128 C 
HETATM   22  O1  UNL     1      21.964   0.072  26.777  1.00  0.00    -0.298 OA
HETATM   23  C16 UNL     1      24.036   0.857  26.068  1.00  0.00     0.098 C 
HETATM   24  C17 UNL     1      24.700   0.780  24.675  1.00  0.00     0.105 C 
HETATM   25  C18 UNL     1      24.926  -0.582  24.376  1.00  0.00     0.064 C 
HETATM   26  N2  UNL     1      25.110  -1.691  24.155  1.00  0.00    -0.197 NA
HETATM   27  C19 UNL     1      23.939   1.647  23.805  1.00  0.00     0.025 C 
HETATM   28  C20 UNL     1      24.418   1.965  22.395  1.00  0.00     0.028 C 
HETATM   29  C21 UNL     1      25.871   1.967  22.094  1.00  0.00     0.004 C 
HETATM   30  C22 UNL     1      26.509   1.554  20.891  1.00  0.00     0.087 C 
HETATM   31  C23 UNL     1      23.932   0.802  21.726  1.00  0.00     0.031 C 
ENDROOT
TORSDOF 0
ENDMDL
MODEL 2
REMARK VINA RESULT: -6.925349286      3.631      5.858
REMARK  0 active torsions:
REMARK  status: ('A' for Active; 'I' for Inactive)
ROOT
HETATM    1  C1  UNL     1      22.980   5.726  22.118  1.00  0.00     0.154 C 
HETATM    2  N1  UNL     1      23.470   4.439  21.679  1.00  0.00    -0.371 N 
HETATM    3  C2  UNL     1      22.489   3.873  20.734  1.00  0.00     0.086 C 
HETATM    4  C3  UNL     1      22.312   2.631  20.254  1.00  0.00     0.000 C 
HETATM    5  C4  UNL     1      23.174   1.481  20.643  1.00  0.00    -0.017 C 
HETATM    6  C5  UNL     1      22.607   1.077  21.899  1.00  0.00     0.057 C 
HETATM    7  C6  UNL     1      23.208   0.789  23.185  1.00  0.00     0.246 C 
HETATM    8  F1  UNL     1      22.831   1.669  24.242  1.00  0.00    -0.243 F 
HETATM    9  C7  UNL     1      24.656   0.633  23.329  1.00  0.00     0.311 C 
HETATM   10  F2  UNL     1      24.908  -0.679  23.846  1.00  0.00    -0.199 F 
HETATM   11  F3  UNL     1      25.243   1.356  24.370  1.00  0.00    -0.199 F 
HETATM   12  C8  UNL     1      25.419   0.595  22.075  1.00  0.00     0.196 C 
HETATM   13  F4  UNL     1      26.715   0.283  22.553  1.00  0.00    -0.234 F 
HETATM   14  C9  UNL     1      24.940  -0.641  21.358  1.00  0.00     0.113 C 
HETATM   15 BR1  UNL     1      26.109  -2.175  21.687  1.00  0.00    -0.087 Br
HETATM   16  C10 UNL     1      24.669  -0.377  19.915  1.00  0.00    -0.022 C 
HETATM   17  C11 UNL     1      24.475  -1.761  19.267  1.00  0.00     0.017 C 
HETATM   18  C12 UNL     1      23.278   0.277  19.717  1.00  0.00     0.024 C 
HETATM   19  C13 UNL     1      25.851   0.250  19.324  1.00  0.00     0.008 C 
HETATM   20  C14 UNL     1      26.956  -0.720  18.889  1.00  0.00     0.084 C 
HETATM   21  C15 UNL     1      27.921   0.171  18.109  1.00  0.00     0.128 C 
HETATM   22  O1  UNL     1      28.242  -0.132  16.973  1.00  0.00    -0.298 OA
HETATM   23  C16 UNL     1      28.465   1.390  18.717  1.00  0.00     0.098 C 
HETATM   24  C17 UNL     1      27.389   2.233  19.439  1.00  0.00     0.105 C 
HETATM   25  C18 UNL     1      26.841   3.134  18.500  1.00  0.00     0.064 C 
HETATM   26  N2  UNL     1      26.415   3.865  17.727  1.00  0.00    -0.197 NA
HETATM   27  C19 UNL     1      26.573   1.307  20.191  1.00  0.00     0.025 C 
HETATM   28  C20 UNL     1      25.523   1.804  21.177  1.00  0.00     0.028 C 
HETATM   29  C21 UNL     1      25.718   3.102  21.867  1.00  0.00     0.004 C 
HETATM   30  C22 UNL     1      24.722   4.053  22.226  1.00  0.00     0.087 C 
HETATM   31  C23 UNL     1      24.459   2.059  20.261  1.00  0.00     0.031 C 
ENDROOT
TORSDOF 0
ENDMDL
MODEL 3
REMARK VINA RESULT: -6.663288998      3.490      5.897
REMARK  0 active torsions:
REMARK  status: ('A' for Active; 'I' for Inactive)
ROOT
HETATM    1  C1  UNL     1      20.354   2.580  26.454  1.00  0.00     0.154 C 
HETATM    2  N1  UNL     1      21.020   2.733  25.181  1.00  0.00    -0.371 N 
HETATM    3  C2  UNL     1      20.124   2.217  24.129  1.00  0.00     0.086 C 
HETATM    4  C3  UNL     1      20.340   1.874  22.849  1.00  0.00     0.000 C 
HETATM    5  C4  UNL     1      21.679   1.965  22.200  1.00  0.00    -0.017 C 
HETATM    6  C5  UNL     1      22.317   0.753  22.633  1.00  0.00     0.057 C 
HETATM    7  C6  UNL     1      23.622   0.499  23.208  1.00  0.00     0.246 C 
HETATM    8  F1  UNL     1      23.610  -0.010  24.539  1.00  0.00    -0.243 F 
HETATM    9  C7  UNL     1      24.664   1.526  23.212  1.00  0.00     0.311 C 
HETATM   10  F2  UNL     1      25.793   1.011  22.496  1.00  0.00    -0.199 F 
HETATM   11  F3  UNL     1      25.303   1.737  24.435  1.00  0.00    -0.199 F 
HETATM   12  C8  UNL     1      24.366   2.737  22.436  1.00  0.00     0.196 C 
HETATM   13  F4  UNL     1      25.601   3.424  22.516  1.00  0.00    -0.234 F 
HETATM   14  C9  UNL     1      24.250   2.272  21.007  1.00  0.00     0.113 C 
HETATM   15 BR1  UNL     1      25.927   2.502  20.025  1.00  0.00    -0.087 Br
HETATM   16  C10 UNL     1      23.058   2.859  20.326  1.00  0.00    -0.022 C 
HETATM   17  C11 UNL     1      23.231   2.534  18.830  1.00  0.00     0.017 C 
HETATM   18  C12 UNL     1      21.769   2.078  20.685  1.00  0.00     0.024 C 
HETATM   19  C13 UNL     1      23.093   4.311  20.493  1.00  0.00     0.008 C 
HETATM   20  C14 UNL     1      23.974   5.064  19.490  1.00  0.00     0.084 C 
HETATM   21  C15 UNL     1      23.628   6.529  19.744  1.00  0.00     0.128 C 
HETATM   22  O1  UNL     1      23.268   7.236  18.819  1.00  0.00    -0.298 OA
HETATM   23  C16 UNL     1      23.724   7.093  21.095  1.00  0.00     0.098 C 
HETATM   24  C17 UNL     1      23.101   6.179  22.174  1.00  0.00     0.105 C 
HETATM   25  C18 UNL     1      21.737   6.521  22.298  1.00  0.00     0.064 C 
HETATM   26  N2  UNL     1      20.634   6.819  22.392  1.00  0.00    -0.197 NA
HETATM   27  C19 UNL     1      23.537   4.833  21.879  1.00  0.00     0.025 C 
HETATM   28  C20 UNL     1      23.267   3.687  22.845  1.00  0.00     0.028 C 
HETATM   29  C21 UNL     1      23.163   3.960  24.300  1.00  0.00     0.004 C 
HETATM   30  C22 UNL     1      22.309   3.326  25.244  1.00  0.00     0.087 C 
HETATM   31  C23 UNL     1      21.928   3.380  22.459  1.00  0.00     0.031 C 
ENDROOT
TORSDOF 0
ENDMDL
MODEL 4
REMARK VINA RESULT: -6.549955496      3.569      5.799
REMARK  0 active torsions:
REMARK  status: ('A' for Active; 'I' for Inactive)
ROOT
HETATM    1  C1  UNL     1      21.539   4.748  23.302  1.00  0.00     0.154 C 
HETATM    2  N1  UNL     1      22.323   3.634  22.819  1.00  0.00    -0.371 N 
HETATM    3  C2  UNL     1      21.457   2.799  21.965  1.00  0.00     0.086 C 
HETATM    4  C3  UNL     1      21.586   1.546  21.502  1.00  0.00     0.000 C 
HETATM    5  C4  UNL     1      22.762   0.685  21.811  1.00  0.00    -0.017 C 
HETATM    6  C5  UNL     1      22.438   0.171  23.112  1.00  0.00     0.057 C 
HETATM    7  C6  UNL     1      23.205   0.089  24.338  1.00  0.00     0.246 C 
HETATM    8  F1  UNL     1      22.694   0.857  25.426  1.00  0.00    -0.243 F 
HETATM    9  C7  UNL     1      24.646   0.338  24.352  1.00  0.00     0.311 C 
HETATM   10  F2  UNL     1      25.293  -0.842  24.842  1.00  0.00    -0.199 F 
HETATM   11  F3  UNL     1      25.101   1.219  25.336  1.00  0.00    -0.199 F 
HETATM   12  C8  UNL     1      25.279   0.480  23.034  1.00  0.00     0.196 C 
HETATM   13  F4  UNL     1      26.647   0.546  23.393  1.00  0.00    -0.234 F 
HETATM   14  C9  UNL     1      25.097  -0.856  22.362  1.00  0.00     0.113 C 
HETATM   15 BR1  UNL     1      26.666  -2.004  22.582  1.00  0.00    -0.087 Br
HETATM   16  C10 UNL     1      24.639  -0.710  20.949  1.00  0.00    -0.022 C 
HETATM   17  C11 UNL     1      24.777  -2.110  20.320  1.00  0.00     0.017 C 
HETATM   18  C12 UNL     1      23.111  -0.466  20.878  1.00  0.00     0.024 C 
HETATM   19  C13 UNL     1      25.549   0.201  20.255  1.00  0.00     0.008 C 
HETATM   20  C14 UNL     1      26.834  -0.439  19.720  1.00  0.00     0.084 C 
HETATM   21  C15 UNL     1      27.446   0.662  18.858  1.00  0.00     0.128 C 
HETATM   22  O1  UNL     1      27.738   0.432  17.697  1.00  0.00    -0.298 OA
HETATM   23  C16 UNL     1      27.685   1.998  19.416  1.00  0.00     0.098 C 
HETATM   24  C17 UNL     1      26.487   2.532  20.233  1.00  0.00     0.105 C 
HETATM   25  C18 UNL     1      25.633   3.226  19.348  1.00  0.00     0.064 C 
HETATM   26  N2  UNL     1      24.958   3.794  18.617  1.00  0.00    -0.197 NA
HETATM   27  C19 UNL     1      26.025   1.436  21.054  1.00  0.00     0.025 C 
HETATM   28  C20 UNL     1      24.969   1.650  22.131  1.00  0.00     0.028 C 
HETATM   29  C21 UNL     1      24.859   2.968  22.803  1.00  0.00     0.004 C 
HETATM   30  C22 UNL     1      23.675   3.619  23.250  1.00  0.00     0.087 C 
HETATM   31  C23 UNL     1      23.800   1.583  21.315  1.00  0.00     0.031 C 
ENDROOT
TORSDOF 0
ENDMDL
MODEL 5
REMARK VINA RESULT: -6.445746058      3.326      5.422
REMARK  0 active torsions:
REMARK  status: ('A' for Active; 'I' for Inactive)
ROOT
HETATM    1  C1  UNL     1      21.845   0.551  25.957  1.00  0.00     0.154 C 
HETATM    2  N1  UNL     1      22.278   1.056  24.673  1.00  0.00    -0.371 N 
HETATM    3  C2  UNL     1      21.293   0.634  23.659  1.00  0.00     0.086 C 
HETATM    4  C3  UNL     1      21.341   0.594  22.318  1.00  0.00     0.000 C 
HETATM    5  C4  UNL     1      22.539   1.012  21.537  1.00  0.00    -0.017 C 
HETATM    6  C5  UNL     1      23.376  -0.153  21.604  1.00  0.00     0.057 C 
HETATM    7  C6  UNL     1      24.777  -0.319  21.932  1.00  0.00     0.246 C 
HETATM    8  F1  UNL     1      25.038  -1.083  23.108  1.00  0.00    -0.243 F 
HETATM    9  C7  UNL     1      25.678   0.830  22.028  1.00  0.00     0.311 C 
HETATM   10  F2  UNL     1      26.731   0.645  21.075  1.00  0.00    -0.199 F 
HETATM   11  F3  UNL     1      26.474   0.883  23.174  1.00  0.00    -0.199 F 
HETATM   12  C8  UNL     1      25.119   2.114  21.585  1.00  0.00     0.196 C 
HETATM   13  F4  UNL     1      26.261   2.948  21.654  1.00  0.00    -0.234 F 
HETATM   14  C9  UNL     1      24.833   1.934  20.116  1.00  0.00     0.113 C 
HETATM   15 BR1  UNL     1      26.293   2.606  19.000  1.00  0.00    -0.087 Br
HETATM   16  C10 UNL     1      23.487   2.462  19.744  1.00  0.00    -0.022 C 
HETATM   17  C11 UNL     1      23.457   2.475  18.204  1.00  0.00     0.017 C 
HETATM   18  C12 UNL     1      22.373   1.441  20.086  1.00  0.00     0.024 C 
HETATM   19  C13 UNL     1      23.376   3.839  20.223  1.00  0.00     0.008 C 
HETATM   20  C14 UNL     1      23.991   4.902  19.305  1.00  0.00     0.084 C 
HETATM   21  C15 UNL     1      23.519   6.217  19.920  1.00  0.00     0.128 C 
HETATM   22  O1  UNL     1      22.935   7.035  19.230  1.00  0.00    -0.298 OA
HETATM   23  C16 UNL     1      23.762   6.504  21.339  1.00  0.00     0.098 C 
HETATM   24  C17 UNL     1      23.431   5.309  22.260  1.00  0.00     0.105 C 
HETATM   25  C18 UNL     1      22.073   5.411  22.634  1.00  0.00     0.064 C 
HETATM   26  N2  UNL     1      20.972   5.515  22.934  1.00  0.00    -0.197 NA
HETATM   27  C19 UNL     1      23.971   4.131  21.619  1.00  0.00     0.025 C 
HETATM   28  C20 UNL     1      23.995   2.787  22.335  1.00  0.00     0.028 C 
HETATM   29  C21 UNL     1      24.093   2.742  23.815  1.00  0.00     0.004 C 
HETATM   30  C22 UNL     1      23.480   1.810  24.698  1.00  0.00     0.087 C 
HETATM   31  C23 UNL     1      22.658   2.367  22.068  1.00  0.00     0.031 C 
ENDROOT
TORSDOF 0
ENDMDL
