MODEL 1
REMARK VINA RESULT: -8.344420833      0.000      0.000
REMARK  4 active torsions:
REMARK  status: ('A' for Active; 'I' for Inactive)
REMARK    1  A    between atoms: N1_11  and  C8_12 
REMARK    2  A    between atoms: C8_12  and  O3_13 
REMARK    3  A    between atoms: C8_12  and  N2_15 
REMARK    4  A    between atoms: C21_29  and  C22_31 
ROOT
HETATM    1  C1  UNL     1      29.661   0.110  16.302  1.00  0.00     0.044 C 
HETATM    2  C2  UNL     1      28.281   0.150  16.927  1.00  0.00     0.176 C 
HETATM    3  O1  UNL     1      27.761   1.462  16.861  1.00  0.00    -0.312 OA
HETATM    4  C3  UNL     1      27.525   2.299  17.931  1.00  0.00     0.268 C 
HETATM    5  O2  UNL     1      26.617   3.158  17.792  1.00  0.00    -0.264 OA
HETATM    6  C4  UNL     1      28.242   2.279  19.224  1.00  0.00     0.185 C 
HETATM    7  S1  UNL     1      27.178   1.949  20.650  1.00  0.00    -0.152 SA
HETATM    8  C5  UNL     1      25.460   1.710  20.232  1.00  0.00     0.082 C 
HETATM    9  C6  UNL     1      24.741   3.019  20.623  1.00  0.00     0.037 C 
HETATM   10  C7  UNL     1      23.324   2.904  20.048  1.00  0.00     0.127 C 
HETATM   11  N1  UNL     1      22.727   1.792  20.697  1.00  0.00    -0.345 N 
HETATM   12  C13 UNL     1      23.373   0.479  20.393  1.00  0.00     0.161 C 
HETATM   13  C14 UNL     1      24.767   0.634  21.020  1.00  0.00     0.221 C 
HETATM   14  N3  UNL     1      25.458  -0.593  21.181  1.00  0.00    -0.068 N 
HETATM   15  C15 UNL     1      24.468  -1.644  21.472  1.00  0.00     0.272 C 
HETATM   16  C16 UNL     1      26.230  -0.491  22.437  1.00  0.00     0.272 C 
HETATM   17  C17 UNL     1      26.368  -0.947  20.163  1.00  0.00     0.237 C 
HETATM   18  C18 UNL     1      26.249  -2.300  19.564  1.00  0.00     0.028 C 
HETATM   19  C19 UNL     1      25.984  -2.253  18.046  1.00  0.00     0.005 C 
HETATM   20  C20 UNL     1      27.256  -2.109  17.279  1.00  0.00     0.056 C 
HETATM   21  C21 UNL     1      27.330  -0.870  16.414  1.00  0.00     0.226 C 
HETATM   22  F1  UNL     1      26.067  -0.255  16.384  1.00  0.00    -0.231 F 
ENDROOT
BRANCH  11  23
HETATM   23  C8  UNL     1      21.645   1.808  21.568  1.00  0.00     0.217 C 
BRANCH  23  24
HETATM   24  O3  UNL     1      20.648   0.973  21.290  1.00  0.00    -0.333 OA
ATOM     25  H3  UNL     1      19.957   0.907  21.939  1.00  0.00     0.220 HD
ENDBRANCH  23  24
BRANCH  23  26
HETATM   26  N2  UNL     1      21.392   2.554  22.717  1.00  0.00    -0.348 N 
HETATM   27  C9  UNL     1      21.416   4.041  22.738  1.00  0.00     0.126 C 
HETATM   28  C10 UNL     1      21.766   4.365  24.188  1.00  0.00     0.021 C 
HETATM   29  C11 UNL     1      20.896   3.365  24.902  1.00  0.00     0.021 C 
HETATM   30  C12 UNL     1      21.067   2.120  24.039  1.00  0.00     0.126 C 
ENDBRANCH  23  26
ENDBRANCH  11  23
BRANCH  21  31
HETATM   31  C22 UNL     1      27.572  -1.334  15.001  1.00  0.00     0.425 C 
HETATM   32  F2  UNL     1      28.585  -2.264  14.884  1.00  0.00    -0.167 F 
HETATM   33  F3  UNL     1      27.756  -0.273  14.134  1.00  0.00    -0.167 F 
HETATM   34  F4  UNL     1      26.417  -1.985  14.542  1.00  0.00    -0.167 F 
ENDBRANCH  21  31
TORSDOF 4
ENDMDL
MODEL 2
REMARK VINA RESULT: -7.931751171      1.321      1.658
REMARK  4 active torsions:
REMARK  status: ('A' for Active; 'I' for Inactive)
REMARK    1  A    between atoms: N1_11  and  C8_12 
REMARK    2  A    between atoms: C8_12  and  O3_13 
REMARK    3  A    between atoms: C8_12  and  N2_15 
REMARK    4  A    between atoms: C21_29  and  C22_31 
ROOT
HETATM    1  C1  UNL     1      28.693  -0.472  16.434  1.00  0.00     0.044 C 
HETATM    2  C2  UNL     1      27.440  -0.015  17.152  1.00  0.00     0.176 C 
HETATM    3  O1  UNL     1      27.289   1.383  17.014  1.00  0.00    -0.312 OA
HETATM    4  C3  UNL     1      27.388   2.317  18.024  1.00  0.00     0.268 C 
HETATM    5  O2  UNL     1      26.736   3.382  17.879  1.00  0.00    -0.264 OA
HETATM    6  C4  UNL     1      28.190   2.178  19.258  1.00  0.00     0.185 C 
HETATM    7  S1  UNL     1      27.215   2.243  20.780  1.00  0.00    -0.152 SA
HETATM    8  C5  UNL     1      25.464   2.462  20.511  1.00  0.00     0.082 C 
HETATM    9  C6  UNL     1      25.165   3.940  20.841  1.00  0.00     0.037 C 
HETATM   10  C7  UNL     1      23.722   4.185  20.383  1.00  0.00     0.127 C 
HETATM   11  N1  UNL     1      22.911   3.323  21.165  1.00  0.00    -0.345 N 
HETATM   12  C13 UNL     1      23.147   1.867  20.926  1.00  0.00     0.161 C 
HETATM   13  C14 UNL     1      24.584   1.669  21.435  1.00  0.00     0.221 C 
HETATM   14  N3  UNL     1      24.930   0.311  21.648  1.00  0.00    -0.068 N 
HETATM   15  C15 UNL     1      23.725  -0.406  22.099  1.00  0.00     0.272 C 
HETATM   16  C16 UNL     1      25.814   0.273  22.831  1.00  0.00     0.272 C 
HETATM   17  C17 UNL     1      25.612  -0.341  20.600  1.00  0.00     0.237 C 
HETATM   18  C18 UNL     1      25.077  -1.643  20.127  1.00  0.00     0.028 C 
HETATM   19  C19 UNL     1      24.694  -1.618  18.635  1.00  0.00     0.005 C 
HETATM   20  C20 UNL     1      25.881  -1.878  17.768  1.00  0.00     0.056 C 
HETATM   21  C21 UNL     1      26.205  -0.763  16.798  1.00  0.00     0.226 C 
HETATM   22  F1  UNL     1      25.158   0.174  16.808  1.00  0.00    -0.231 F 
ENDROOT
BRANCH  11  23
HETATM   23  C8  UNL     1      21.959   3.690  22.108  1.00  0.00     0.217 C 
BRANCH  23  24
HETATM   24  O3  UNL     1      20.937   2.855  22.274  1.00  0.00    -0.333 OA
ATOM     25  H3  UNL     1      20.073   3.200  22.079  1.00  0.00     0.220 HD
ENDBRANCH  23  24
BRANCH  23  26
HETATM   26  N2  UNL     1      21.864   4.800  22.943  1.00  0.00    -0.348 N 
HETATM   27  C9  UNL     1      22.206   4.755  24.391  1.00  0.00     0.126 C 
HETATM   28  C10 UNL     1      21.353   5.872  24.987  1.00  0.00     0.021 C 
HETATM   29  C11 UNL     1      21.543   6.939  23.943  1.00  0.00     0.021 C 
HETATM   30  C12 UNL     1      21.460   6.139  22.649  1.00  0.00     0.126 C 
ENDBRANCH  23  26
ENDBRANCH  11  23
BRANCH  21  31
HETATM   31  C22 UNL     1      26.180  -1.361  15.415  1.00  0.00     0.425 C 
HETATM   32  F2  UNL     1      26.722  -2.629  15.345  1.00  0.00    -0.167 F 
HETATM   33  F3  UNL     1      26.746  -0.517  14.478  1.00  0.00    -0.167 F 
HETATM   34  F4  UNL     1      24.843  -1.506  15.016  1.00  0.00    -0.167 F 
ENDBRANCH  21  31
TORSDOF 4
ENDMDL
MODEL 3
REMARK VINA RESULT: -7.803933259      3.961      7.931
REMARK  4 active torsions:
REMARK  status: ('A' for Active; 'I' for Inactive)
REMARK    1  A    between atoms: N1_11  and  C8_12 
REMARK    2  A    between atoms: C8_12  and  O3_13 
REMARK    3  A    between atoms: C8_12  and  N2_15 
REMARK    4  A    between atoms: C21_29  and  C22_31 
ROOT
HETATM    1  C1  UNL     1      22.795   1.331  24.376  1.00  0.00     0.044 C 
HETATM    2  C2  UNL     1      23.927   1.078  23.402  1.00  0.00     0.176 C 
HETATM    3  O1  UNL     1      24.527   2.303  23.032  1.00  0.00    -0.312 OA
HETATM    4  C3  UNL     1      24.489   2.884  21.782  1.00  0.00     0.268 C 
HETATM    5  O2  UNL     1      25.450   3.633  21.474  1.00  0.00    -0.264 OA
HETATM    6  C4  UNL     1      23.421   2.706  20.774  1.00  0.00     0.185 C 
HETATM    7  S1  UNL     1      23.991   1.981  19.219  1.00  0.00    -0.152 SA
HETATM    8  C5  UNL     1      25.737   1.613  19.188  1.00  0.00     0.082 C 
HETATM    9  C6  UNL     1      26.391   2.722  18.336  1.00  0.00     0.037 C 
HETATM   10  C7  UNL     1      27.904   2.542  18.508  1.00  0.00     0.127 C 
HETATM   11  N1  UNL     1      28.209   1.262  17.980  1.00  0.00    -0.345 N 
HETATM   12  C13 UNL     1      27.599   0.123  18.731  1.00  0.00     0.161 C 
HETATM   13  C14 UNL     1      26.095   0.328  18.495  1.00  0.00     0.221 C 
HETATM   14  N3  UNL     1      25.310  -0.811  18.804  1.00  0.00    -0.068 N 
HETATM   15  C15 UNL     1      26.100  -2.014  18.488  1.00  0.00     0.272 C 
HETATM   16  C16 UNL     1      24.209  -0.855  17.819  1.00  0.00     0.272 C 
HETATM   17  C17 UNL     1      24.722  -0.847  20.085  1.00  0.00     0.237 C 
HETATM   18  C18 UNL     1      24.925  -2.065  20.909  1.00  0.00     0.028 C 
HETATM   19  C19 UNL     1      25.631  -1.763  22.246  1.00  0.00     0.005 C 
HETATM   20  C20 UNL     1      24.654  -1.318  23.284  1.00  0.00     0.056 C 
HETATM   21  C21 UNL     1      24.920   0.063  23.842  1.00  0.00     0.226 C 
HETATM   22  F1  UNL     1      26.172   0.510  23.387  1.00  0.00    -0.231 F 
ENDROOT
BRANCH  11  23
HETATM   23  C8  UNL     1      28.983   0.976  16.863  1.00  0.00     0.217 C 
BRANCH  23  24
HETATM   24  O3  UNL     1      30.299   1.113  17.003  1.00  0.00    -0.333 OA
ATOM     25  H3  UNL     1      30.839   0.442  16.602  1.00  0.00     0.220 HD
ENDBRANCH  23  24
BRANCH  23  26
HETATM   26  N2  UNL     1      28.639   0.557  15.580  1.00  0.00    -0.348 N 
HETATM   27  C9  UNL     1      28.972   1.337  14.358  1.00  0.00     0.126 C 
HETATM   28  C10 UNL     1      27.889   0.916  13.367  1.00  0.00     0.021 C 
HETATM   29  C11 UNL     1      27.847  -0.565  13.633  1.00  0.00     0.021 C 
HETATM   30  C12 UNL     1      27.951  -0.621  15.152  1.00  0.00     0.126 C 
ENDBRANCH  23  26
ENDBRANCH  11  23
BRANCH  21  31
HETATM   31  C22 UNL     1      25.078  -0.088  25.333  1.00  0.00     0.425 C 
HETATM   32  F2  UNL     1      24.035  -0.757  25.940  1.00  0.00    -0.167 F 
HETATM   33  F3  UNL     1      25.330   1.123  25.951  1.00  0.00    -0.167 F 
HETATM   34  F4  UNL     1      26.216  -0.870  25.583  1.00  0.00    -0.167 F 
ENDBRANCH  21  31
TORSDOF 4
ENDMDL
MODEL 4
REMARK VINA RESULT: -7.657723032      0.965      1.210
REMARK  4 active torsions:
REMARK  status: ('A' for Active; 'I' for Inactive)
REMARK    1  A    between atoms: N1_11  and  C8_12 
REMARK    2  A    between atoms: C8_12  and  O3_13 
REMARK    3  A    between atoms: C8_12  and  N2_15 
REMARK    4  A    between atoms: C21_29  and  C22_31 
ROOT
HETATM    1  C1  UNL     1      29.109   0.280  16.575  1.00  0.00     0.044 C 
HETATM    2  C2  UNL     1      27.781   0.203  17.298  1.00  0.00     0.176 C 
HETATM    3  O1  UNL     1      27.162   1.473  17.303  1.00  0.00    -0.312 OA
HETATM    4  C3  UNL     1      26.944   2.269  18.408  1.00  0.00     0.268 C 
HETATM    5  O2  UNL     1      25.967   3.059  18.356  1.00  0.00    -0.264 OA
HETATM    6  C4  UNL     1      27.755   2.278  19.645  1.00  0.00     0.185 C 
HETATM    7  S1  UNL     1      26.827   1.841  21.135  1.00  0.00    -0.152 SA
HETATM    8  C5  UNL     1      25.105   1.481  20.837  1.00  0.00     0.082 C 
HETATM    9  C6  UNL     1      24.322   2.724  21.312  1.00  0.00     0.037 C 
HETATM   10  C7  UNL     1      22.878   2.513  20.839  1.00  0.00     0.127 C 
HETATM   11  N1  UNL     1      22.416   1.347  21.501  1.00  0.00    -0.345 N 
HETATM   12  C13 UNL     1      23.132   0.093  21.118  1.00  0.00     0.161 C 
HETATM   13  C14 UNL     1      24.554   0.340  21.646  1.00  0.00     0.221 C 
HETATM   14  N3  UNL     1      25.343  -0.834  21.726  1.00  0.00    -0.068 N 
HETATM   15  C15 UNL     1      24.458  -1.962  22.062  1.00  0.00     0.272 C 
HETATM   16  C16 UNL     1      26.197  -0.698  22.925  1.00  0.00     0.272 C 
HETATM   17  C17 UNL     1      26.199  -1.098  20.636  1.00  0.00     0.237 C 
HETATM   18  C18 UNL     1      26.136  -2.444  20.014  1.00  0.00     0.028 C 
HETATM   19  C19 UNL     1      25.757  -2.388  18.521  1.00  0.00     0.005 C 
HETATM   20  C20 UNL     1      26.954  -2.134  17.668  1.00  0.00     0.056 C 
HETATM   21  C21 UNL     1      26.872  -0.876  16.831  1.00  0.00     0.226 C 
HETATM   22  F1  UNL     1      25.568  -0.357  16.907  1.00  0.00    -0.231 F 
ENDROOT
BRANCH  11  23
HETATM   23  C8  UNL     1      21.403   1.264  22.448  1.00  0.00     0.217 C 
BRANCH  23  24
HETATM   24  O3  UNL     1      20.230   0.802  22.023  1.00  0.00    -0.333 OA
ATOM     25  H3  UNL     1      19.510   0.841  22.642  1.00  0.00     0.220 HD
ENDBRANCH  23  24
BRANCH  23  26
HETATM   26  N2  UNL     1      21.375   1.581  23.804  1.00  0.00    -0.348 N 
HETATM   27  C9  UNL     1      22.351   1.031  24.784  1.00  0.00     0.126 C 
HETATM   28  C10 UNL     1      21.581   1.064  26.102  1.00  0.00     0.021 C 
HETATM   29  C11 UNL     1      20.921   2.413  25.991  1.00  0.00     0.021 C 
HETATM   30  C12 UNL     1      20.491   2.439  24.529  1.00  0.00     0.126 C 
ENDBRANCH  23  26
ENDBRANCH  11  23
BRANCH  21  31
HETATM   31  C22 UNL     1      27.042  -1.293  15.393  1.00  0.00     0.425 C 
HETATM   32  F2  UNL     1      28.112  -2.138  15.179  1.00  0.00    -0.167 F 
HETATM   33  F3  UNL     1      27.080  -0.204  14.541  1.00  0.00    -0.167 F 
HETATM   34  F4  UNL     1      25.909  -2.022  15.003  1.00  0.00    -0.167 F 
ENDBRANCH  21  31
TORSDOF 4
ENDMDL
MODEL 5
REMARK VINA RESULT: -7.628417671      4.174      8.632
REMARK  4 active torsions:
REMARK  status: ('A' for Active; 'I' for Inactive)
REMARK    1  A    between atoms: N1_11  and  C8_12 
REMARK    2  A    between atoms: C8_12  and  O3_13 
REMARK    3  A    between atoms: C8_12  and  N2_15 
REMARK    4  A    between atoms: C21_29  and  C22_31 
ROOT
HETATM    1  C1  UNL     1      25.107  -0.492  21.712  1.00  0.00     0.044 C 
HETATM    2  C2  UNL     1      25.381  -0.015  20.301  1.00  0.00     0.176 C 
HETATM    3  O1  UNL     1      24.425  -0.560  19.415  1.00  0.00    -0.312 OA
HETATM    4  C3  UNL     1      24.668  -1.486  18.422  1.00  0.00     0.268 C 
HETATM    5  O2  UNL     1      23.898  -1.469  17.429  1.00  0.00    -0.264 OA
HETATM    6  C4  UNL     1      25.751  -2.493  18.421  1.00  0.00     0.185 C 
HETATM    7  S1  UNL     1      26.907  -2.328  17.040  1.00  0.00    -0.152 SA
HETATM    8  C5  UNL     1      26.528  -0.980  15.934  1.00  0.00     0.082 C 
HETATM    9  C6  UNL     1      25.895  -1.623  14.681  1.00  0.00     0.037 C 
HETATM   10  C7  UNL     1      25.355  -0.458  13.843  1.00  0.00     0.127 C 
HETATM   11  N1  UNL     1      26.484   0.324  13.487  1.00  0.00    -0.345 N 
HETATM   12  C13 UNL     1      27.176   0.971  14.642  1.00  0.00     0.161 C 
HETATM   13  C14 UNL     1      27.727  -0.231  15.424  1.00  0.00     0.221 C 
HETATM   14  N3  UNL     1      28.723   0.114  16.372  1.00  0.00    -0.068 N 
HETATM   15  C15 UNL     1      29.493   1.250  15.838  1.00  0.00     0.272 C 
HETATM   16  C16 UNL     1      29.705  -0.990  16.385  1.00  0.00     0.272 C 
HETATM   17  C17 UNL     1      28.293   0.302  17.702  1.00  0.00     0.237 C 
HETATM   18  C18 UNL     1      28.692   1.556  18.390  1.00  0.00     0.028 C 
HETATM   19  C19 UNL     1      27.480   2.391  18.848  1.00  0.00     0.005 C 
HETATM   20  C20 UNL     1      26.967   1.920  20.168  1.00  0.00     0.056 C 
HETATM   21  C21 UNL     1      25.527   1.456  20.152  1.00  0.00     0.226 C 
HETATM   22  F1  UNL     1      24.951   1.789  18.914  1.00  0.00    -0.231 F 
ENDROOT
BRANCH  11  23
HETATM   23  C8  UNL     1      26.996   0.529  12.213  1.00  0.00     0.217 C 
BRANCH  23  24
HETATM   24  O3  UNL     1      26.109   0.717  11.240  1.00  0.00    -0.333 OA
ATOM     25  H3  UNL     1      26.234   1.484  10.694  1.00  0.00     0.220 HD
ENDBRANCH  23  24
BRANCH  23  26
HETATM   26  N2  UNL     1      28.305   0.581  11.738  1.00  0.00    -0.348 N 
HETATM   27  C9  UNL     1      29.296   1.588  12.204  1.00  0.00     0.126 C 
HETATM   28  C10 UNL     1      30.252   1.712  11.020  1.00  0.00     0.021 C 
HETATM   29  C11 UNL     1      30.396   0.263  10.640  1.00  0.00     0.021 C 
HETATM   30  C12 UNL     1      28.966  -0.248  10.779  1.00  0.00     0.126 C 
ENDBRANCH  23  26
ENDBRANCH  11  23
BRANCH  21  31
HETATM   31  C22 UNL     1      24.786   2.290  21.165  1.00  0.00     0.425 C 
HETATM   32  F2  UNL     1      25.260   2.156  22.453  1.00  0.00    -0.167 F 
HETATM   33  F3  UNL     1      23.420   2.081  21.104  1.00  0.00    -0.167 F 
HETATM   34  F4  UNL     1      24.962   3.644  20.842  1.00  0.00    -0.167 F 
ENDBRANCH  21  31
TORSDOF 4
ENDMDL
