MODEL 1
REMARK VINA RESULT: -6.934325944      0.000      0.000
REMARK  0 active torsions:
REMARK  status: ('A' for Active; 'I' for Inactive)
ROOT
HETATM    1  N1  UNL     1      21.387   8.989  29.242  1.00  0.00    -0.194 NA
HETATM    2  C1  UNL     1      21.426   8.179  28.420  1.00  0.00     0.093 C 
HETATM    3  C2  UNL     1      21.467   7.143  27.357  1.00  0.00     0.254 C 
HETATM    4  O1  UNL     1      20.375   7.258  26.492  1.00  0.00    -0.300 OA
HETATM    5  C3  UNL     1      20.190   8.211  25.535  1.00  0.00     0.260 C 
HETATM    6  O2  UNL     1      19.042   8.733  25.371  1.00  0.00    -0.265 OA
HETATM    7  C4  UNL     1      21.253   8.721  24.626  1.00  0.00     0.111 C 
HETATM    8  C5  UNL     1      21.024   8.265  23.200  1.00  0.00     0.010 C 
HETATM    9  C6  UNL     1      21.877   7.064  22.842  1.00  0.00     0.003 C 
HETATM   10  C7  UNL     1      21.078   5.786  23.094  1.00  0.00     0.039 C 
HETATM   11  C8  UNL     1      21.968   4.644  23.502  1.00  0.00     0.188 C 
HETATM   12  F1  UNL     1      23.231   5.138  23.847  1.00  0.00    -0.248 F 
HETATM   13  C9  UNL     1      21.443   3.958  24.770  1.00  0.00     0.118 C 
HETATM   14 CL1  UNL     1      22.013   2.259  24.661  1.00  0.00    -0.122 Cl
HETATM   15  C10 UNL     1      22.018   4.617  25.985  1.00  0.00     0.057 C 
HETATM   16  C11 UNL     1      21.097   4.666  27.155  1.00  0.00     0.093 C 
HETATM   17 BR1  UNL     1      21.391   3.031  28.189  1.00  0.00    -0.071 Br
HETATM   18 BR2  UNL     1      19.225   4.639  26.628  1.00  0.00    -0.071 Br
HETATM   19  C12 UNL     1      21.325   5.815  28.083  1.00  0.00     0.131 C 
HETATM   20 BR3  UNL     1      19.742   5.952  29.221  1.00  0.00    -0.085 Br
ENDROOT
TORSDOF 0
ENDMDL
MODEL 2
REMARK VINA RESULT: -6.867705960      5.602      7.390
REMARK  0 active torsions:
REMARK  status: ('A' for Active; 'I' for Inactive)
ROOT
HETATM    1  N1  UNL     1      20.058   2.506  24.350  1.00  0.00    -0.194 NA
HETATM    2  C1  UNL     1      20.818   2.658  23.495  1.00  0.00     0.093 C 
HETATM    3  C2  UNL     1      21.803   2.847  22.400  1.00  0.00     0.254 C 
HETATM    4  O1  UNL     1      23.063   2.363  22.761  1.00  0.00    -0.300 OA
HETATM    5  C3  UNL     1      23.438   1.054  22.851  1.00  0.00     0.260 C 
HETATM    6  O2  UNL     1      24.168   0.667  23.819  1.00  0.00    -0.265 OA
HETATM    7  C4  UNL     1      23.056  -0.009  21.883  1.00  0.00     0.111 C 
HETATM    8  C5  UNL     1      24.246  -0.468  21.069  1.00  0.00     0.010 C 
HETATM    9  C6  UNL     1      24.286   0.182  19.700  1.00  0.00     0.003 C 
HETATM   10  C7  UNL     1      25.154   1.438  19.763  1.00  0.00     0.039 C 
HETATM   11  C8  UNL     1      24.680   2.492  18.800  1.00  0.00     0.188 C 
HETATM   12  F1  UNL     1      23.398   2.164  18.345  1.00  0.00    -0.248 F 
HETATM   13  C9  UNL     1      24.525   3.850  19.498  1.00  0.00     0.118 C 
HETATM   14 CL1  UNL     1      24.790   5.076  18.213  1.00  0.00    -0.122 Cl
HETATM   15  C10 UNL     1      23.145   3.983  20.060  1.00  0.00     0.057 C 
HETATM   16  C11 UNL     1      23.069   4.741  21.340  1.00  0.00     0.093 C 
HETATM   17 BR1  UNL     1      22.812   6.625  20.880  1.00  0.00    -0.071 Br
HETATM   18 BR2  UNL     1      24.728   4.656  22.351  1.00  0.00    -0.071 Br
HETATM   19  C12 UNL     1      21.935   4.352  22.232  1.00  0.00     0.131 C 
HETATM   20 BR3  UNL     1      22.318   5.094  23.999  1.00  0.00    -0.085 Br
ENDROOT
TORSDOF 0
ENDMDL
MODEL 3
REMARK VINA RESULT: -6.295625903      5.297      6.649
REMARK  0 active torsions:
REMARK  status: ('A' for Active; 'I' for Inactive)
ROOT
HETATM    1  N1  UNL     1      24.246   1.077  24.627  1.00  0.00    -0.194 NA
HETATM    2  C1  UNL     1      24.115   1.920  23.850  1.00  0.00     0.093 C 
HETATM    3  C2  UNL     1      23.935   3.004  22.851  1.00  0.00     0.254 C 
HETATM    4  O1  UNL     1      22.592   3.148  22.493  1.00  0.00    -0.300 OA
HETATM    5  C3  UNL     1      21.602   3.701  23.250  1.00  0.00     0.260 C 
HETATM    6  O2  UNL     1      20.450   3.161  23.285  1.00  0.00    -0.265 OA
HETATM    7  C4  UNL     1      21.748   4.931  24.076  1.00  0.00     0.111 C 
HETATM    8  C5  UNL     1      20.964   6.086  23.491  1.00  0.00     0.010 C 
HETATM    9  C6  UNL     1      21.843   7.023  22.688  1.00  0.00     0.003 C 
HETATM   10  C7  UNL     1      21.812   6.608  21.218  1.00  0.00     0.039 C 
HETATM   11  C8  UNL     1      23.113   6.913  20.526  1.00  0.00     0.188 C 
HETATM   12  F1  UNL     1      24.094   7.194  21.482  1.00  0.00    -0.248 F 
HETATM   13  C9  UNL     1      23.633   5.687  19.761  1.00  0.00     0.118 C 
HETATM   14 CL1  UNL     1      24.604   6.352  18.405  1.00  0.00    -0.122 Cl
HETATM   15  C10 UNL     1      24.498   4.856  20.655  1.00  0.00     0.057 C 
HETATM   16  C11 UNL     1      24.406   3.389  20.413  1.00  0.00     0.093 C 
HETATM   17 BR1  UNL     1      25.759   2.939  19.073  1.00  0.00    -0.071 Br
HETATM   18 BR2  UNL     1      22.696   2.869  19.646  1.00  0.00    -0.071 Br
HETATM   19  C12 UNL     1      24.680   2.538  21.610  1.00  0.00     0.131 C 
HETATM   20 BR3  UNL     1      24.032   0.742  21.196  1.00  0.00    -0.085 Br
ENDROOT
TORSDOF 0
ENDMDL
MODEL 4
REMARK VINA RESULT: -6.262117431      7.035      8.452
REMARK  0 active torsions:
REMARK  status: ('A' for Active; 'I' for Inactive)
ROOT
HETATM    1  N1  UNL     1      24.617  -1.634  23.576  1.00  0.00    -0.194 NA
HETATM    2  C1  UNL     1      24.598  -0.703  22.895  1.00  0.00     0.093 C 
HETATM    3  C2  UNL     1      24.562   0.494  22.017  1.00  0.00     0.254 C 
HETATM    4  O1  UNL     1      23.292   0.681  21.463  1.00  0.00    -0.300 OA
HETATM    5  C3  UNL     1      22.181   1.139  22.108  1.00  0.00     0.260 C 
HETATM    6  O2  UNL     1      21.050   0.598  21.888  1.00  0.00    -0.265 OA
HETATM    7  C4  UNL     1      22.167   2.259  23.088  1.00  0.00     0.111 C 
HETATM    8  C5  UNL     1      21.465   3.476  22.524  1.00  0.00     0.010 C 
HETATM    9  C6  UNL     1      22.445   4.504  21.994  1.00  0.00     0.003 C 
HETATM   10  C7  UNL     1      22.663   4.270  20.500  1.00  0.00     0.039 C 
HETATM   11  C8  UNL     1      24.053   4.656  20.072  1.00  0.00     0.188 C 
HETATM   12  F1  UNL     1      24.859   4.819  21.204  1.00  0.00    -0.248 F 
HETATM   13  C9  UNL     1      24.715   3.532  19.263  1.00  0.00     0.118 C 
HETATM   14 CL1  UNL     1      25.880   4.356  18.174  1.00  0.00    -0.122 Cl
HETATM   15  C10 UNL     1      25.439   2.598  20.181  1.00  0.00     0.057 C 
HETATM   16  C11 UNL     1      25.416   1.172  19.754  1.00  0.00     0.093 C 
HETATM   17 BR1  UNL     1      26.978   0.887  18.610  1.00  0.00    -0.071 Br
HETATM   18 BR2  UNL     1      23.865   0.749  18.659  1.00  0.00    -0.071 Br
HETATM   19  C12 UNL     1      25.508   0.182  20.869  1.00  0.00     0.131 C 
HETATM   20 BR3  UNL     1      24.972  -1.551  20.142  1.00  0.00    -0.085 Br
ENDROOT
TORSDOF 0
ENDMDL
MODEL 5
REMARK VINA RESULT: -6.220015044      6.160      8.012
REMARK  0 active torsions:
REMARK  status: ('A' for Active; 'I' for Inactive)
ROOT
HETATM    1  N1  UNL     1      19.921   2.060  23.268  1.00  0.00    -0.194 NA
HETATM    2  C1  UNL     1      20.867   2.148  22.613  1.00  0.00     0.093 C 
HETATM    3  C2  UNL     1      22.091   2.258  21.779  1.00  0.00     0.254 C 
HETATM    4  O1  UNL     1      23.237   1.940  22.513  1.00  0.00    -0.300 OA
HETATM    5  C3  UNL     1      23.634   0.696  22.905  1.00  0.00     0.260 C 
HETATM    6  O2  UNL     1      24.108   0.519  24.073  1.00  0.00    -0.265 OA
HETATM    7  C4  UNL     1      23.561  -0.527  22.060  1.00  0.00     0.111 C 
HETATM    8  C5  UNL     1      24.940  -0.998  21.650  1.00  0.00     0.010 C 
HETATM    9  C6  UNL     1      25.299  -0.555  20.246  1.00  0.00     0.003 C 
HETATM   10  C7  UNL     1      26.065   0.765  20.314  1.00  0.00     0.039 C 
HETATM   11  C8  UNL     1      25.807   1.622  19.105  1.00  0.00     0.188 C 
HETATM   12  F1  UNL     1      24.700   1.124  18.409  1.00  0.00    -0.248 F 
HETATM   13  C9  UNL     1      25.418   3.050  19.511  1.00  0.00     0.118 C 
HETATM   14 CL1  UNL     1      25.948   4.092  18.149  1.00  0.00    -0.122 Cl
HETATM   15  C10 UNL     1      23.935   3.147  19.686  1.00  0.00     0.057 C 
HETATM   16  C11 UNL     1      23.500   4.075  20.767  1.00  0.00     0.093 C 
HETATM   17 BR1  UNL     1      23.285   5.843  19.956  1.00  0.00    -0.071 Br
HETATM   18 BR2  UNL     1      24.846   4.281  22.155  1.00  0.00    -0.071 Br
HETATM   19  C12 UNL     1      22.194   3.728  21.404  1.00  0.00     0.131 C 
HETATM   20 BR3  UNL     1      22.077   4.751  23.065  1.00  0.00    -0.085 Br
ENDROOT
TORSDOF 0
ENDMDL
