MODEL 1
REMARK VINA RESULT: -4.619509014      0.000      0.000
REMARK  4 active torsions:
REMARK  status: ('A' for Active; 'I' for Inactive)
REMARK    1  A    between atoms: C2_2  and  C3_3 
REMARK    2  A    between atoms: C3_3  and  N1_4 
REMARK       I    between atoms: N1_4  and  C4_6 
REMARK       I    between atoms: C4_6  and  N4_11 
REMARK    3  A    between atoms: C7_16  and  O1_17 
REMARK    4  A    between atoms: C9_20  and  C10_21 
ROOT
HETATM    1  N1  UNL     1      28.155  14.547  22.172  1.00  0.00    -0.225 N 
ATOM      2  H1  UNL     1      28.591  13.713  21.778  1.00  0.00     0.177 HD
HETATM    3  C4  UNL     1      27.046  15.124  21.510  1.00  0.00     0.688 C 
HETATM    4  N2  UNL     1      27.044  15.479  20.276  1.00  0.00    -0.126 N 
ATOM      5  H2  UNL     1      26.214  15.891  19.850  1.00  0.00     0.197 HD
HETATM    6  C5  UNL     1      28.212  15.283  19.534  1.00  0.00     0.196 C 
HETATM    7  N3  UNL     1      29.187  15.134  18.898  1.00  0.00    -0.171 NA
HETATM    8  N4  UNL     1      25.851  15.329  22.246  1.00  0.00    -0.178 N 
ATOM      9  H4  UNL     1      25.466  16.267  22.360  1.00  0.00     0.185 HD
HETATM   10  C6  UNL     1      25.261  14.313  22.768  1.00  0.00     0.123 C 
HETATM   11  N5  UNL     1      25.688  12.955  22.687  1.00  0.00    -0.331 N 
ATOM     12  H5  UNL     1      26.461  12.627  22.109  1.00  0.00     0.165 HD
HETATM   13  C7  UNL     1      24.876  12.106  23.533  1.00  0.00     0.229 C 
HETATM   14  C8  UNL     1      24.330  13.137  24.530  1.00  0.00     0.118 C 
HETATM   15  C9  UNL     1      24.011  14.265  23.572  1.00  0.00     0.115 C 
HETATM   16  N6  UNL     1      22.936  13.863  22.714  1.00  0.00    -0.111 NA
HETATM   17  N7  UNL     1      23.365  12.775  21.965  1.00  0.00    -0.034 NA
HETATM   18  N8  UNL     1      23.740  11.681  22.744  1.00  0.00    -0.070 NA
ENDROOT
BRANCH   1  19
HETATM   19  C3  UNL     1      28.685  15.110  23.392  1.00  0.00     0.137 C 
BRANCH  19  20
HETATM   20  C2  UNL     1      30.189  15.298  23.250  1.00  0.00     0.016 C 
HETATM   21  C1  UNL     1      30.751  14.375  22.197  1.00  0.00     0.006 C 
ENDBRANCH  19  20
ENDBRANCH   1  19
BRANCH  15  22
HETATM   22  C10 UNL     1      23.673  15.545  24.252  1.00  0.00     0.011 C 
HETATM   23  C11 UNL     1      22.241  15.877  23.998  1.00  0.00     0.012 C 
HETATM   24  C12 UNL     1      23.924  15.559  25.723  1.00  0.00     0.012 C 
ENDBRANCH  15  22
BRANCH  13  25
HETATM   25  O1  UNL     1      25.571  11.096  24.130  1.00  0.00    -0.356 OA
ATOM     26  H1  UNL     1      25.294  10.228  23.862  1.00  0.00     0.214 HD
ENDBRANCH  13  25
TORSDOF 4
ENDMDL
MODEL 2
REMARK VINA RESULT: -4.132058377      1.044      1.491
REMARK  4 active torsions:
REMARK  status: ('A' for Active; 'I' for Inactive)
REMARK    1  A    between atoms: C2_2  and  C3_3 
REMARK    2  A    between atoms: C3_3  and  N1_4 
REMARK       I    between atoms: N1_4  and  C4_6 
REMARK       I    between atoms: C4_6  and  N4_11 
REMARK    3  A    between atoms: C7_16  and  O1_17 
REMARK    4  A    between atoms: C9_20  and  C10_21 
ROOT
HETATM    1  N1  UNL     1      28.402  14.857  22.943  1.00  0.00    -0.225 N 
ATOM      2  H1  UNL     1      28.962  14.034  22.722  1.00  0.00     0.177 HD
HETATM    3  C4  UNL     1      27.440  15.308  22.008  1.00  0.00     0.688 C 
HETATM    4  N2  UNL     1      27.696  15.581  20.781  1.00  0.00    -0.126 N 
ATOM      5  H2  UNL     1      26.962  15.903  20.150  1.00  0.00     0.197 HD
HETATM    6  C5  UNL     1      29.011  15.425  20.333  1.00  0.00     0.196 C 
HETATM    7  N3  UNL     1      30.111  15.307  19.942  1.00  0.00    -0.171 NA
HETATM    8  N4  UNL     1      26.100  15.471  22.444  1.00  0.00    -0.178 N 
ATOM      9  H4  UNL     1      25.646  16.383  22.395  1.00  0.00     0.185 HD
HETATM   10  C6  UNL     1      25.466  14.450  22.901  1.00  0.00     0.123 C 
HETATM   11  N5  UNL     1      25.977  13.125  23.024  1.00  0.00    -0.331 N 
ATOM     12  H5  UNL     1      26.879  12.817  22.659  1.00  0.00     0.165 HD
HETATM   13  C7  UNL     1      25.045  12.274  23.734  1.00  0.00     0.229 C 
HETATM   14  C8  UNL     1      24.231  13.324  24.501  1.00  0.00     0.118 C 
HETATM   15  C9  UNL     1      24.072  14.362  23.410  1.00  0.00     0.115 C 
HETATM   16  N6  UNL     1      23.243  13.828  22.370  1.00  0.00    -0.111 NA
HETATM   17  N7  UNL     1      23.892  12.728  21.823  1.00  0.00    -0.034 NA
HETATM   18  N8  UNL     1      24.143  11.717  22.750  1.00  0.00    -0.070 NA
ENDROOT
BRANCH   1  19
HETATM   19  C3  UNL     1      28.610  15.535  24.202  1.00  0.00     0.137 C 
BRANCH  19  20
HETATM   20  C2  UNL     1      28.257  14.595  25.345  1.00  0.00     0.016 C 
HETATM   21  C1  UNL     1      27.037  15.085  26.089  1.00  0.00     0.006 C 
ENDBRANCH  19  20
ENDBRANCH   1  19
BRANCH  15  22
HETATM   22  C10 UNL     1      23.516  15.654  23.896  1.00  0.00     0.011 C 
HETATM   23  C11 UNL     1      22.176  15.879  23.280  1.00  0.00     0.012 C 
HETATM   24  C12 UNL     1      23.397  15.769  25.379  1.00  0.00     0.012 C 
ENDBRANCH  15  22
BRANCH  13  25
HETATM   25  O1  UNL     1      25.645  11.359  24.548  1.00  0.00    -0.356 OA
ATOM     26  H1  UNL     1      25.814  10.524  24.128  1.00  0.00     0.214 HD
ENDBRANCH  13  25
TORSDOF 4
ENDMDL
MODEL 3
REMARK VINA RESULT: -3.672232823      2.095      5.504
REMARK  4 active torsions:
REMARK  status: ('A' for Active; 'I' for Inactive)
REMARK    1  A    between atoms: C2_2  and  C3_3 
REMARK    2  A    between atoms: C3_3  and  N1_4 
REMARK       I    between atoms: N1_4  and  C4_6 
REMARK       I    between atoms: C4_6  and  N4_11 
REMARK    3  A    between atoms: C7_16  and  O1_17 
REMARK    4  A    between atoms: C9_20  and  C10_21 
ROOT
HETATM    1  N1  UNL     1      23.813  12.543  22.995  1.00  0.00    -0.225 N 
ATOM      2  H1  UNL     1      23.479  12.097  22.140  1.00  0.00     0.177 HD
HETATM    3  C4  UNL     1      25.063  12.158  23.532  1.00  0.00     0.688 C 
HETATM    4  N2  UNL     1      25.388  10.948  23.814  1.00  0.00    -0.126 N 
ATOM      5  H2  UNL     1      26.306  10.727  24.199  1.00  0.00     0.197 HD
HETATM    6  C5  UNL     1      24.446   9.943  23.578  1.00  0.00     0.196 C 
HETATM    7  N3  UNL     1      23.665   9.087  23.394  1.00  0.00    -0.171 NA
HETATM    8  N4  UNL     1      26.033  13.164  23.776  1.00  0.00    -0.178 N 
ATOM      9  H4  UNL     1      26.391  13.321  24.718  1.00  0.00     0.185 HD
HETATM   10  C6  UNL     1      26.453  13.876  22.792  1.00  0.00     0.123 C 
HETATM   11  N5  UNL     1      26.039  13.762  21.432  1.00  0.00    -0.331 N 
ATOM     12  H5  UNL     1      25.434  13.024  21.071  1.00  0.00     0.165 HD
HETATM   13  C7  UNL     1      26.592  14.835  20.631  1.00  0.00     0.229 C 
HETATM   14  C8  UNL     1      26.881  15.879  21.717  1.00  0.00     0.118 C 
HETATM   15  C9  UNL     1      27.453  14.975  22.787  1.00  0.00     0.115 C 
HETATM   16  N6  UNL     1      28.706  14.446  22.336  1.00  0.00    -0.111 NA
HETATM   17  N7  UNL     1      28.465  13.673  21.206  1.00  0.00    -0.034 NA
HETATM   18  N8  UNL     1      27.886  14.389  20.160  1.00  0.00    -0.070 NA
ENDROOT
BRANCH   1  19
HETATM   19  C3  UNL     1      22.996  13.553  23.628  1.00  0.00     0.137 C 
BRANCH  19  20
HETATM   20  C2  UNL     1      23.122  14.860  22.859  1.00  0.00     0.016 C 
HETATM   21  C1  UNL     1      22.115  15.873  23.347  1.00  0.00     0.006 C 
ENDBRANCH  19  20
ENDBRANCH   1  19
BRANCH  15  22
HETATM   22  C10 UNL     1      27.626  15.648  24.104  1.00  0.00     0.011 C 
HETATM   23  C11 UNL     1      26.306  15.735  24.793  1.00  0.00     0.012 C 
HETATM   24  C12 UNL     1      28.611  14.996  25.017  1.00  0.00     0.012 C 
ENDBRANCH  15  22
BRANCH  13  25
HETATM   25  O1  UNL     1      25.751  15.288  19.659  1.00  0.00    -0.356 OA
ATOM     26  H1  UNL     1      24.839  15.316  19.923  1.00  0.00     0.214 HD
ENDBRANCH  13  25
TORSDOF 4
ENDMDL
MODEL 4
REMARK VINA RESULT: -3.595817926      6.220      8.884
REMARK  4 active torsions:
REMARK  status: ('A' for Active; 'I' for Inactive)
REMARK    1  A    between atoms: C2_2  and  C3_3 
REMARK    2  A    between atoms: C3_3  and  N1_4 
REMARK       I    between atoms: N1_4  and  C4_6 
REMARK       I    between atoms: C4_6  and  N4_11 
REMARK    3  A    between atoms: C7_16  and  O1_17 
REMARK    4  A    between atoms: C9_20  and  C10_21 
ROOT
HETATM    1  N1  UNL     1      24.137   8.711  23.374  1.00  0.00    -0.225 N 
ATOM      2  H1  UNL     1      24.663   8.844  22.509  1.00  0.00     0.177 HD
HETATM    3  C4  UNL     1      23.186   7.667  23.450  1.00  0.00     0.688 C 
HETATM    4  N2  UNL     1      22.221   7.505  22.619  1.00  0.00    -0.126 N 
ATOM      5  H2  UNL     1      21.564   6.732  22.722  1.00  0.00     0.197 HD
HETATM    6  C5  UNL     1      22.098   8.418  21.568  1.00  0.00     0.196 C 
HETATM    7  N3  UNL     1      21.975   9.180  20.685  1.00  0.00    -0.171 NA
HETATM    8  N4  UNL     1      23.297   6.729  24.508  1.00  0.00    -0.178 N 
ATOM      9  H4  UNL     1      22.537   6.614  25.180  1.00  0.00     0.185 HD
HETATM   10  C6  UNL     1      24.368   6.026  24.608  1.00  0.00     0.123 C 
HETATM   11  N5  UNL     1      25.499   6.086  23.742  1.00  0.00    -0.331 N 
ATOM     12  H5  UNL     1      25.537   6.625  22.877  1.00  0.00     0.165 HD
HETATM   13  C7  UNL     1      26.587   5.278  24.254  1.00  0.00     0.229 C 
HETATM   14  C8  UNL     1      26.212   5.209  25.741  1.00  0.00     0.118 C 
HETATM   15  C9  UNL     1      24.720   4.988  25.612  1.00  0.00     0.115 C 
HETATM   16  N6  UNL     1      24.483   3.699  25.033  1.00  0.00    -0.111 NA
HETATM   17  N7  UNL     1      25.028   3.693  23.756  1.00  0.00    -0.034 NA
HETATM   18  N8  UNL     1      26.400   3.938  23.738  1.00  0.00    -0.070 NA
ENDROOT
BRANCH   1  19
HETATM   19  C3  UNL     1      24.382   9.595  24.490  1.00  0.00     0.137 C 
BRANCH  19  20
HETATM   20  C2  UNL     1      24.635  11.004  23.974  1.00  0.00     0.016 C 
HETATM   21  C1  UNL     1      23.517  11.454  23.064  1.00  0.00     0.006 C 
ENDBRANCH  19  20
ENDBRANCH   1  19
BRANCH  15  22
HETATM   22  C10 UNL     1      23.988   5.114  26.902  1.00  0.00     0.011 C 
HETATM   23  C11 UNL     1      22.903   4.090  26.957  1.00  0.00     0.012 C 
HETATM   24  C12 UNL     1      24.838   4.989  28.122  1.00  0.00     0.012 C 
ENDBRANCH  15  22
BRANCH  13  25
HETATM   25  O1  UNL     1      27.822   5.812  24.035  1.00  0.00    -0.356 OA
ATOM     26  H1  UNL     1      28.152   6.326  24.762  1.00  0.00     0.214 HD
ENDBRANCH  13  25
TORSDOF 4
ENDMDL
MODEL 5
REMARK VINA RESULT: -3.402078049      2.665      5.795
REMARK  4 active torsions:
REMARK  status: ('A' for Active; 'I' for Inactive)
REMARK    1  A    between atoms: C2_2  and  C3_3 
REMARK    2  A    between atoms: C3_3  and  N1_4 
REMARK       I    between atoms: N1_4  and  C4_6 
REMARK       I    between atoms: C4_6  and  N4_11 
REMARK    3  A    between atoms: C7_16  and  O1_17 
REMARK    4  A    between atoms: C9_20  and  C10_21 
ROOT
HETATM    1  N1  UNL     1      24.215   9.806  23.868  1.00  0.00    -0.225 N 
ATOM      2  H1  UNL     1      23.641   9.644  24.697  1.00  0.00     0.177 HD
HETATM    3  C4  UNL     1      23.650  10.478  22.759  1.00  0.00     0.688 C 
HETATM    4  N2  UNL     1      22.568  10.118  22.169  1.00  0.00    -0.126 N 
ATOM      5  H2  UNL     1      22.205  10.642  21.372  1.00  0.00     0.197 HD
HETATM    6  C5  UNL     1      21.901   8.989  22.651  1.00  0.00     0.196 C 
HETATM    7  N3  UNL     1      21.332   8.038  23.037  1.00  0.00    -0.171 NA
HETATM    8  N4  UNL     1      24.312  11.628  22.257  1.00  0.00    -0.178 N 
ATOM      9  H4  UNL     1      24.649  11.653  21.294  1.00  0.00     0.185 HD
HETATM   10  C6  UNL     1      24.479  12.638  23.034  1.00  0.00     0.123 C 
HETATM   11  N5  UNL     1      24.058  12.736  24.392  1.00  0.00    -0.331 N 
ATOM     12  H5  UNL     1      23.478  12.046  24.869  1.00  0.00     0.165 HD
HETATM   13  C7  UNL     1      24.564  13.948  25.005  1.00  0.00     0.229 C 
HETATM   14  C8  UNL     1      25.759  14.249  24.091  1.00  0.00     0.118 C 
HETATM   15  C9  UNL     1      25.130  13.944  22.748  1.00  0.00     0.115 C 
HETATM   16  N6  UNL     1      24.108  14.910  22.477  1.00  0.00    -0.111 NA
HETATM   17  N7  UNL     1      23.124  14.782  23.449  1.00  0.00    -0.034 NA
HETATM   18  N8  UNL     1      23.596  14.991  24.744  1.00  0.00    -0.070 NA
ENDROOT
BRANCH   1  19
HETATM   19  C3  UNL     1      25.583   9.343  23.856  1.00  0.00     0.137 C 
BRANCH  19  20
HETATM   20  C2  UNL     1      25.602   7.822  23.820  1.00  0.00     0.016 C 
HETATM   21  C1  UNL     1      24.478   7.249  24.649  1.00  0.00     0.006 C 
ENDBRANCH  19  20
ENDBRANCH   1  19
BRANCH  15  22
HETATM   22  C10 UNL     1      26.110  13.905  21.628  1.00  0.00     0.011 C 
HETATM   23  C11 UNL     1      25.939  15.121  20.780  1.00  0.00     0.012 C 
HETATM   24  C12 UNL     1      27.538  13.798  22.046  1.00  0.00     0.012 C 
ENDBRANCH  15  22
BRANCH  13  25
HETATM   25  O1  UNL     1      24.912  13.800  26.314  1.00  0.00    -0.356 OA
ATOM     26  H1  UNL     1      24.960  14.618  26.794  1.00  0.00     0.214 HD
ENDBRANCH  13  25
TORSDOF 4
ENDMDL
