MODEL 1
REMARK VINA RESULT: -7.685833278      0.000      0.000
REMARK  7 active torsions:
REMARK  status: ('A' for Active; 'I' for Inactive)
REMARK    1  A    between atoms: N1_1  and  C1_4 
REMARK    2  A    between atoms: C2_7  and  C3_8 
REMARK       I    between atoms: C3_8  and  N3_10 
REMARK    3  A    between atoms: N3_10  and  C4_12 
REMARK    4  A    between atoms: C4_12  and  C5_13 
REMARK       I    between atoms: C5_13  and  N4_15 
REMARK    5  A    between atoms: C10_20  and  O3_21 
REMARK    6  A    between atoms: C11_23  and  O4_24 
REMARK    7  A    between atoms: C12_26  and  O5_27 
ROOT
HETATM    1  C1  UNL     1      21.200   3.009  25.726  1.00  0.00     0.136 A 
HETATM    2  N2  UNL     1      22.345   3.410  25.184  1.00  0.00    -0.334 N 
ATOM      3  H2  UNL     1      22.508   3.219  24.195  1.00  0.00     0.168 HD
HETATM    4  C2  UNL     1      23.323   4.073  25.897  1.00  0.00     0.138 A 
HETATM    5  C10 UNL     1      23.002   4.280  27.221  1.00  0.00     0.134 A 
HETATM    6  C11 UNL     1      21.810   3.870  27.814  1.00  0.00     0.138 A 
HETATM    7  C12 UNL     1      20.892   3.220  27.044  1.00  0.00     0.146 A 
ENDROOT
BRANCH   4   8
HETATM    8  C3  UNL     1      24.533   4.472  25.229  1.00  0.00     0.271 C 
HETATM    9  O1  UNL     1      25.570   4.651  25.971  1.00  0.00    -0.266 OA
HETATM   10  N3  UNL     1      24.739   4.695  23.873  1.00  0.00    -0.347 N 
ATOM     11  H3  UNL     1      23.947   4.564  23.244  1.00  0.00     0.163 HD
BRANCH  10  12
HETATM   12  C4  UNL     1      26.000   5.101  23.293  1.00  0.00     0.225 C 
BRANCH  12  13
HETATM   13  C5  UNL     1      26.437   6.459  23.621  1.00  0.00     0.237 C 
HETATM   14  O2  UNL     1      27.600   6.759  24.000  1.00  0.00    -0.272 OA
HETATM   15  N4  UNL     1      25.495   7.506  23.506  1.00  0.00    -0.351 N 
HETATM   16  C6  UNL     1      25.744   8.901  23.786  1.00  0.00     0.126 C 
HETATM   17  C9  UNL     1      24.123   7.377  23.093  1.00  0.00     0.126 C 
HETATM   18  C7  UNL     1      24.394   9.567  23.889  1.00  0.00     0.021 C 
HETATM   19  C8  UNL     1      23.432   8.397  23.980  1.00  0.00     0.021 C 
ENDBRANCH  12  13
ENDBRANCH  10  12
ENDBRANCH   4   8
BRANCH   5  20
HETATM   20  O3  UNL     1      23.933   4.944  28.020  1.00  0.00    -0.356 OA
ATOM     21  H3  UNL     1      24.055   5.876  27.879  1.00  0.00     0.218 HD
ENDBRANCH   5  20
BRANCH   1  22
HETATM   22  N1  UNL     1      20.324   2.386  24.984  1.00  0.00    -0.383 N 
ATOM     23  H12 UNL     1      19.369   2.743  24.967  1.00  0.00     0.157 HD
ATOM     24  H11 UNL     1      20.615   1.568  24.448  1.00  0.00     0.157 HD
ENDBRANCH   1  22
BRANCH   6  25
HETATM   25  O4  UNL     1      21.553   4.111  29.152  1.00  0.00    -0.355 OA
ATOM     26  H4  UNL     1      20.983   4.821  29.425  1.00  0.00     0.218 HD
ENDBRANCH   6  25
BRANCH   7  27
HETATM   27  O5  UNL     1      19.668   2.783  27.592  1.00  0.00    -0.355 OA
ATOM     28  H5  UNL     1      19.623   2.398  28.459  1.00  0.00     0.218 HD
ENDBRANCH   7  27
TORSDOF 7
ENDMDL
MODEL 2
REMARK VINA RESULT: -7.355359548      3.684      5.890
REMARK  7 active torsions:
REMARK  status: ('A' for Active; 'I' for Inactive)
REMARK    1  A    between atoms: N1_1  and  C1_4 
REMARK    2  A    between atoms: C2_7  and  C3_8 
REMARK       I    between atoms: C3_8  and  N3_10 
REMARK    3  A    between atoms: N3_10  and  C4_12 
REMARK    4  A    between atoms: C4_12  and  C5_13 
REMARK       I    between atoms: C5_13  and  N4_15 
REMARK    5  A    between atoms: C10_20  and  O3_21 
REMARK    6  A    between atoms: C11_23  and  O4_24 
REMARK    7  A    between atoms: C12_26  and  O5_27 
ROOT
HETATM    1  C1  UNL     1      27.350   6.185  23.918  1.00  0.00     0.136 A 
HETATM    2  N2  UNL     1      26.515   7.199  23.714  1.00  0.00    -0.334 N 
ATOM      3  H2  UNL     1      26.870   8.035  23.251  1.00  0.00     0.168 HD
HETATM    4  C2  UNL     1      25.190   7.170  24.099  1.00  0.00     0.138 A 
HETATM    5  C10 UNL     1      24.814   5.997  24.713  1.00  0.00     0.134 A 
HETATM    6  C11 UNL     1      25.669   4.920  24.940  1.00  0.00     0.138 A 
HETATM    7  C12 UNL     1      26.965   5.022  24.531  1.00  0.00     0.146 A 
ENDROOT
BRANCH   4   8
HETATM    8  C3  UNL     1      24.356   8.313  23.837  1.00  0.00     0.271 C 
HETATM    9  O1  UNL     1      23.129   8.075  23.531  1.00  0.00    -0.266 OA
HETATM   10  N3  UNL     1      24.699   9.660  23.869  1.00  0.00    -0.347 N 
ATOM     11  H3  UNL     1      25.661   9.899  24.109  1.00  0.00     0.163 HD
BRANCH  10  12
HETATM   12  C4  UNL     1      23.786  10.744  23.584  1.00  0.00     0.225 C 
BRANCH  12  13
HETATM   13  C5  UNL     1      24.380  11.915  22.938  1.00  0.00     0.237 C 
HETATM   14  O2  UNL     1      24.597  12.011  21.701  1.00  0.00    -0.272 OA
HETATM   15  N4  UNL     1      24.735  13.015  23.752  1.00  0.00    -0.351 N 
HETATM   16  C6  UNL     1      25.330  14.248  23.292  1.00  0.00     0.126 C 
HETATM   17  C9  UNL     1      24.572  13.107  25.177  1.00  0.00     0.126 C 
HETATM   18  C7  UNL     1      25.864  14.950  24.516  1.00  0.00     0.021 C 
HETATM   19  C8  UNL     1      25.818  13.874  25.586  1.00  0.00     0.021 C 
ENDBRANCH  12  13
ENDBRANCH  10  12
ENDBRANCH   4   8
BRANCH   5  20
HETATM   20  O3  UNL     1      23.489   5.877  25.136  1.00  0.00    -0.356 OA
ATOM     21  H3  UNL     1      23.025   5.077  24.920  1.00  0.00     0.218 HD
ENDBRANCH   5  20
BRANCH   1  22
HETATM   22  N1  UNL     1      28.591   6.289  23.525  1.00  0.00    -0.383 N 
ATOM     23  H12 UNL     1      29.323   6.259  24.235  1.00  0.00     0.157 HD
ATOM     24  H11 UNL     1      28.793   6.399  22.531  1.00  0.00     0.157 HD
ENDBRANCH   1  22
BRANCH   6  25
HETATM   25  O4  UNL     1      25.223   3.768  25.565  1.00  0.00    -0.355 OA
ATOM     26  H4  UNL     1      25.778   3.290  26.171  1.00  0.00     0.218 HD
ENDBRANCH   6  25
BRANCH   7  27
HETATM   27  O5  UNL     1      27.874   3.963  24.735  1.00  0.00    -0.355 OA
ATOM     28  H5  UNL     1      27.738   3.319  25.420  1.00  0.00     0.218 HD
ENDBRANCH   7  27
TORSDOF 7
ENDMDL
MODEL 3
REMARK VINA RESULT: -7.186641199      3.743      5.937
REMARK  7 active torsions:
REMARK  status: ('A' for Active; 'I' for Inactive)
REMARK    1  A    between atoms: N1_1  and  C1_4 
REMARK    2  A    between atoms: C2_7  and  C3_8 
REMARK       I    between atoms: C3_8  and  N3_10 
REMARK    3  A    between atoms: N3_10  and  C4_12 
REMARK    4  A    between atoms: C4_12  and  C5_13 
REMARK       I    between atoms: C5_13  and  N4_15 
REMARK    5  A    between atoms: C10_20  and  O3_21 
REMARK    6  A    between atoms: C11_23  and  O4_24 
REMARK    7  A    between atoms: C12_26  and  O5_27 
ROOT
HETATM    1  C1  UNL     1      27.415   6.119  23.881  1.00  0.00     0.136 A 
HETATM    2  N2  UNL     1      26.634   7.166  23.637  1.00  0.00    -0.334 N 
ATOM      3  H2  UNL     1      27.032   7.966  23.146  1.00  0.00     0.168 HD
HETATM    4  C2  UNL     1      25.308   7.219  24.016  1.00  0.00     0.138 A 
HETATM    5  C10 UNL     1      24.870   6.089  24.670  1.00  0.00     0.134 A 
HETATM    6  C11 UNL     1      25.668   4.978  24.939  1.00  0.00     0.138 A 
HETATM    7  C12 UNL     1      26.969   5.000  24.532  1.00  0.00     0.146 A 
ENDROOT
BRANCH   4   8
HETATM    8  C3  UNL     1      24.534   8.393  23.710  1.00  0.00     0.271 C 
HETATM    9  O1  UNL     1      23.351   8.200  23.242  1.00  0.00    -0.266 OA
HETATM   10  N3  UNL     1      24.895   9.728  23.851  1.00  0.00    -0.347 N 
ATOM     11  H3  UNL     1      25.824   9.932  24.220  1.00  0.00     0.163 HD
BRANCH  10  12
HETATM   12  C4  UNL     1      24.045  10.846  23.510  1.00  0.00     0.225 C 
BRANCH  12  13
HETATM   13  C5  UNL     1      24.503  12.153  23.982  1.00  0.00     0.237 C 
HETATM   14  O2  UNL     1      24.186  12.659  25.092  1.00  0.00    -0.272 OA
HETATM   15  N4  UNL     1      25.358  12.903  23.142  1.00  0.00    -0.351 N 
HETATM   16  C6  UNL     1      25.905  14.206  23.440  1.00  0.00     0.126 C 
HETATM   17  C9  UNL     1      25.835  12.509  21.844  1.00  0.00     0.126 C 
HETATM   18  C7  UNL     1      26.431  14.758  22.139  1.00  0.00     0.021 C 
HETATM   19  C8  UNL     1      25.834  13.830  21.096  1.00  0.00     0.021 C 
ENDBRANCH  12  13
ENDBRANCH  10  12
ENDBRANCH   4   8
BRANCH   5  20
HETATM   20  O3  UNL     1      23.540   6.053  25.091  1.00  0.00    -0.356 OA
ATOM     21  H3  UNL     1      22.980   5.373  24.734  1.00  0.00     0.218 HD
ENDBRANCH   5  20
BRANCH   1  22
HETATM   22  N1  UNL     1      28.661   6.146  23.490  1.00  0.00    -0.383 N 
ATOM     23  H12 UNL     1      28.865   6.522  22.564  1.00  0.00     0.157 HD
ATOM     24  H11 UNL     1      29.388   5.792  24.112  1.00  0.00     0.157 HD
ENDBRANCH   1  22
BRANCH   6  25
HETATM   25  O4  UNL     1      25.162   3.874  25.602  1.00  0.00    -0.355 OA
ATOM     26  H4  UNL     1      24.269   3.861  25.928  1.00  0.00     0.218 HD
ENDBRANCH   6  25
BRANCH   7  27
HETATM   27  O5  UNL     1      27.822   3.904  24.778  1.00  0.00    -0.355 OA
ATOM     28  H5  UNL     1      27.475   3.034  24.941  1.00  0.00     0.218 HD
ENDBRANCH   7  27
TORSDOF 7
ENDMDL
MODEL 4
REMARK VINA RESULT: -7.138648033      3.414      5.311
REMARK  7 active torsions:
REMARK  status: ('A' for Active; 'I' for Inactive)
REMARK    1  A    between atoms: N1_1  and  C1_4 
REMARK    2  A    between atoms: C2_7  and  C3_8 
REMARK       I    between atoms: C3_8  and  N3_10 
REMARK    3  A    between atoms: N3_10  and  C4_12 
REMARK    4  A    between atoms: C4_12  and  C5_13 
REMARK       I    between atoms: C5_13  and  N4_15 
REMARK    5  A    between atoms: C10_20  and  O3_21 
REMARK    6  A    between atoms: C11_23  and  O4_24 
REMARK    7  A    between atoms: C12_26  and  O5_27 
ROOT
HETATM    1  C1  UNL     1      24.344   5.540  26.090  1.00  0.00     0.136 A 
HETATM    2  N2  UNL     1      24.136   6.677  25.434  1.00  0.00    -0.334 N 
ATOM      3  H2  UNL     1      23.718   7.459  25.937  1.00  0.00     0.168 HD
HETATM    4  C2  UNL     1      24.460   6.847  24.103  1.00  0.00     0.138 A 
HETATM    5  C10 UNL     1      25.018   5.731  23.519  1.00  0.00     0.134 A 
HETATM    6  C11 UNL     1      25.247   4.528  24.184  1.00  0.00     0.138 A 
HETATM    7  C12 UNL     1      24.900   4.436  25.499  1.00  0.00     0.146 A 
ENDROOT
BRANCH   4   8
HETATM    8  C3  UNL     1      24.201   8.114  23.471  1.00  0.00     0.271 C 
HETATM    9  O1  UNL     1      23.524   8.085  22.377  1.00  0.00    -0.266 OA
HETATM   10  N3  UNL     1      24.587   9.382  23.887  1.00  0.00    -0.347 N 
ATOM     11  H3  UNL     1      25.125   9.457  24.751  1.00  0.00     0.163 HD
BRANCH  10  12
HETATM   12  C4  UNL     1      24.280  10.604  23.177  1.00  0.00     0.225 C 
BRANCH  12  13
HETATM   13  C5  UNL     1      24.688  11.840  23.846  1.00  0.00     0.237 C 
HETATM   14  O2  UNL     1      24.300  12.189  24.993  1.00  0.00    -0.272 OA
HETATM   15  N4  UNL     1      25.575  12.704  23.165  1.00  0.00    -0.351 N 
HETATM   16  C6  UNL     1      26.082  13.960  23.665  1.00  0.00     0.126 C 
HETATM   17  C9  UNL     1      26.131  12.493  21.855  1.00  0.00     0.126 C 
HETATM   18  C7  UNL     1      26.671  14.688  22.482  1.00  0.00     0.021 C 
HETATM   19  C8  UNL     1      26.150  13.903  21.292  1.00  0.00     0.021 C 
ENDBRANCH  12  13
ENDBRANCH  10  12
ENDBRANCH   4   8
BRANCH   5  20
HETATM   20  O3  UNL     1      25.379   5.811  22.174  1.00  0.00    -0.356 OA
ATOM     21  H3  UNL     1      24.760   5.490  21.528  1.00  0.00     0.218 HD
ENDBRANCH   5  20
BRANCH   1  22
HETATM   22  N1  UNL     1      24.009   5.458  27.350  1.00  0.00    -0.383 N 
ATOM     23  H12 UNL     1      23.782   6.321  27.843  1.00  0.00     0.157 HD
ATOM     24  H11 UNL     1      23.985   4.544  27.802  1.00  0.00     0.157 HD
ENDBRANCH   1  22
BRANCH   6  25
HETATM   25  O4  UNL     1      25.812   3.445  23.534  1.00  0.00    -0.355 OA
ATOM     26  H4  UNL     1      25.700   3.317  22.599  1.00  0.00     0.218 HD
ENDBRANCH   6  25
BRANCH   7  27
HETATM   27  O5  UNL     1      25.109   3.243  26.221  1.00  0.00    -0.355 OA
ATOM     28  H5  UNL     1      25.353   2.436  25.783  1.00  0.00     0.218 HD
ENDBRANCH   7  27
TORSDOF 7
ENDMDL
MODEL 5
REMARK VINA RESULT: -6.998777188      3.302      5.181
REMARK  7 active torsions:
REMARK  status: ('A' for Active; 'I' for Inactive)
REMARK    1  A    between atoms: N1_1  and  C1_4 
REMARK    2  A    between atoms: C2_7  and  C3_8 
REMARK       I    between atoms: C3_8  and  N3_10 
REMARK    3  A    between atoms: N3_10  and  C4_12 
REMARK    4  A    between atoms: C4_12  and  C5_13 
REMARK       I    between atoms: C5_13  and  N4_15 
REMARK    5  A    between atoms: C10_20  and  O3_21 
REMARK    6  A    between atoms: C11_23  and  O4_24 
REMARK    7  A    between atoms: C12_26  and  O5_27 
ROOT
HETATM    1  C1  UNL     1      24.280   5.405  26.171  1.00  0.00     0.136 A 
HETATM    2  N2  UNL     1      24.034   6.550  25.543  1.00  0.00    -0.334 N 
ATOM      3  H2  UNL     1      23.613   7.314  26.071  1.00  0.00     0.168 HD
HETATM    4  C2  UNL     1      24.324   6.752  24.209  1.00  0.00     0.138 A 
HETATM    5  C10 UNL     1      24.889   5.660  23.590  1.00  0.00     0.134 A 
HETATM    6  C11 UNL     1      25.157   4.448  24.225  1.00  0.00     0.138 A 
HETATM    7  C12 UNL     1      24.843   4.325  25.546  1.00  0.00     0.146 A 
ENDROOT
BRANCH   4   8
HETATM    8  C3  UNL     1      24.024   8.026  23.609  1.00  0.00     0.271 C 
HETATM    9  O1  UNL     1      23.669   8.012  22.372  1.00  0.00    -0.266 OA
HETATM   10  N3  UNL     1      24.068   9.287  24.190  1.00  0.00    -0.347 N 
ATOM     11  H3  UNL     1      24.343   9.350  25.171  1.00  0.00     0.163 HD
BRANCH  10  12
HETATM   12  C4  UNL     1      23.752  10.517  23.500  1.00  0.00     0.225 C 
BRANCH  12  13
HETATM   13  C5  UNL     1      24.785  11.553  23.551  1.00  0.00     0.237 C 
HETATM   14  O2  UNL     1      25.987  11.342  23.865  1.00  0.00    -0.272 OA
HETATM   15  N4  UNL     1      24.416  12.878  23.227  1.00  0.00    -0.351 N 
HETATM   16  C6  UNL     1      25.296  14.023  23.223  1.00  0.00     0.126 C 
HETATM   17  C9  UNL     1      23.105  13.327  22.844  1.00  0.00     0.126 C 
HETATM   18  C7  UNL     1      24.411  15.245  23.187  1.00  0.00     0.021 C 
HETATM   19  C8  UNL     1      23.035  14.691  23.508  1.00  0.00     0.021 C 
ENDBRANCH  12  13
ENDBRANCH  10  12
ENDBRANCH   4   8
BRANCH   5  20
HETATM   20  O3  UNL     1      25.216   5.773  22.238  1.00  0.00    -0.356 OA
ATOM     21  H3  UNL     1      24.842   5.140  21.636  1.00  0.00     0.218 HD
ENDBRANCH   5  20
BRANCH   1  22
HETATM   22  N1  UNL     1      23.977   5.292  27.437  1.00  0.00    -0.383 N 
ATOM     23  H12 UNL     1      24.670   5.585  28.125  1.00  0.00     0.157 HD
ATOM     24  H11 UNL     1      23.066   4.916  27.701  1.00  0.00     0.157 HD
ENDBRANCH   1  22
BRANCH   6  25
HETATM   25  O4  UNL     1      25.727   3.390  23.541  1.00  0.00    -0.355 OA
ATOM     26  H4  UNL     1      26.613   3.100  23.729  1.00  0.00     0.218 HD
ENDBRANCH   6  25
BRANCH   7  27
HETATM   27  O5  UNL     1      25.092   3.122  26.239  1.00  0.00    -0.355 OA
ATOM     28  H5  UNL     1      25.649   2.445  25.871  1.00  0.00     0.218 HD
ENDBRANCH   7  27
TORSDOF 7
ENDMDL
