MODEL 1
REMARK VINA RESULT: -7.525553898      0.000      0.000
REMARK  7 active torsions:
REMARK  status: ('A' for Active; 'I' for Inactive)
REMARK    1  A    between atoms: C2_2  and  C11_22 
REMARK    2  A    between atoms: N1_3  and  N2_5 
REMARK       I    between atoms: N2_5  and  C3_7 
REMARK       I    between atoms: C3_7  and  N3_9 
REMARK    3  A    between atoms: N3_9  and  N4_11 
REMARK    4  A    between atoms: N4_11  and  C4_13 
REMARK    5  A    between atoms: C4_13  and  C5_15 
REMARK    6  A    between atoms: C11_22  and  O2_23 
REMARK    7  A    between atoms: N6_25  and  O3_27 
ROOT
HETATM    1  N2  UNL     1      24.247   9.989  24.220  1.00  0.00    -0.250 N 
ATOM      2  H2  UNL     1      24.560  10.130  25.180  1.00  0.00     0.192 HD
HETATM    3  C3  UNL     1      24.103   8.689  23.664  1.00  0.00     0.353 C 
HETATM    4  O1  UNL     1      23.715   8.536  22.469  1.00  0.00    -0.244 OA
HETATM    5  N3  UNL     1      24.398   7.566  24.464  1.00  0.00    -0.249 N 
ATOM      6  H3  UNL     1      24.714   7.665  25.428  1.00  0.00     0.192 HD
ENDROOT
BRANCH   1   7
HETATM    7  N1  UNL     1      23.941  11.050  23.394  1.00  0.00    -0.297 N 
HETATM    8  C2  UNL     1      24.188  12.261  23.736  1.00  0.00     0.074 C 
HETATM    9  C1  UNL     1      24.814  12.620  25.027  1.00  0.00     0.074 C 
ATOM     10  H1  UNL     1      23.506  10.867  22.489  1.00  0.00     0.187 HD
BRANCH   8  11
HETATM   11  C11 UNL     1      23.836  13.353  22.789  1.00  0.00     0.184 C 
HETATM   12  N6  UNL     1      24.393  13.570  21.699  1.00  0.00    -0.246 N 
ATOM     13  H6  UNL     1      24.046  14.357  21.150  1.00  0.00     0.196 HD
BRANCH  11  14
HETATM   14  O2  UNL     1      22.776  14.223  23.160  1.00  0.00    -0.343 OA
ATOM     15  H2  UNL     1      22.791  14.578  24.041  1.00  0.00     0.219 HD
ENDBRANCH  11  14
BRANCH  12  16
HETATM   16  O3  UNL     1      25.413  12.862  21.174  1.00  0.00    -0.288 OA
ATOM     17  H3  UNL     1      26.267  13.204  20.936  1.00  0.00     0.244 HD
ENDBRANCH  12  16
ENDBRANCH   8  11
ENDBRANCH   1   7
BRANCH   5  18
HETATM   18  N4  UNL     1      24.233   6.300  23.868  1.00  0.00    -0.286 N 
ATOM     19  H4  UNL     1      23.870   6.209  22.920  1.00  0.00     0.188 HD
BRANCH  18  20
HETATM   20  C4  UNL     1      24.585   5.162  24.620  1.00  0.00     0.125 C 
HETATM   21  S1  UNL     1      26.019   4.428  24.405  1.00  0.00    -0.058 SA
BRANCH  20  22
HETATM   22  C5  UNL     1      23.638   4.646  25.598  1.00  0.00     0.003 A 
HETATM   23  C6  UNL     1      22.500   3.985  25.191  1.00  0.00     0.016 A 
HETATM   24  C7  UNL     1      21.600   3.515  26.116  1.00  0.00     0.027 A 
HETATM   25  C8  UNL     1      21.795   3.682  27.476  1.00  0.00     0.046 A 
HETATM   26  N5  UNL     1      20.829   3.179  28.387  1.00  0.00    -0.102 NA
HETATM   27  C9  UNL     1      22.938   4.345  27.850  1.00  0.00     0.027 A 
HETATM   28  C10 UNL     1      23.859   4.828  26.951  1.00  0.00     0.016 A 
ENDBRANCH  20  22
ENDBRANCH  18  20
ENDBRANCH   5  18
TORSDOF 7
ENDMDL
MODEL 2
REMARK VINA RESULT: -7.487852849      0.056      1.032
REMARK  7 active torsions:
REMARK  status: ('A' for Active; 'I' for Inactive)
REMARK    1  A    between atoms: C2_2  and  C11_22 
REMARK    2  A    between atoms: N1_3  and  N2_5 
REMARK       I    between atoms: N2_5  and  C3_7 
REMARK       I    between atoms: C3_7  and  N3_9 
REMARK    3  A    between atoms: N3_9  and  N4_11 
REMARK    4  A    between atoms: N4_11  and  C4_13 
REMARK    5  A    between atoms: C4_13  and  C5_15 
REMARK    6  A    between atoms: C11_22  and  O2_23 
REMARK    7  A    between atoms: N6_25  and  O3_27 
ROOT
HETATM    1  N2  UNL     1      24.226   9.972  24.244  1.00  0.00    -0.250 N 
ATOM      2  H2  UNL     1      24.531  10.116  25.207  1.00  0.00     0.192 HD
HETATM    3  C3  UNL     1      24.095   8.670  23.688  1.00  0.00     0.353 C 
HETATM    4  O1  UNL     1      23.718   8.514  22.491  1.00  0.00    -0.244 OA
HETATM    5  N3  UNL     1      24.389   7.549  24.492  1.00  0.00    -0.249 N 
ATOM      6  H3  UNL     1      24.698   7.652  25.459  1.00  0.00     0.192 HD
ENDROOT
BRANCH   1   7
HETATM    7  N1  UNL     1      23.921  11.029  23.414  1.00  0.00    -0.297 N 
HETATM    8  C2  UNL     1      24.174  12.241  23.749  1.00  0.00     0.074 C 
HETATM    9  C1  UNL     1      24.807  12.604  25.035  1.00  0.00     0.074 C 
ATOM     10  H1  UNL     1      23.482  10.843  22.512  1.00  0.00     0.187 HD
BRANCH   8  11
HETATM   11  C11 UNL     1      23.823  13.330  22.798  1.00  0.00     0.184 C 
HETATM   12  N6  UNL     1      24.376  13.539  21.704  1.00  0.00    -0.246 N 
ATOM     13  H6  UNL     1      24.030  14.324  21.153  1.00  0.00     0.196 HD
BRANCH  11  14
HETATM   14  O2  UNL     1      22.768  14.207  23.170  1.00  0.00    -0.343 OA
ATOM     15  H2  UNL     1      22.248  14.584  22.472  1.00  0.00     0.219 HD
ENDBRANCH  11  14
BRANCH  12  16
HETATM   16  O3  UNL     1      25.390  12.824  21.178  1.00  0.00    -0.288 OA
ATOM     17  H3  UNL     1      26.111  13.170  20.665  1.00  0.00     0.244 HD
ENDBRANCH  12  16
ENDBRANCH   8  11
ENDBRANCH   1   7
BRANCH   5  18
HETATM   18  N4  UNL     1      24.237   6.282  23.897  1.00  0.00    -0.286 N 
ATOM     19  H4  UNL     1      23.905   6.189  22.938  1.00  0.00     0.188 HD
BRANCH  18  20
HETATM   20  C4  UNL     1      24.558   5.146  24.665  1.00  0.00     0.125 C 
HETATM   21  S1  UNL     1      25.992   4.400  24.497  1.00  0.00    -0.058 SA
BRANCH  20  22
HETATM   22  C5  UNL     1      23.578   4.642  25.616  1.00  0.00     0.003 A 
HETATM   23  C6  UNL     1      23.771   4.799  26.972  1.00  0.00     0.016 A 
HETATM   24  C7  UNL     1      22.854   4.307  27.867  1.00  0.00     0.027 A 
HETATM   25  C8  UNL     1      21.713   3.641  27.453  1.00  0.00     0.046 A 
HETATM   26  N5  UNL     1      20.800   3.149  28.424  1.00  0.00    -0.102 NA
HETATM   27  C9  UNL     1      21.549   3.500  26.097  1.00  0.00     0.027 A 
HETATM   28  C10 UNL     1      22.447   3.981  25.174  1.00  0.00     0.016 A 
ENDBRANCH  20  22
ENDBRANCH  18  20
ENDBRANCH   5  18
TORSDOF 7
ENDMDL
MODEL 3
REMARK VINA RESULT: -7.475560202      3.108      8.367
REMARK  7 active torsions:
REMARK  status: ('A' for Active; 'I' for Inactive)
REMARK    1  A    between atoms: C2_2  and  C11_22 
REMARK    2  A    between atoms: N1_3  and  N2_5 
REMARK       I    between atoms: N2_5  and  C3_7 
REMARK       I    between atoms: C3_7  and  N3_9 
REMARK    3  A    between atoms: N3_9  and  N4_11 
REMARK    4  A    between atoms: N4_11  and  C4_13 
REMARK    5  A    between atoms: C4_13  and  C5_15 
REMARK    6  A    between atoms: C11_22  and  O2_23 
REMARK    7  A    between atoms: N6_25  and  O3_27 
ROOT
HETATM    1  N2  UNL     1      24.187   5.348  24.557  1.00  0.00    -0.250 N 
ATOM      2  H2  UNL     1      24.278   4.706  23.770  1.00  0.00     0.192 HD
HETATM    3  C3  UNL     1      24.348   6.752  24.400  1.00  0.00     0.353 C 
HETATM    4  O1  UNL     1      24.233   7.531  25.390  1.00  0.00    -0.244 OA
HETATM    5  N3  UNL     1      24.638   7.269  23.120  1.00  0.00    -0.249 N 
ATOM      6  H3  UNL     1      24.739   6.659  22.308  1.00  0.00     0.192 HD
ENDROOT
BRANCH   1   7
HETATM    7  N1  UNL     1      23.899   4.900  25.829  1.00  0.00    -0.297 N 
HETATM    8  C2  UNL     1      22.831   4.238  26.083  1.00  0.00     0.074 C 
HETATM    9  C1  UNL     1      21.829   3.901  25.048  1.00  0.00     0.074 C 
ATOM     10  H1  UNL     1      24.552   5.101  26.586  1.00  0.00     0.187 HD
BRANCH   8  11
HETATM   11  C11 UNL     1      22.592   3.780  27.478  1.00  0.00     0.184 C 
HETATM   12  N6  UNL     1      23.193   4.193  28.485  1.00  0.00    -0.246 N 
ATOM     13  H6  UNL     1      22.924   3.789  29.382  1.00  0.00     0.196 HD
BRANCH  11  14
HETATM   14  O2  UNL     1      21.595   2.788  27.678  1.00  0.00    -0.343 OA
ATOM     15  H2  UNL     1      20.727   3.085  27.922  1.00  0.00     0.219 HD
ENDBRANCH  11  14
BRANCH  12  16
HETATM   16  O3  UNL     1      24.167   5.124  28.502  1.00  0.00    -0.288 OA
ATOM     17  H3  UNL     1      24.233   5.876  27.924  1.00  0.00     0.244 HD
ENDBRANCH  12  16
ENDBRANCH   8  11
ENDBRANCH   1   7
BRANCH   5  18
HETATM   18  N4  UNL     1      24.783   8.666  23.015  1.00  0.00    -0.286 N 
ATOM     19  H4  UNL     1      25.707   9.097  22.987  1.00  0.00     0.188 HD
BRANCH  18  20
HETATM   20  C4  UNL     1      23.616   9.451  22.953  1.00  0.00     0.125 C 
HETATM   21  S1  UNL     1      22.190   8.796  22.527  1.00  0.00    -0.058 SA
BRANCH  20  22
HETATM   22  C5  UNL     1      23.704  10.868  23.273  1.00  0.00     0.003 A 
HETATM   23  C6  UNL     1      24.526  11.308  24.288  1.00  0.00     0.016 A 
HETATM   24  C7  UNL     1      24.593  12.643  24.599  1.00  0.00     0.027 A 
HETATM   25  C8  UNL     1      23.849  13.591  23.917  1.00  0.00     0.046 A 
HETATM   26  N5  UNL     1      23.955  14.959  24.285  1.00  0.00    -0.102 NA
HETATM   27  C9  UNL     1      23.040  13.122  22.911  1.00  0.00     0.027 A 
HETATM   28  C10 UNL     1      22.950  11.792  22.574  1.00  0.00     0.016 A 
ENDBRANCH  20  22
ENDBRANCH  18  20
ENDBRANCH   5  18
TORSDOF 7
ENDMDL
MODEL 4
REMARK VINA RESULT: -7.440579158      1.357      1.558
REMARK  7 active torsions:
REMARK  status: ('A' for Active; 'I' for Inactive)
REMARK    1  A    between atoms: C2_2  and  C11_22 
REMARK    2  A    between atoms: N1_3  and  N2_5 
REMARK       I    between atoms: N2_5  and  C3_7 
REMARK       I    between atoms: C3_7  and  N3_9 
REMARK    3  A    between atoms: N3_9  and  N4_11 
REMARK    4  A    between atoms: N4_11  and  C4_13 
REMARK    5  A    between atoms: C4_13  and  C5_15 
REMARK    6  A    between atoms: C11_22  and  O2_23 
REMARK    7  A    between atoms: N6_25  and  O3_27 
ROOT
HETATM    1  N2  UNL     1      23.886   9.172  23.867  1.00  0.00    -0.250 N 
ATOM      2  H2  UNL     1      22.870   9.104  23.802  1.00  0.00     0.192 HD
HETATM    3  C3  UNL     1      24.727   8.049  23.636  1.00  0.00     0.353 C 
HETATM    4  O1  UNL     1      25.985   8.155  23.724  1.00  0.00    -0.244 OA
HETATM    5  N3  UNL     1      24.140   6.810  23.305  1.00  0.00    -0.249 N 
ATOM      6  H3  UNL     1      23.128   6.701  23.232  1.00  0.00     0.192 HD
ENDROOT
BRANCH   1   7
HETATM    7  N1  UNL     1      24.515  10.358  24.182  1.00  0.00    -0.297 N 
HETATM    8  C2  UNL     1      24.153  11.471  23.658  1.00  0.00     0.074 C 
HETATM    9  C1  UNL     1      23.045  11.577  22.684  1.00  0.00     0.074 C 
ATOM     10  H1  UNL     1      25.287  10.349  24.849  1.00  0.00     0.187 HD
BRANCH   8  11
HETATM   11  C11 UNL     1      24.873  12.711  24.053  1.00  0.00     0.184 C 
HETATM   12  N6  UNL     1      25.771  13.264  23.394  1.00  0.00    -0.246 N 
ATOM     13  H6  UNL     1      26.178  14.113  23.787  1.00  0.00     0.196 HD
BRANCH  11  14
HETATM   14  O2  UNL     1      24.508  13.314  25.286  1.00  0.00    -0.343 OA
ATOM     15  H2  UNL     1      24.586  14.258  25.350  1.00  0.00     0.219 HD
ENDBRANCH  11  14
BRANCH  12  16
HETATM   16  O3  UNL     1      26.257  12.847  22.208  1.00  0.00    -0.288 OA
ATOM     17  H3  UNL     1      26.953  13.262  21.711  1.00  0.00     0.244 HD
ENDBRANCH  12  16
ENDBRANCH   8  11
ENDBRANCH   1   7
BRANCH   5  18
HETATM   18  N4  UNL     1      25.016   5.731  23.080  1.00  0.00    -0.286 N 
ATOM     19  H4  UNL     1      25.303   5.477  22.135  1.00  0.00     0.188 HD
BRANCH  18  20
HETATM   20  C4  UNL     1      25.482   5.011  24.197  1.00  0.00     0.125 C 
HETATM   21  S1  UNL     1      27.041   4.565  24.312  1.00  0.00    -0.058 SA
BRANCH  20  22
HETATM   22  C5  UNL     1      24.543   4.667  25.254  1.00  0.00     0.003 A 
HETATM   23  C6  UNL     1      23.375   3.997  24.963  1.00  0.00     0.016 A 
HETATM   24  C7  UNL     1      22.482   3.688  25.959  1.00  0.00     0.027 A 
HETATM   25  C8  UNL     1      22.714   4.032  27.280  1.00  0.00     0.046 A 
HETATM   26  N5  UNL     1      21.754   3.691  28.270  1.00  0.00    -0.102 NA
HETATM   27  C9  UNL     1      23.887   4.699  27.539  1.00  0.00     0.027 A 
HETATM   28  C10 UNL     1      24.802   5.023  26.565  1.00  0.00     0.016 A 
ENDBRANCH  20  22
ENDBRANCH  18  20
ENDBRANCH   5  18
TORSDOF 7
ENDMDL
MODEL 5
REMARK VINA RESULT: -7.398748328      1.356      1.860
REMARK  7 active torsions:
REMARK  status: ('A' for Active; 'I' for Inactive)
REMARK    1  A    between atoms: C2_2  and  C11_22 
REMARK    2  A    between atoms: N1_3  and  N2_5 
REMARK       I    between atoms: N2_5  and  C3_7 
REMARK       I    between atoms: C3_7  and  N3_9 
REMARK    3  A    between atoms: N3_9  and  N4_11 
REMARK    4  A    between atoms: N4_11  and  C4_13 
REMARK    5  A    between atoms: C4_13  and  C5_15 
REMARK    6  A    between atoms: C11_22  and  O2_23 
REMARK    7  A    between atoms: N6_25  and  O3_27 
ROOT
HETATM    1  N2  UNL     1      23.882   9.219  23.875  1.00  0.00    -0.250 N 
ATOM      2  H2  UNL     1      22.866   9.151  23.807  1.00  0.00     0.192 HD
HETATM    3  C3  UNL     1      24.723   8.098  23.640  1.00  0.00     0.353 C 
HETATM    4  O1  UNL     1      25.981   8.203  23.732  1.00  0.00    -0.244 OA
HETATM    5  N3  UNL     1      24.137   6.862  23.298  1.00  0.00    -0.249 N 
ATOM      6  H3  UNL     1      23.126   6.753  23.221  1.00  0.00     0.192 HD
ENDROOT
BRANCH   1   7
HETATM    7  N1  UNL     1      24.509  10.403  24.201  1.00  0.00    -0.297 N 
HETATM    8  C2  UNL     1      24.152  11.519  23.679  1.00  0.00     0.074 C 
HETATM    9  C1  UNL     1      23.052  11.630  22.696  1.00  0.00     0.074 C 
ATOM     10  H1  UNL     1      25.276  10.391  24.873  1.00  0.00     0.187 HD
BRANCH   8  11
HETATM   11  C11 UNL     1      24.871  12.756  24.084  1.00  0.00     0.184 C 
HETATM   12  N6  UNL     1      25.772  13.313  23.433  1.00  0.00    -0.246 N 
ATOM     13  H6  UNL     1      26.177  14.159  23.833  1.00  0.00     0.196 HD
BRANCH  11  14
HETATM   14  O2  UNL     1      24.498  13.353  25.318  1.00  0.00    -0.343 OA
ATOM     15  H2  UNL     1      23.632  13.737  25.373  1.00  0.00     0.219 HD
ENDBRANCH  11  14
BRANCH  12  16
HETATM   16  O3  UNL     1      26.264  12.902  22.247  1.00  0.00    -0.288 OA
ATOM     17  H3  UNL     1      27.183  12.846  22.012  1.00  0.00     0.244 HD
ENDBRANCH  12  16
ENDBRANCH   8  11
ENDBRANCH   1   7
BRANCH   5  18
HETATM   18  N4  UNL     1      25.014   5.784  23.069  1.00  0.00    -0.286 N 
ATOM     19  H4  UNL     1      25.317   5.546  22.124  1.00  0.00     0.188 HD
BRANCH  18  20
HETATM   20  C4  UNL     1      25.460   5.043  24.180  1.00  0.00     0.125 C 
HETATM   21  S1  UNL     1      27.010   4.569  24.301  1.00  0.00    -0.058 SA
BRANCH  20  22
HETATM   22  C5  UNL     1      24.507   4.701  25.225  1.00  0.00     0.003 A 
HETATM   23  C6  UNL     1      24.753   5.040  26.537  1.00  0.00     0.016 A 
HETATM   24  C7  UNL     1      23.860   4.701  27.524  1.00  0.00     0.027 A 
HETATM   25  C8  UNL     1      22.691   4.014  27.245  1.00  0.00     0.046 A 
HETATM   26  N5  UNL     1      21.804   3.685  28.306  1.00  0.00    -0.102 NA
HETATM   27  C9  UNL     1      22.473   3.690  25.929  1.00  0.00     0.027 A 
HETATM   28  C10 UNL     1      23.346   4.014  24.917  1.00  0.00     0.016 A 
ENDBRANCH  20  22
ENDBRANCH  18  20
ENDBRANCH   5  18
TORSDOF 7
ENDMDL
