MODEL 1
REMARK VINA RESULT: -7.583210142      0.000      0.000
REMARK  6 active torsions:
REMARK  status: ('A' for Active; 'I' for Inactive)
REMARK       I    between atoms: C2_2  and  N1_4 
REMARK       I    between atoms: N1_4  and  C3_6 
REMARK    1  A    between atoms: C3_6  and  C4_8 
REMARK    2  A    between atoms: C6_10  and  O3_11 
REMARK    3  A    between atoms: C7_13  and  O4_14 
REMARK    4  A    between atoms: C8_16  and  O5_17 
REMARK    5  A    between atoms: C9_19  and  N2_20 
REMARK       I    between atoms: N2_20  and  C10_22 
REMARK    6  A    between atoms: C10_22  and  C11_24 
ROOT
HETATM    1  C4  UNL     1      25.127   6.295  23.862  1.00  0.00     0.064 A 
HETATM    2  C5  UNL     1      26.437   6.715  23.632  1.00  0.00     0.059 A 
HETATM    3  C6  UNL     1      27.504   5.915  23.915  1.00  0.00     0.102 A 
HETATM    4  C7  UNL     1      27.275   4.649  24.446  1.00  0.00     0.134 A 
HETATM    5  C8  UNL     1      25.985   4.239  24.671  1.00  0.00     0.130 A 
HETATM    6  C9  UNL     1      24.910   5.044  24.386  1.00  0.00     0.087 A 
ENDROOT
BRANCH   1   7
HETATM    7  C3  UNL     1      24.004   7.178  23.571  1.00  0.00     0.260 C 
HETATM    8  N1  UNL     1      24.137   8.548  23.306  1.00  0.00    -0.294 N 
HETATM    9  C2  UNL     1      23.088   9.445  23.022  1.00  0.00     0.220 C 
ATOM     10  H1  UNL     1      25.083   8.931  23.320  1.00  0.00     0.172 HD
HETATM   11  C1  UNL     1      21.681   8.997  22.974  1.00  0.00     0.117 C 
HETATM   12  O1  UNL     1      23.345  10.678  22.797  1.00  0.00    -0.274 OA
HETATM   13  O2  UNL     1      22.836   6.702  23.552  1.00  0.00    -0.267 OA
ENDBRANCH   1   7
BRANCH   6  14
HETATM   14  N2  UNL     1      23.615   4.560  24.618  1.00  0.00    -0.314 N 
HETATM   15  C10 UNL     1      23.111   4.233  25.929  1.00  0.00     0.322 C 
HETATM   16  O6  UNL     1      23.849   4.380  26.934  1.00  0.00    -0.261 OA
ATOM     17  H2  UNL     1      22.996   4.431  23.817  1.00  0.00     0.169 HD
BRANCH  15  18
HETATM   18  C11 UNL     1      21.779   3.742  26.107  1.00  0.00     0.270 C 
HETATM   19  O7  UNL     1      21.041   3.350  25.141  1.00  0.00    -0.640 OA
HETATM   20  O8  UNL     1      21.195   3.658  27.362  1.00  0.00    -0.640 OA
ENDBRANCH  15  18
ENDBRANCH   6  14
BRANCH   3  21
HETATM   21  O3  UNL     1      28.818   6.326  23.689  1.00  0.00    -0.358 OA
ATOM     22  H3  UNL     1      29.391   6.595  24.398  1.00  0.00     0.217 HD
ENDBRANCH   3  21
BRANCH   5  23
HETATM   23  O5  UNL     1      25.741   2.990  25.196  1.00  0.00    -0.356 OA
ATOM     24  H5  UNL     1      25.240   2.901  25.998  1.00  0.00     0.218 HD
ENDBRANCH   5  23
BRANCH   4  25
HETATM   25  O4  UNL     1      28.376   3.879  24.716  1.00  0.00    -0.356 OA
ATOM     26  H4  UNL     1      28.299   2.946  24.559  1.00  0.00     0.218 HD
ENDBRANCH   4  25
TORSDOF 6
ENDMDL
MODEL 2
REMARK VINA RESULT: -6.629198344      1.391      4.663
REMARK  6 active torsions:
REMARK  status: ('A' for Active; 'I' for Inactive)
REMARK       I    between atoms: C2_2  and  N1_4 
REMARK       I    between atoms: N1_4  and  C3_6 
REMARK    1  A    between atoms: C3_6  and  C4_8 
REMARK    2  A    between atoms: C6_10  and  O3_11 
REMARK    3  A    between atoms: C7_13  and  O4_14 
REMARK    4  A    between atoms: C8_16  and  O5_17 
REMARK    5  A    between atoms: C9_19  and  N2_20 
REMARK       I    between atoms: N2_20  and  C10_22 
REMARK    6  A    between atoms: C10_22  and  C11_24 
ROOT
HETATM    1  C4  UNL     1      25.051   4.676  24.682  1.00  0.00     0.064 A 
HETATM    2  C5  UNL     1      26.190   3.950  25.031  1.00  0.00     0.059 A 
HETATM    3  C6  UNL     1      27.422   4.278  24.550  1.00  0.00     0.102 A 
HETATM    4  C7  UNL     1      27.542   5.365  23.689  1.00  0.00     0.134 A 
HETATM    5  C8  UNL     1      26.420   6.077  23.347  1.00  0.00     0.130 A 
HETATM    6  C9  UNL     1      25.179   5.747  23.832  1.00  0.00     0.087 A 
ENDROOT
BRANCH   1   7
HETATM    7  C3  UNL     1      23.741   4.291  25.193  1.00  0.00     0.260 C 
HETATM    8  N1  UNL     1      23.419   4.247  26.556  1.00  0.00    -0.294 N 
HETATM    9  C2  UNL     1      22.172   3.882  27.104  1.00  0.00     0.220 C 
ATOM     10  H1  UNL     1      24.155   4.504  27.214  1.00  0.00     0.172 HD
HETATM   11  C1  UNL     1      21.035   3.494  26.244  1.00  0.00     0.117 C 
HETATM   12  O1  UNL     1      22.007   3.883  28.373  1.00  0.00    -0.274 OA
HETATM   13  O2  UNL     1      22.831   3.977  24.378  1.00  0.00    -0.267 OA
ENDBRANCH   1   7
BRANCH   6  14
HETATM   14  N2  UNL     1      24.073   6.527  23.463  1.00  0.00    -0.314 N 
HETATM   15  C10 UNL     1      24.002   7.952  23.668  1.00  0.00     0.322 C 
HETATM   16  O6  UNL     1      24.965   8.553  24.204  1.00  0.00    -0.261 OA
ATOM     17  H2  UNL     1      23.278   6.062  23.026  1.00  0.00     0.169 HD
BRANCH  15  18
HETATM   18  C11 UNL     1      22.847   8.699  23.271  1.00  0.00     0.270 C 
HETATM   19  O7  UNL     1      21.690   8.176  23.126  1.00  0.00    -0.640 OA
HETATM   20  O8  UNL     1      22.912  10.060  23.016  1.00  0.00    -0.640 OA
ENDBRANCH  15  18
ENDBRANCH   6  14
BRANCH   3  21
HETATM   21  O3  UNL     1      28.567   3.558  24.894  1.00  0.00    -0.358 OA
ATOM     22  H3  UNL     1      29.124   3.814  25.619  1.00  0.00     0.217 HD
ENDBRANCH   3  21
BRANCH   5  23
HETATM   23  O5  UNL     1      26.521   7.154  22.497  1.00  0.00    -0.356 OA
ATOM     24  H5  UNL     1      25.755   7.682  22.306  1.00  0.00     0.218 HD
ENDBRANCH   5  23
BRANCH   4  25
HETATM   25  O4  UNL     1      28.799   5.658  23.229  1.00  0.00    -0.356 OA
ATOM     26  H4  UNL     1      28.996   6.573  23.065  1.00  0.00     0.218 HD
ENDBRANCH   4  25
TORSDOF 6
ENDMDL
MODEL 3
REMARK VINA RESULT: -4.466754078      6.316      9.798
REMARK  6 active torsions:
REMARK  status: ('A' for Active; 'I' for Inactive)
REMARK       I    between atoms: C2_2  and  N1_4 
REMARK       I    between atoms: N1_4  and  C3_6 
REMARK    1  A    between atoms: C3_6  and  C4_8 
REMARK    2  A    between atoms: C6_10  and  O3_11 
REMARK    3  A    between atoms: C7_13  and  O4_14 
REMARK    4  A    between atoms: C8_16  and  O5_17 
REMARK    5  A    between atoms: C9_19  and  N2_20 
REMARK       I    between atoms: N2_20  and  C10_22 
REMARK    6  A    between atoms: C10_22  and  C11_24 
ROOT
HETATM    1  C4  UNL     1      25.841  13.758  24.607  1.00  0.00     0.064 A 
HETATM    2  C5  UNL     1      26.029  13.447  25.954  1.00  0.00     0.059 A 
HETATM    3  C6  UNL     1      27.090  13.933  26.657  1.00  0.00     0.102 A 
HETATM    4  C7  UNL     1      28.006  14.760  26.012  1.00  0.00     0.134 A 
HETATM    5  C8  UNL     1      27.817  15.063  24.687  1.00  0.00     0.130 A 
HETATM    6  C9  UNL     1      26.749  14.575  23.978  1.00  0.00     0.087 A 
ENDROOT
BRANCH   1   7
HETATM    7  C3  UNL     1      24.709  13.208  23.870  1.00  0.00     0.260 C 
HETATM    8  N1  UNL     1      24.502  11.837  23.670  1.00  0.00    -0.294 N 
HETATM    9  C2  UNL     1      23.429  11.253  22.966  1.00  0.00     0.220 C 
ATOM     10  H1  UNL     1      25.192  11.202  24.071  1.00  0.00     0.172 HD
HETATM   11  C1  UNL     1      22.373  12.079  22.345  1.00  0.00     0.117 C 
HETATM   12  O1  UNL     1      23.356   9.980  22.854  1.00  0.00    -0.274 OA
HETATM   13  O2  UNL     1      23.856  13.995  23.377  1.00  0.00    -0.267 OA
ENDBRANCH   1   7
BRANCH   6  14
HETATM   14  N2  UNL     1      26.600  14.940  22.632  1.00  0.00    -0.314 N 
HETATM   15  C10 UNL     1      27.429  14.422  21.572  1.00  0.00     0.322 C 
HETATM   16  O6  UNL     1      28.340  13.601  21.839  1.00  0.00    -0.261 OA
ATOM     17  H2  UNL     1      25.866  15.606  22.391  1.00  0.00     0.169 HD
BRANCH  15  18
HETATM   18  C11 UNL     1      27.231  14.829  20.214  1.00  0.00     0.270 C 
HETATM   19  O7  UNL     1      26.091  15.159  19.741  1.00  0.00    -0.640 OA
HETATM   20  O8  UNL     1      28.282  14.893  19.313  1.00  0.00    -0.640 OA
ENDBRANCH  15  18
ENDBRANCH   6  14
BRANCH   3  21
HETATM   21  O3  UNL     1      27.288  13.628  28.005  1.00  0.00    -0.358 OA
ATOM     22  H3  UNL     1      26.730  13.981  28.688  1.00  0.00     0.217 HD
ENDBRANCH   3  21
BRANCH   5  23
HETATM   23  O5  UNL     1      28.713  15.879  24.035  1.00  0.00    -0.356 OA
ATOM     24  H5  UNL     1      28.829  15.802  23.095  1.00  0.00     0.218 HD
ENDBRANCH   5  23
BRANCH   4  25
HETATM   25  O4  UNL     1      29.057  15.224  26.758  1.00  0.00    -0.356 OA
ATOM     26  H4  UNL     1      28.930  16.044  27.220  1.00  0.00     0.218 HD
ENDBRANCH   4  25
TORSDOF 6
ENDMDL
MODEL 4
REMARK VINA RESULT: -4.359826034      7.744      9.653
REMARK  6 active torsions:
REMARK  status: ('A' for Active; 'I' for Inactive)
REMARK       I    between atoms: C2_2  and  N1_4 
REMARK       I    between atoms: N1_4  and  C3_6 
REMARK    1  A    between atoms: C3_6  and  C4_8 
REMARK    2  A    between atoms: C6_10  and  O3_11 
REMARK    3  A    between atoms: C7_13  and  O4_14 
REMARK    4  A    between atoms: C8_16  and  O5_17 
REMARK    5  A    between atoms: C9_19  and  N2_20 
REMARK       I    between atoms: N2_20  and  C10_22 
REMARK    6  A    between atoms: C10_22  and  C11_24 
ROOT
HETATM    1  C4  UNL     1      27.949  14.926  24.356  1.00  0.00     0.064 A 
HETATM    2  C5  UNL     1      28.912  15.122  25.345  1.00  0.00     0.059 A 
HETATM    3  C6  UNL     1      28.619  14.964  26.667  1.00  0.00     0.102 A 
HETATM    4  C7  UNL     1      27.327  14.599  27.033  1.00  0.00     0.134 A 
HETATM    5  C8  UNL     1      26.382  14.407  26.057  1.00  0.00     0.130 A 
HETATM    6  C9  UNL     1      26.676  14.564  24.725  1.00  0.00     0.087 A 
ENDROOT
BRANCH   1   7
HETATM    7  C3  UNL     1      28.281  15.121  22.949  1.00  0.00     0.260 C 
HETATM    8  N1  UNL     1      27.333  15.405  21.957  1.00  0.00    -0.294 N 
HETATM    9  C2  UNL     1      27.599  15.600  20.586  1.00  0.00     0.220 C 
ATOM     10  H1  UNL     1      26.360  15.477  22.254  1.00  0.00     0.172 HD
HETATM   11  C1  UNL     1      28.972  15.520  20.047  1.00  0.00     0.117 C 
HETATM   12  O1  UNL     1      26.638  15.854  19.779  1.00  0.00    -0.274 OA
HETATM   13  O2  UNL     1      29.485  15.034  22.584  1.00  0.00    -0.267 OA
ENDBRANCH   1   7
BRANCH   6  14
HETATM   14  N2  UNL     1      25.673  14.333  23.773  1.00  0.00    -0.314 N 
HETATM   15  C10 UNL     1      25.219  13.016  23.402  1.00  0.00     0.322 C 
HETATM   16  O6  UNL     1      25.730  12.005  23.944  1.00  0.00    -0.261 OA
ATOM     17  H2  UNL     1      25.242  15.138  23.319  1.00  0.00     0.169 HD
BRANCH  15  18
HETATM   18  C11 UNL     1      24.190  12.838  22.423  1.00  0.00     0.270 C 
HETATM   19  O7  UNL     1      24.401  12.905  21.165  1.00  0.00    -0.640 OA
HETATM   20  O8  UNL     1      22.878  12.575  22.785  1.00  0.00    -0.640 OA
ENDBRANCH  15  18
ENDBRANCH   6  14
BRANCH   3  21
HETATM   21  O3  UNL     1      29.575  15.158  27.665  1.00  0.00    -0.358 OA
ATOM     22  H3  UNL     1      29.401  14.953  28.577  1.00  0.00     0.217 HD
ENDBRANCH   3  21
BRANCH   5  23
HETATM   23  O5  UNL     1      25.100  14.045  26.401  1.00  0.00    -0.356 OA
ATOM     24  H5  UNL     1      24.682  13.308  25.972  1.00  0.00     0.218 HD
ENDBRANCH   5  23
BRANCH   4  25
HETATM   25  O4  UNL     1      27.077  14.453  28.372  1.00  0.00    -0.356 OA
ATOM     26  H4  UNL     1      27.256  15.202  28.929  1.00  0.00     0.218 HD
ENDBRANCH   4  25
TORSDOF 6
ENDMDL
MODEL 5
REMARK VINA RESULT: -4.328529794      7.821      9.906
REMARK  6 active torsions:
REMARK  status: ('A' for Active; 'I' for Inactive)
REMARK       I    between atoms: C2_2  and  N1_4 
REMARK       I    between atoms: N1_4  and  C3_6 
REMARK    1  A    between atoms: C3_6  and  C4_8 
REMARK    2  A    between atoms: C6_10  and  O3_11 
REMARK    3  A    between atoms: C7_13  and  O4_14 
REMARK    4  A    between atoms: C8_16  and  O5_17 
REMARK    5  A    between atoms: C9_19  and  N2_20 
REMARK       I    between atoms: N2_20  and  C10_22 
REMARK    6  A    between atoms: C10_22  and  C11_24 
ROOT
HETATM    1  C4  UNL     1      27.527  14.641  22.900  1.00  0.00     0.064 A 
HETATM    2  C5  UNL     1      28.149  14.420  21.671  1.00  0.00     0.059 A 
HETATM    3  C6  UNL     1      29.489  14.601  21.506  1.00  0.00     0.102 A 
HETATM    4  C7  UNL     1      30.253  15.016  22.593  1.00  0.00     0.134 A 
HETATM    5  C8  UNL     1      29.638  15.233  23.801  1.00  0.00     0.130 A 
HETATM    6  C9  UNL     1      28.288  15.051  23.968  1.00  0.00     0.087 A 
ENDROOT
BRANCH   1   7
HETATM    7  C3  UNL     1      26.087  14.462  23.045  1.00  0.00     0.260 C 
HETATM    8  N1  UNL     1      25.420  13.262  22.765  1.00  0.00    -0.294 N 
HETATM    9  C2  UNL     1      24.034  13.035  22.886  1.00  0.00     0.220 C 
ATOM     10  H1  UNL     1      25.990  12.479  22.444  1.00  0.00     0.172 HD
HETATM   11  C1  UNL     1      23.114  14.097  23.344  1.00  0.00     0.117 C 
HETATM   12  O1  UNL     1      23.546  11.887  22.597  1.00  0.00    -0.274 OA
HETATM   13  O2  UNL     1      25.385  15.429  23.445  1.00  0.00    -0.267 OA
ENDBRANCH   1   7
BRANCH   6  14
HETATM   14  N2  UNL     1      27.722  15.267  25.232  1.00  0.00    -0.314 N 
HETATM   15  C10 UNL     1      27.961  14.411  26.368  1.00  0.00     0.322 C 
HETATM   16  O6  UNL     1      28.711  13.412  26.247  1.00  0.00    -0.261 OA
ATOM     17  H2  UNL     1      27.108  16.073  25.355  1.00  0.00     0.169 HD
BRANCH  15  18
HETATM   18  C11 UNL     1      27.356  14.681  27.637  1.00  0.00     0.270 C 
HETATM   19  O7  UNL     1      27.051  15.857  28.031  1.00  0.00    -0.640 OA
HETATM   20  O8  UNL     1      27.058  13.666  28.532  1.00  0.00    -0.640 OA
ENDBRANCH  15  18
ENDBRANCH   6  14
BRANCH   3  21
HETATM   21  O3  UNL     1      30.121  14.382  20.281  1.00  0.00    -0.358 OA
ATOM     22  H3  UNL     1      29.631  14.211  19.485  1.00  0.00     0.217 HD
ENDBRANCH   3  21
BRANCH   5  23
HETATM   23  O5  UNL     1      30.378  15.644  24.886  1.00  0.00    -0.356 OA
ATOM     24  H5  UNL     1      30.446  16.569  25.092  1.00  0.00     0.218 HD
ENDBRANCH   5  23
BRANCH   4  25
HETATM   25  O4  UNL     1      31.596  15.186  22.382  1.00  0.00    -0.356 OA
ATOM     26  H4  UNL     1      32.051  15.787  22.961  1.00  0.00     0.218 HD
ENDBRANCH   4  25
TORSDOF 6
ENDMDL
