MODEL 1
REMARK VINA RESULT: -8.097446704      0.000      0.000
REMARK  21 active torsions:
REMARK  status: ('A' for Active; 'I' for Inactive)
REMARK    1  A    between atoms: C2_2  and  C3_3 
REMARK    2  A    between atoms: C3_3  and  C4_4 
REMARK    3  A    between atoms: C4_4  and  N1_5 
REMARK    4  A    between atoms: N1_5  and  C5_6 
REMARK    5  A    between atoms: C5_6  and  O1_7 
REMARK    6  A    between atoms: C5_6  and  O2_9 
REMARK    7  A    between atoms: O2_9  and  C6_10 
REMARK    8  A    between atoms: C6_10  and  C7_11 
REMARK    9  A    between atoms: C8_13  and  O4_14 
REMARK   10  A    between atoms: O4_14  and  C9_15 
REMARK   11  A    between atoms: C9_15  and  C10_16 
REMARK   12  A    between atoms: C10_16  and  C11_17 
REMARK   13  A    between atoms: C11_17  and  S1_18 
REMARK   14  A    between atoms: S1_18  and  C12_20 
REMARK   15  A    between atoms: C12_20  and  N2_21 
REMARK   16  A    between atoms: N2_21  and  C13_24 
REMARK   17  A    between atoms: C13_24  and  O6_25 
REMARK   18  A    between atoms: C13_24  and  O7_27 
REMARK   19  A    between atoms: O7_27  and  C14_28 
REMARK   20  A    between atoms: C29_44  and  O9_45 
REMARK   21  A    between atoms: O9_45  and  C30_46 
REMARK       I    between atoms: C30_46  and  N3_48 
ROOT
HETATM    1  C9  UNL     1      -9.191  14.883  29.075  1.00  0.00     0.174 C 
ENDROOT
BRANCH   1   2
HETATM    2  O4  UNL     1      -9.840  16.119  29.063  1.00  0.00    -0.339 OA
BRANCH   2   3
HETATM    3  C8  UNL     1     -10.257  16.426  30.367  1.00  0.00     0.413 C 
HETATM    4  O3  UNL     1     -10.593  15.068  30.905  1.00  0.00    -0.329 OA
HETATM    5  C7  UNL     1     -11.764  15.388  31.700  1.00  0.00     0.183 C 
HETATM    6  C29 UNL     1     -10.995  15.941  32.939  1.00  0.00     0.193 C 
HETATM    7  C27 UNL     1      -9.619  16.432  32.572  1.00  0.00     0.155 C 
HETATM    8  O8  UNL     1      -9.401  16.860  31.272  1.00  0.00    -0.331 OA
HETATM    9  C28 UNL     1      -8.550  15.490  33.096  1.00  0.00     0.042 C 
BRANCH   5  10
HETATM   10  C6  UNL     1     -12.445  14.108  31.949  1.00  0.00     0.215 C 
BRANCH  10  11
HETATM   11  O2  UNL     1     -13.268  13.598  30.932  1.00  0.00    -0.303 OA
BRANCH  11  12
HETATM   12  C5  UNL     1     -12.677  12.722  29.967  1.00  0.00     0.340 C 
BRANCH  12  13
HETATM   13  N1  UNL     1     -12.279  12.855  28.691  1.00  0.00    -0.376 NA
BRANCH  13  14
HETATM   14  C4  UNL     1     -11.891  12.968  27.447  1.00  0.00     0.160 C 
BRANCH  14  15
HETATM   15  C3  UNL     1     -11.938  14.293  26.694  1.00  0.00     0.059 C 
BRANCH  15  16
HETATM   16  C2  UNL     1     -12.549  15.364  27.578  1.00  0.00     0.002 C 
HETATM   17  C1  UNL     1     -13.978  15.605  27.152  1.00  0.00     0.005 C 
ENDBRANCH  15  16
ENDBRANCH  14  15
ENDBRANCH  13  14
ENDBRANCH  12  13
BRANCH  12  18
HETATM   18  O1  UNL     1     -12.559  11.531  30.629  1.00  0.00    -0.316 OA
ATOM     19  H1  UNL     1     -11.769  11.009  30.572  1.00  0.00     0.222 HD
ENDBRANCH  12  18
ENDBRANCH  11  12
ENDBRANCH  10  11
ENDBRANCH   5  10
BRANCH   6  20
HETATM   20  O9  UNL     1     -10.761  14.730  33.685  1.00  0.00    -0.293 OA
BRANCH  20  21
HETATM   21  C30 UNL     1     -11.215  14.511  34.985  1.00  0.00     0.360 C 
HETATM   22  O10 UNL     1     -11.773  15.416  35.601  1.00  0.00    -0.239 OA
HETATM   23  N3  UNL     1     -10.992  13.178  35.492  1.00  0.00    -0.341 N 
HETATM   24  C31 UNL     1     -11.608  12.712  36.750  1.00  0.00     0.151 C 
ATOM     25  H3  UNL     1     -10.395  12.541  34.967  1.00  0.00     0.164 HD
ENDBRANCH  20  21
ENDBRANCH   6  20
ENDBRANCH   2   3
ENDBRANCH   1   2
BRANCH   1  26
HETATM   26  C10 UNL     1      -8.020  15.001  28.073  1.00  0.00     0.039 C 
BRANCH  26  27
HETATM   27  C11 UNL     1      -7.079  16.033  28.602  1.00  0.00     0.112 C 
BRANCH  27  28
HETATM   28  S1  UNL     1      -6.202  17.101  27.582  1.00  0.00     0.041 S 
HETATM   29  O5  UNL     1      -5.029  16.527  26.856  1.00  0.00    -0.256 OA
BRANCH  28  30
HETATM   30  C12 UNL     1      -6.953  18.532  26.911  1.00  0.00     0.346 C 
BRANCH  30  31
HETATM   31  N2  UNL     1      -8.371  18.606  27.326  1.00  0.00    -0.014 N 
ATOM     32  H22 UNL     1      -8.513  18.104  28.202  1.00  0.00     0.284 HD
ATOM     33  H21 UNL     1      -8.605  19.552  27.626  1.00  0.00     0.284 HD
BRANCH  31  34
HETATM   34  C13 UNL     1      -9.292  18.156  26.341  1.00  0.00     0.468 C 
BRANCH  34  35
HETATM   35  O6  UNL     1     -10.509  17.929  26.741  1.00  0.00    -0.350 OA
ATOM     36  H6  UNL     1     -10.998  17.268  26.264  1.00  0.00     0.214 HD
ENDBRANCH  34  35
BRANCH  34  37
HETATM   37  O7  UNL     1      -9.055  17.920  25.007  1.00  0.00    -0.333 OA
BRANCH  37  38
HETATM   38  C14 UNL     1      -9.128  16.564  24.550  1.00  0.00     0.131 C 
HETATM   39  C15 UNL     1     -10.088  16.394  23.430  1.00  0.00     0.037 C 
HETATM   40  C16 UNL     1      -9.464  16.047  22.094  1.00  0.00    -0.011 C 
HETATM   41  C17 UNL     1      -8.687  14.741  22.227  1.00  0.00     0.005 C 
HETATM   42  C26 UNL     1      -8.710  17.146  21.445  1.00  0.00     0.014 C 
HETATM   43  C18 UNL     1      -7.842  14.788  23.479  1.00  0.00     0.008 C 
HETATM   44  C19 UNL     1      -7.721  16.138  24.062  1.00  0.00     0.019 C 
HETATM   45  C20 UNL     1      -7.121  17.232  23.348  1.00  0.00     0.000 C 
HETATM   46  C21 UNL     1      -5.681  17.575  23.506  1.00  0.00     0.006 C 
HETATM   47  C24 UNL     1      -7.293  17.328  21.867  1.00  0.00    -0.040 C 
HETATM   48  C22 UNL     1      -5.542  18.754  22.556  1.00  0.00     0.001 C 
HETATM   49  C23 UNL     1      -6.837  18.814  21.745  1.00  0.00     0.009 C 
HETATM   50  C25 UNL     1      -6.301  16.620  21.016  1.00  0.00     0.015 C 
ENDBRANCH  37  38
ENDBRANCH  34  37
ENDBRANCH  31  34
ENDBRANCH  30  31
ENDBRANCH  28  30
ENDBRANCH  27  28
ENDBRANCH  26  27
ENDBRANCH   1  26
TORSDOF 21
ENDMDL
MODEL 2
REMARK VINA RESULT: -7.919339695      1.666      2.560
REMARK  21 active torsions:
REMARK  status: ('A' for Active; 'I' for Inactive)
REMARK    1  A    between atoms: C2_2  and  C3_3 
REMARK    2  A    between atoms: C3_3  and  C4_4 
REMARK    3  A    between atoms: C4_4  and  N1_5 
REMARK    4  A    between atoms: N1_5  and  C5_6 
REMARK    5  A    between atoms: C5_6  and  O1_7 
REMARK    6  A    between atoms: C5_6  and  O2_9 
REMARK    7  A    between atoms: O2_9  and  C6_10 
REMARK    8  A    between atoms: C6_10  and  C7_11 
REMARK    9  A    between atoms: C8_13  and  O4_14 
REMARK   10  A    between atoms: O4_14  and  C9_15 
REMARK   11  A    between atoms: C9_15  and  C10_16 
REMARK   12  A    between atoms: C10_16  and  C11_17 
REMARK   13  A    between atoms: C11_17  and  S1_18 
REMARK   14  A    between atoms: S1_18  and  C12_20 
REMARK   15  A    between atoms: C12_20  and  N2_21 
REMARK   16  A    between atoms: N2_21  and  C13_24 
REMARK   17  A    between atoms: C13_24  and  O6_25 
REMARK   18  A    between atoms: C13_24  and  O7_27 
REMARK   19  A    between atoms: O7_27  and  C14_28 
REMARK   20  A    between atoms: C29_44  and  O9_45 
REMARK   21  A    between atoms: O9_45  and  C30_46 
REMARK       I    between atoms: C30_46  and  N3_48 
ROOT
HETATM    1  C9  UNL     1      -9.677  15.000  28.531  1.00  0.00     0.174 C 
ENDROOT
BRANCH   1   2
HETATM    2  O4  UNL     1      -9.954  16.335  28.830  1.00  0.00    -0.339 OA
BRANCH   2   3
HETATM    3  C8  UNL     1     -10.331  16.430  30.178  1.00  0.00     0.413 C 
HETATM    4  O3  UNL     1     -10.677  15.007  30.496  1.00  0.00    -0.329 OA
HETATM    5  C7  UNL     1     -11.821  15.208  31.366  1.00  0.00     0.183 C 
HETATM    6  C29 UNL     1     -11.010  15.540  32.656  1.00  0.00     0.193 C 
HETATM    7  C27 UNL     1      -9.636  16.066  32.334  1.00  0.00     0.155 C 
HETATM    8  O8  UNL     1      -9.444  16.698  31.116  1.00  0.00    -0.331 OA
HETATM    9  C28 UNL     1      -8.571  15.037  32.667  1.00  0.00     0.042 C 
BRANCH   5  10
HETATM   10  C6  UNL     1     -12.518  13.914  31.423  1.00  0.00     0.215 C 
BRANCH  10  11
HETATM   11  O2  UNL     1     -13.719  13.851  32.148  1.00  0.00    -0.303 OA
BRANCH  11  12
HETATM   12  C5  UNL     1     -14.017  12.641  32.851  1.00  0.00     0.340 C 
BRANCH  12  13
HETATM   13  N1  UNL     1     -13.607  11.366  32.749  1.00  0.00    -0.376 NA
BRANCH  13  14
HETATM   14  C4  UNL     1     -13.193  10.129  32.652  1.00  0.00     0.160 C 
BRANCH  14  15
HETATM   15  C3  UNL     1     -13.109   9.398  31.317  1.00  0.00     0.059 C 
BRANCH  15  16
HETATM   16  C2  UNL     1     -12.731   7.947  31.550  1.00  0.00     0.002 C 
HETATM   17  C1  UNL     1     -11.597   7.573  30.624  1.00  0.00     0.005 C 
ENDBRANCH  15  16
ENDBRANCH  14  15
ENDBRANCH  13  14
ENDBRANCH  12  13
BRANCH  12  18
HETATM   18  O1  UNL     1     -14.932  13.022  33.794  1.00  0.00    -0.316 OA
ATOM     19  H1  UNL     1     -15.358  12.386  34.354  1.00  0.00     0.222 HD
ENDBRANCH  12  18
ENDBRANCH  11  12
ENDBRANCH  10  11
ENDBRANCH   5  10
BRANCH   6  20
HETATM   20  O9  UNL     1     -10.778  14.220  33.187  1.00  0.00    -0.293 OA
BRANCH  20  21
HETATM   21  C30 UNL     1     -11.030  13.853  34.508  1.00  0.00     0.360 C 
HETATM   22  O10 UNL     1     -11.134  14.716  35.376  1.00  0.00    -0.239 OA
HETATM   23  N3  UNL     1     -11.170  12.434  34.730  1.00  0.00    -0.341 N 
HETATM   24  C31 UNL     1     -11.661  11.892  36.013  1.00  0.00     0.151 C 
ATOM     25  H3  UNL     1     -10.924  11.788  33.981  1.00  0.00     0.164 HD
ENDBRANCH  20  21
ENDBRANCH   6  20
ENDBRANCH   2   3
ENDBRANCH   1   2
BRANCH   1  26
HETATM   26  C10 UNL     1      -8.344  15.001  27.748  1.00  0.00     0.039 C 
BRANCH  26  27
HETATM   27  C11 UNL     1      -7.371  15.830  28.521  1.00  0.00     0.112 C 
BRANCH  27  28
HETATM   28  S1  UNL     1      -6.273  16.916  27.771  1.00  0.00     0.041 S 
HETATM   29  O5  UNL     1      -4.990  16.336  27.268  1.00  0.00    -0.256 OA
BRANCH  28  30
HETATM   30  C12 UNL     1      -6.828  18.409  27.048  1.00  0.00     0.346 C 
BRANCH  30  31
HETATM   31  N2  UNL     1      -8.232  18.670  27.433  1.00  0.00    -0.014 N 
ATOM     32  H22 UNL     1      -8.469  18.160  28.283  1.00  0.00     0.284 HD
ATOM     33  H21 UNL     1      -8.337  19.628  27.769  1.00  0.00     0.284 HD
BRANCH  31  34
HETATM   34  C13 UNL     1      -9.179  18.397  26.409  1.00  0.00     0.468 C 
BRANCH  34  35
HETATM   35  O6  UNL     1     -10.434  18.420  26.754  1.00  0.00    -0.350 OA
ATOM     36  H6  UNL     1     -10.998  17.771  26.350  1.00  0.00     0.214 HD
ENDBRANCH  34  35
BRANCH  34  37
HETATM   37  O7  UNL     1      -8.936  18.101  25.088  1.00  0.00    -0.333 OA
BRANCH  37  38
HETATM   38  C14 UNL     1      -9.061  16.734  24.681  1.00  0.00     0.131 C 
HETATM   39  C15 UNL     1     -10.049  16.557  23.587  1.00  0.00     0.037 C 
HETATM   40  C16 UNL     1      -9.465  16.143  22.251  1.00  0.00    -0.011 C 
HETATM   41  C17 UNL     1      -8.727  14.818  22.416  1.00  0.00     0.005 C 
HETATM   42  C26 UNL     1      -8.689  17.194  21.550  1.00  0.00     0.014 C 
HETATM   43  C18 UNL     1      -7.855  14.880  23.648  1.00  0.00     0.008 C 
HETATM   44  C19 UNL     1      -7.679  16.244  24.180  1.00  0.00     0.019 C 
HETATM   45  C20 UNL     1      -7.059  17.294  23.417  1.00  0.00     0.000 C 
HETATM   46  C21 UNL     1      -5.606  17.595  23.535  1.00  0.00     0.006 C 
HETATM   47  C24 UNL     1      -7.258  17.344  21.938  1.00  0.00    -0.040 C 
HETATM   48  C22 UNL     1      -5.449  18.734  22.541  1.00  0.00     0.001 C 
HETATM   49  C23 UNL     1      -6.758  18.809  21.754  1.00  0.00     0.009 C 
HETATM   50  C25 UNL     1      -6.307  16.575  21.092  1.00  0.00     0.015 C 
ENDBRANCH  37  38
ENDBRANCH  34  37
ENDBRANCH  31  34
ENDBRANCH  30  31
ENDBRANCH  28  30
ENDBRANCH  27  28
ENDBRANCH  26  27
ENDBRANCH   1  26
TORSDOF 21
ENDMDL
MODEL 3
REMARK VINA RESULT: -7.917127220      3.267     11.114
REMARK  21 active torsions:
REMARK  status: ('A' for Active; 'I' for Inactive)
REMARK    1  A    between atoms: C2_2  and  C3_3 
REMARK    2  A    between atoms: C3_3  and  C4_4 
REMARK    3  A    between atoms: C4_4  and  N1_5 
REMARK    4  A    between atoms: N1_5  and  C5_6 
REMARK    5  A    between atoms: C5_6  and  O1_7 
REMARK    6  A    between atoms: C5_6  and  O2_9 
REMARK    7  A    between atoms: O2_9  and  C6_10 
REMARK    8  A    between atoms: C6_10  and  C7_11 
REMARK    9  A    between atoms: C8_13  and  O4_14 
REMARK   10  A    between atoms: O4_14  and  C9_15 
REMARK   11  A    between atoms: C9_15  and  C10_16 
REMARK   12  A    between atoms: C10_16  and  C11_17 
REMARK   13  A    between atoms: C11_17  and  S1_18 
REMARK   14  A    between atoms: S1_18  and  C12_20 
REMARK   15  A    between atoms: C12_20  and  N2_21 
REMARK   16  A    between atoms: N2_21  and  C13_24 
REMARK   17  A    between atoms: C13_24  and  O6_25 
REMARK   18  A    between atoms: C13_24  and  O7_27 
REMARK   19  A    between atoms: O7_27  and  C14_28 
REMARK   20  A    between atoms: C29_44  and  O9_45 
REMARK   21  A    between atoms: O9_45  and  C30_46 
REMARK       I    between atoms: C30_46  and  N3_48 
ROOT
HETATM    1  C9  UNL     1      -9.319  16.548  23.236  1.00  0.00     0.174 C 
ENDROOT
BRANCH   1   2
HETATM    2  O4  UNL     1      -8.173  17.326  23.409  1.00  0.00    -0.339 OA
BRANCH   2   3
HETATM    3  C8  UNL     1      -7.811  17.886  22.174  1.00  0.00     0.413 C 
HETATM    4  O3  UNL     1      -6.607  17.069  21.814  1.00  0.00    -0.329 OA
HETATM    5  C7  UNL     1      -5.776  18.090  21.205  1.00  0.00     0.183 C 
HETATM    6  C29 UNL     1      -6.478  18.090  19.813  1.00  0.00     0.193 C 
HETATM    7  C27 UNL     1      -7.895  17.586  19.900  1.00  0.00     0.155 C 
HETATM    8  O8  UNL     1      -8.566  17.722  21.106  1.00  0.00    -0.331 OA
HETATM    9  C28 UNL     1      -8.019  16.206  19.281  1.00  0.00     0.042 C 
BRANCH   5  10
HETATM   10  C6  UNL     1      -4.412  17.540  21.180  1.00  0.00     0.215 C 
BRANCH  10  11
HETATM   11  O2  UNL     1      -3.532  17.931  22.202  1.00  0.00    -0.303 OA
BRANCH  11  12
HETATM   12  C5  UNL     1      -3.930  17.699  23.557  1.00  0.00     0.340 C 
BRANCH  12  13
HETATM   13  N1  UNL     1      -4.721  18.342  24.431  1.00  0.00    -0.376 NA
BRANCH  13  14
HETATM   14  C4  UNL     1      -5.486  18.957  25.294  1.00  0.00     0.160 C 
BRANCH  14  15
HETATM   15  C3  UNL     1      -6.414  18.207  26.243  1.00  0.00     0.059 C 
BRANCH  15  16
HETATM   16  C2  UNL     1      -5.675  17.037  26.864  1.00  0.00     0.002 C 
HETATM   17  C1  UNL     1      -6.280  16.724  28.212  1.00  0.00     0.005 C 
ENDBRANCH  15  16
ENDBRANCH  14  15
ENDBRANCH  13  14
ENDBRANCH  12  13
BRANCH  12  18
HETATM   18  O1  UNL     1      -3.282  16.543  23.898  1.00  0.00    -0.316 OA
ATOM     19  H1  UNL     1      -2.492  16.556  24.425  1.00  0.00     0.222 HD
ENDBRANCH  12  18
ENDBRANCH  11  12
ENDBRANCH  10  11
ENDBRANCH   5  10
BRANCH   6  20
HETATM   20  O9  UNL     1      -5.760  17.037  19.139  1.00  0.00    -0.293 OA
BRANCH  20  21
HETATM   21  C30 UNL     1      -5.130  17.186  17.905  1.00  0.00     0.360 C 
HETATM   22  O10 UNL     1      -4.455  16.269  17.444  1.00  0.00    -0.239 OA
HETATM   23  N3  UNL     1      -5.362  18.453  17.252  1.00  0.00    -0.341 N 
HETATM   24  C31 UNL     1      -4.964  18.689  15.850  1.00  0.00     0.151 C 
ATOM     25  H3  UNL     1      -5.813  19.204  17.772  1.00  0.00     0.164 HD
ENDBRANCH  20  21
ENDBRANCH   6  20
ENDBRANCH   2   3
ENDBRANCH   1   2
BRANCH   1  26
HETATM   26  C10 UNL     1      -8.894  15.087  23.504  1.00  0.00     0.039 C 
BRANCH  26  27
HETATM   27  C11 UNL     1      -8.185  15.061  24.818  1.00  0.00     0.112 C 
BRANCH  27  28
HETATM   28  S1  UNL     1      -8.988  14.730  26.300  1.00  0.00     0.041 S 
HETATM   29  O5  UNL     1      -8.201  14.003  27.344  1.00  0.00    -0.256 OA
BRANCH  28  30
HETATM   30  C12 UNL     1     -10.343  15.699  26.832  1.00  0.00     0.346 C 
BRANCH  30  31
HETATM   31  N2  UNL     1      -9.860  16.925  27.505  1.00  0.00    -0.014 N 
ATOM     32  H22 UNL     1      -8.915  16.786  27.863  1.00  0.00     0.284 HD
ATOM     33  H21 UNL     1      -9.682  17.660  26.821  1.00  0.00     0.284 HD
BRANCH  31  34
HETATM   34  C13 UNL     1     -10.716  17.402  28.535  1.00  0.00     0.468 C 
BRANCH  34  35
HETATM   35  O6  UNL     1     -11.568  18.328  28.203  1.00  0.00    -0.350 OA
ATOM     36  H6  UNL     1     -12.395  18.036  27.841  1.00  0.00     0.214 HD
ENDBRANCH  34  35
BRANCH  34  37
HETATM   37  O7  UNL     1     -10.754  17.010  29.852  1.00  0.00    -0.333 OA
BRANCH  37  38
HETATM   38  C14 UNL     1      -9.615  16.314  30.371  1.00  0.00     0.131 C 
HETATM   39  C15 UNL     1      -9.078  16.942  31.604  1.00  0.00     0.037 C 
HETATM   40  C16 UNL     1      -9.244  16.125  32.869  1.00  0.00    -0.011 C 
HETATM   41  C17 UNL     1      -8.534  14.785  32.697  1.00  0.00     0.005 C 
HETATM   42  C26 UNL     1     -10.633  16.022  33.376  1.00  0.00     0.014 C 
HETATM   43  C18 UNL     1      -8.893  14.199  31.351  1.00  0.00     0.008 C 
HETATM   44  C19 UNL     1     -10.040  14.862  30.703  1.00  0.00     0.019 C 
HETATM   45  C20 UNL     1     -11.351  14.881  31.293  1.00  0.00     0.000 C 
HETATM   46  C21 UNL     1     -12.381  13.863  30.949  1.00  0.00     0.006 C 
HETATM   47  C24 UNL     1     -11.489  14.958  32.779  1.00  0.00    -0.040 C 
HETATM   48  C22 UNL     1     -13.544  14.297  31.826  1.00  0.00     0.001 C 
HETATM   49  C23 UNL     1     -12.997  15.355  32.784  1.00  0.00     0.009 C 
HETATM   50  C25 UNL     1     -11.495  13.677  33.533  1.00  0.00     0.015 C 
ENDBRANCH  37  38
ENDBRANCH  34  37
ENDBRANCH  31  34
ENDBRANCH  30  31
ENDBRANCH  28  30
ENDBRANCH  27  28
ENDBRANCH  26  27
ENDBRANCH   1  26
TORSDOF 21
ENDMDL
MODEL 4
REMARK VINA RESULT: -7.815067543      3.097     10.335
REMARK  21 active torsions:
REMARK  status: ('A' for Active; 'I' for Inactive)
REMARK    1  A    between atoms: C2_2  and  C3_3 
REMARK    2  A    between atoms: C3_3  and  C4_4 
REMARK    3  A    between atoms: C4_4  and  N1_5 
REMARK    4  A    between atoms: N1_5  and  C5_6 
REMARK    5  A    between atoms: C5_6  and  O1_7 
REMARK    6  A    between atoms: C5_6  and  O2_9 
REMARK    7  A    between atoms: O2_9  and  C6_10 
REMARK    8  A    between atoms: C6_10  and  C7_11 
REMARK    9  A    between atoms: C8_13  and  O4_14 
REMARK   10  A    between atoms: O4_14  and  C9_15 
REMARK   11  A    between atoms: C9_15  and  C10_16 
REMARK   12  A    between atoms: C10_16  and  C11_17 
REMARK   13  A    between atoms: C11_17  and  S1_18 
REMARK   14  A    between atoms: S1_18  and  C12_20 
REMARK   15  A    between atoms: C12_20  and  N2_21 
REMARK   16  A    between atoms: N2_21  and  C13_24 
REMARK   17  A    between atoms: C13_24  and  O6_25 
REMARK   18  A    between atoms: C13_24  and  O7_27 
REMARK   19  A    between atoms: O7_27  and  C14_28 
REMARK   20  A    between atoms: C29_44  and  O9_45 
REMARK   21  A    between atoms: O9_45  and  C30_46 
REMARK       I    between atoms: C30_46  and  N3_48 
ROOT
HETATM    1  C9  UNL     1      -7.378  17.145  26.429  1.00  0.00     0.174 C 
ENDROOT
BRANCH   1   2
HETATM    2  O4  UNL     1      -6.054  17.578  26.517  1.00  0.00    -0.339 OA
BRANCH   2   3
HETATM    3  C8  UNL     1      -5.386  17.243  25.329  1.00  0.00     0.413 C 
HETATM    4  O3  UNL     1      -5.196  18.590  24.700  1.00  0.00    -0.329 OA
HETATM    5  C7  UNL     1      -5.414  18.255  23.305  1.00  0.00     0.183 C 
HETATM    6  C29 UNL     1      -3.992  17.674  23.034  1.00  0.00     0.193 C 
HETATM    7  C27 UNL     1      -3.335  17.189  24.300  1.00  0.00     0.155 C 
HETATM    8  O8  UNL     1      -4.148  16.789  25.349  1.00  0.00    -0.331 OA
HETATM    9  C28 UNL     1      -2.209  18.117  24.716  1.00  0.00     0.042 C 
BRANCH   5  10
HETATM   10  C6  UNL     1      -5.672  19.530  22.618  1.00  0.00     0.215 C 
BRANCH  10  11
HETATM   11  O2  UNL     1      -6.825  19.620  21.821  1.00  0.00    -0.303 OA
BRANCH  11  12
HETATM   12  C5  UNL     1      -7.085  18.559  20.896  1.00  0.00     0.340 C 
BRANCH  12  13
HETATM   13  N1  UNL     1      -8.089  17.685  20.722  1.00  0.00    -0.376 NA
BRANCH  13  14
HETATM   14  C4  UNL     1      -9.058  16.821  20.562  1.00  0.00     0.160 C 
BRANCH  14  15
HETATM   15  C3  UNL     1      -9.756  16.149  21.739  1.00  0.00     0.059 C 
BRANCH  15  16
HETATM   16  C2  UNL     1      -8.809  16.076  22.922  1.00  0.00     0.002 C 
HETATM   17  C1  UNL     1      -8.095  14.744  22.907  1.00  0.00     0.005 C 
ENDBRANCH  15  16
ENDBRANCH  14  15
ENDBRANCH  13  14
ENDBRANCH  12  13
BRANCH  12  18
HETATM   18  O1  UNL     1      -5.986  18.553  20.082  1.00  0.00    -0.316 OA
ATOM     19  H1  UNL     1      -5.826  19.253  19.461  1.00  0.00     0.222 HD
ENDBRANCH  12  18
ENDBRANCH  11  12
ENDBRANCH  10  11
ENDBRANCH   5  10
BRANCH   6  20
HETATM   20  O9  UNL     1      -3.265  18.868  22.683  1.00  0.00    -0.293 OA
BRANCH  20  21
HETATM   21  C30 UNL     1      -2.545  19.026  21.500  1.00  0.00     0.360 C 
HETATM   22  O10 UNL     1      -3.115  18.933  20.416  1.00  0.00    -0.239 OA
HETATM   23  N3  UNL     1      -1.142  19.317  21.676  1.00  0.00    -0.341 N 
HETATM   24  C31 UNL     1      -0.288  19.736  20.547  1.00  0.00     0.151 C 
ATOM     25  H3  UNL     1      -0.729  19.231  22.604  1.00  0.00     0.164 HD
ENDBRANCH  20  21
ENDBRANCH   6  20
ENDBRANCH   2   3
ENDBRANCH   1   2
BRANCH   1  26
HETATM   26  C10 UNL     1      -7.512  15.962  27.414  1.00  0.00     0.039 C 
BRANCH  26  27
HETATM   27  C11 UNL     1      -8.126  14.824  26.667  1.00  0.00     0.112 C 
BRANCH  27  28
HETATM   28  S1  UNL     1      -9.825  14.641  26.486  1.00  0.00     0.041 S 
HETATM   29  O5  UNL     1     -10.453  13.476  27.180  1.00  0.00    -0.256 OA
BRANCH  28  30
HETATM   30  C12 UNL     1     -10.847  16.007  26.103  1.00  0.00     0.346 C 
BRANCH  30  31
HETATM   31  N2  UNL     1     -11.769  16.284  27.226  1.00  0.00    -0.014 N 
ATOM     32  H22 UNL     1     -12.663  16.630  26.876  1.00  0.00     0.284 HD
ATOM     33  H21 UNL     1     -12.076  15.413  27.658  1.00  0.00     0.284 HD
BRANCH  31  34
HETATM   34  C13 UNL     1     -11.245  17.169  28.208  1.00  0.00     0.468 C 
BRANCH  34  35
HETATM   35  O6  UNL     1     -10.860  18.340  27.792  1.00  0.00    -0.350 OA
ATOM     36  H6  UNL     1     -10.108  18.721  28.229  1.00  0.00     0.214 HD
ENDBRANCH  34  35
BRANCH  34  37
HETATM   37  O7  UNL     1     -11.084  16.939  29.554  1.00  0.00    -0.333 OA
BRANCH  37  38
HETATM   38  C14 UNL     1      -9.869  16.311  29.979  1.00  0.00     0.131 C 
HETATM   39  C15 UNL     1      -9.236  17.017  31.122  1.00  0.00     0.037 C 
HETATM   40  C16 UNL     1      -9.235  16.255  32.431  1.00  0.00    -0.011 C 
HETATM   41  C17 UNL     1      -8.491  14.936  32.243  1.00  0.00     0.005 C 
HETATM   42  C26 UNL     1     -10.559  16.123  33.084  1.00  0.00     0.014 C 
HETATM   43  C18 UNL     1      -8.960  14.274  30.969  1.00  0.00     0.008 C 
HETATM   44  C19 UNL     1     -10.196  14.861  30.416  1.00  0.00     0.019 C 
HETATM   45  C20 UNL     1     -11.439  14.859  31.139  1.00  0.00     0.000 C 
HETATM   46  C21 UNL     1     -12.454  13.787  30.949  1.00  0.00     0.006 C 
HETATM   47  C24 UNL     1     -11.426  15.000  32.626  1.00  0.00    -0.040 C 
HETATM   48  C22 UNL     1     -13.538  14.217  31.923  1.00  0.00     0.001 C 
HETATM   49  C23 UNL     1     -12.941  15.340  32.772  1.00  0.00     0.009 C 
HETATM   50  C25 UNL     1     -11.300  13.757  33.431  1.00  0.00     0.015 C 
ENDBRANCH  37  38
ENDBRANCH  34  37
ENDBRANCH  31  34
ENDBRANCH  30  31
ENDBRANCH  28  30
ENDBRANCH  27  28
ENDBRANCH  26  27
ENDBRANCH   1  26
TORSDOF 21
ENDMDL
MODEL 5
REMARK VINA RESULT: -7.738070087      2.320      9.668
REMARK  21 active torsions:
REMARK  status: ('A' for Active; 'I' for Inactive)
REMARK    1  A    between atoms: C2_2  and  C3_3 
REMARK    2  A    between atoms: C3_3  and  C4_4 
REMARK    3  A    between atoms: C4_4  and  N1_5 
REMARK    4  A    between atoms: N1_5  and  C5_6 
REMARK    5  A    between atoms: C5_6  and  O1_7 
REMARK    6  A    between atoms: C5_6  and  O2_9 
REMARK    7  A    between atoms: O2_9  and  C6_10 
REMARK    8  A    between atoms: C6_10  and  C7_11 
REMARK    9  A    between atoms: C8_13  and  O4_14 
REMARK   10  A    between atoms: O4_14  and  C9_15 
REMARK   11  A    between atoms: C9_15  and  C10_16 
REMARK   12  A    between atoms: C10_16  and  C11_17 
REMARK   13  A    between atoms: C11_17  and  S1_18 
REMARK   14  A    between atoms: S1_18  and  C12_20 
REMARK   15  A    between atoms: C12_20  and  N2_21 
REMARK   16  A    between atoms: N2_21  and  C13_24 
REMARK   17  A    between atoms: C13_24  and  O6_25 
REMARK   18  A    between atoms: C13_24  and  O7_27 
REMARK   19  A    between atoms: O7_27  and  C14_28 
REMARK   20  A    between atoms: C29_44  and  O9_45 
REMARK   21  A    between atoms: O9_45  and  C30_46 
REMARK       I    between atoms: C30_46  and  N3_48 
ROOT
HETATM    1  C9  UNL     1     -10.714  17.032  27.266  1.00  0.00     0.174 C 
ENDROOT
BRANCH   1   2
HETATM    2  O4  UNL     1      -9.908  17.392  28.347  1.00  0.00    -0.339 OA
BRANCH   2   3
HETATM    3  C8  UNL     1      -8.579  17.045  28.059  1.00  0.00     0.413 C 
HETATM    4  O3  UNL     1      -8.589  17.033  26.560  1.00  0.00    -0.329 OA
HETATM    5  C7  UNL     1      -7.717  15.901  26.306  1.00  0.00     0.183 C 
HETATM    6  C29 UNL     1      -6.371  16.657  26.521  1.00  0.00     0.193 C 
HETATM    7  C27 UNL     1      -6.543  17.871  27.396  1.00  0.00     0.155 C 
HETATM    8  O8  UNL     1      -7.589  17.880  28.306  1.00  0.00    -0.331 OA
HETATM    9  C28 UNL     1      -6.425  19.147  26.583  1.00  0.00     0.042 C 
BRANCH   5  10
HETATM   10  C6  UNL     1      -7.960  15.508  24.910  1.00  0.00     0.215 C 
BRANCH  10  11
HETATM   11  O2  UNL     1      -9.075  16.064  24.260  1.00  0.00    -0.303 OA
BRANCH  11  12
HETATM   12  C5  UNL     1      -8.842  16.888  23.114  1.00  0.00     0.340 C 
BRANCH  12  13
HETATM   13  N1  UNL     1      -9.121  16.782  21.804  1.00  0.00    -0.376 NA
BRANCH  13  14
HETATM   14  C4  UNL     1      -9.385  16.664  20.529  1.00  0.00     0.160 C 
BRANCH  14  15
HETATM   15  C3  UNL     1      -8.327  16.254  19.510  1.00  0.00     0.059 C 
BRANCH  15  16
HETATM   16  C2  UNL     1      -7.229  17.300  19.462  1.00  0.00     0.002 C 
HETATM   17  C1  UNL     1      -5.894  16.613  19.299  1.00  0.00     0.005 C 
ENDBRANCH  15  16
ENDBRANCH  14  15
ENDBRANCH  13  14
ENDBRANCH  12  13
BRANCH  12  18
HETATM   18  O1  UNL     1      -8.181  17.975  23.616  1.00  0.00    -0.316 OA
ATOM     19  H1  UNL     1      -8.037  18.079  24.549  1.00  0.00     0.222 HD
ENDBRANCH  12  18
ENDBRANCH  11  12
ENDBRANCH  10  11
ENDBRANCH   5  10
BRANCH   6  20
HETATM   20  O9  UNL     1      -6.139  17.192  25.202  1.00  0.00    -0.293 OA
BRANCH  20  21
HETATM   21  C30 UNL     1      -4.893  17.218  24.577  1.00  0.00     0.360 C 
HETATM   22  O10 UNL     1      -3.878  16.956  25.217  1.00  0.00    -0.239 OA
HETATM   23  N3  UNL     1      -4.924  17.545  23.171  1.00  0.00    -0.341 N 
HETATM   24  C31 UNL     1      -3.733  17.395  22.312  1.00  0.00     0.151 C 
ATOM     25  H3  UNL     1      -5.791  17.889  22.761  1.00  0.00     0.164 HD
ENDBRANCH  20  21
ENDBRANCH   6  20
ENDBRANCH   2   3
ENDBRANCH   1   2
BRANCH   1  26
HETATM   26  C10 UNL     1     -12.008  16.441  27.870  1.00  0.00     0.039 C 
BRANCH  26  27
HETATM   27  C11 UNL     1     -12.322  15.189  27.120  1.00  0.00     0.112 C 
BRANCH  27  28
HETATM   28  S1  UNL     1     -11.553  13.689  27.450  1.00  0.00     0.041 S 
HETATM   29  O5  UNL     1     -10.059  13.671  27.389  1.00  0.00    -0.256 OA
BRANCH  28  30
HETATM   30  C12 UNL     1     -12.341  12.460  28.412  1.00  0.00     0.346 C 
BRANCH  30  31
HETATM   31  N2  UNL     1     -11.978  12.616  29.837  1.00  0.00    -0.014 N 
ATOM     32  H22 UNL     1     -12.181  11.760  30.352  1.00  0.00     0.284 HD
ATOM     33  H21 UNL     1     -10.965  12.649  29.945  1.00  0.00     0.284 HD
BRANCH  31  34
HETATM   34  C13 UNL     1     -12.582  13.734  30.475  1.00  0.00     0.468 C 
BRANCH  34  35
HETATM   35  O6  UNL     1     -13.804  14.016  30.125  1.00  0.00    -0.350 OA
ATOM     36  H6  UNL     1     -14.487  13.459  30.478  1.00  0.00     0.214 HD
ENDBRANCH  34  35
BRANCH  34  37
HETATM   37  O7  UNL     1     -12.032  14.569  31.418  1.00  0.00    -0.333 OA
BRANCH  37  38
HETATM   38  C14 UNL     1     -10.613  14.764  31.385  1.00  0.00     0.131 C 
HETATM   39  C15 UNL     1     -10.235  16.197  31.481  1.00  0.00     0.037 C 
HETATM   40  C16 UNL     1      -9.529  16.593  32.761  1.00  0.00    -0.011 C 
HETATM   41  C17 UNL     1      -8.248  15.775  32.902  1.00  0.00     0.005 C 
HETATM   42  C26 UNL     1     -10.383  16.608  33.973  1.00  0.00     0.014 C 
HETATM   43  C18 UNL     1      -8.547  14.323  32.607  1.00  0.00     0.008 C 
HETATM   44  C19 UNL     1      -9.988  14.009  32.584  1.00  0.00     0.019 C 
HETATM   45  C20 UNL     1     -10.832  14.180  33.736  1.00  0.00     0.000 C 
HETATM   46  C21 UNL     1     -11.109  13.061  34.678  1.00  0.00     0.006 C 
HETATM   47  C24 UNL     1     -10.570  15.309  34.678  1.00  0.00    -0.040 C 
HETATM   48  C22 UNL     1     -12.005  13.738  35.702  1.00  0.00     0.001 C 
HETATM   49  C23 UNL     1     -11.948  15.238  35.406  1.00  0.00     0.009 C 
HETATM   50  C25 UNL     1      -9.612  15.067  35.788  1.00  0.00     0.015 C 
ENDBRANCH  37  38
ENDBRANCH  34  37
ENDBRANCH  31  34
ENDBRANCH  30  31
ENDBRANCH  28  30
ENDBRANCH  27  28
ENDBRANCH  26  27
ENDBRANCH   1  26
TORSDOF 21
ENDMDL
