MODEL 1
REMARK VINA RESULT: -6.061876697      0.000      0.000
REMARK  16 active torsions:
REMARK  status: ('A' for Active; 'I' for Inactive)
REMARK    1  A    between atoms: C2_2  and  C3_3 
REMARK    2  A    between atoms: C3_3  and  C4_4 
REMARK    3  A    between atoms: C4_4  and  C5_5 
REMARK    4  A    between atoms: C5_5  and  O2_7 
REMARK    5  A    between atoms: O2_7  and  C6_8 
REMARK    6  A    between atoms: C10_13  and  C11_14 
REMARK    7  A    between atoms: C14_19  and  C15_20 
REMARK    8  A    between atoms: C15_20  and  C16_21 
REMARK    9  A    between atoms: C16_21  and  C18_23 
REMARK   10  A    between atoms: C26_35  and  C27_36 
REMARK   11  A    between atoms: C27_36  and  C28_37 
REMARK   12  A    between atoms: C28_37  and  C29_38 
REMARK   13  A    between atoms: C29_38  and  C30_39 
REMARK   14  A    between atoms: C30_39  and  N2_40 
REMARK   15  A    between atoms: C32_46  and  C33_47 
REMARK   16  A    between atoms: C35_49  and  O9_51 
ROOT
HETATM    1  C6  UNL     1     -13.907   9.446  36.677  1.00  0.00     0.177 C 
HETATM    2  C7  UNL     1     -14.269   8.972  35.328  1.00  0.00     0.085 C 
HETATM    3  C8  UNL     1     -13.721   7.699  34.835  1.00  0.00     0.020 C 
HETATM    4  C9  UNL     1     -15.741   8.926  35.186  1.00  0.00     0.146 C 
HETATM    5  O3  UNL     1     -16.496   9.750  35.726  1.00  0.00    -0.297 OA
HETATM    6  C10 UNL     1     -16.457   7.896  34.386  1.00  0.00     0.155 C 
HETATM    7  C13 UNL     1     -17.487   8.453  33.482  1.00  0.00     0.270 C 
HETATM    8  O4  UNL     1     -18.572   8.834  33.981  1.00  0.00    -0.264 OA
HETATM    9  O5  UNL     1     -17.242   8.539  32.139  1.00  0.00    -0.315 OA
HETATM   10  C14 UNL     1     -16.041   8.897  31.505  1.00  0.00     0.143 C 
HETATM   11  C20 UNL     1     -16.067  10.204  30.773  1.00  0.00     0.082 C 
HETATM   12  C21 UNL     1     -17.494  10.476  30.260  1.00  0.00     0.020 C 
HETATM   13  C22 UNL     1     -15.827  11.303  31.760  1.00  0.00     0.145 C 
HETATM   14  O6  UNL     1     -16.679  11.363  32.650  1.00  0.00    -0.297 OA
HETATM   15  C23 UNL     1     -14.738  12.267  31.769  1.00  0.00     0.144 C 
HETATM   16  C24 UNL     1     -14.584  12.732  30.298  1.00  0.00     0.028 C 
HETATM   17  C25 UNL     1     -13.427  11.793  32.242  1.00  0.00     0.229 C 
HETATM   18  O7  UNL     1     -13.092  10.655  31.745  1.00  0.00    -0.273 OA
HETATM   19  N1  UNL     1     -12.512  12.363  33.118  1.00  0.00    -0.349 N 
ATOM     20  H1  UNL     1     -11.563  12.366  32.741  1.00  0.00     0.163 HD
HETATM   21  C26 UNL     1     -12.579  12.937  34.399  1.00  0.00     0.154 C 
HETATM   22  C31 UNL     1     -13.565  12.470  35.375  1.00  0.00     0.156 C 
HETATM   23  O8  UNL     1     -14.719  12.551  35.041  1.00  0.00    -0.295 OA
HETATM   24  C32 UNL     1     -13.283  11.925  36.697  1.00  0.00     0.094 C 
HETATM   25  C35 UNL     1     -12.889  10.504  36.838  1.00  0.00     0.092 C 
HETATM   26  C36 UNL     1     -11.574  10.279  36.133  1.00  0.00     0.049 C 
ENDROOT
BRANCH  21  27
HETATM   27  C27 UNL     1     -12.769  14.470  34.305  1.00  0.00     0.033 C 
BRANCH  27  28
HETATM   28  C28 UNL     1     -11.925  15.177  35.321  1.00  0.00     0.004 C 
BRANCH  28  29
HETATM   29  C29 UNL     1     -10.505  14.709  35.392  1.00  0.00     0.027 C 
BRANCH  29  30
HETATM   30  C30 UNL     1      -9.748  15.345  34.219  1.00  0.00     0.229 C 
BRANCH  30  31
HETATM   31  N2  UNL     1      -9.804  16.787  34.389  1.00  0.00    -0.079 N 
ATOM     32  H23 UNL     1     -10.726  17.117  34.673  1.00  0.00     0.274 HD
ATOM     33  H22 UNL     1      -9.287  17.110  35.208  1.00  0.00     0.274 HD
ATOM     34  H21 UNL     1      -9.479  17.214  33.521  1.00  0.00     0.274 HD
ENDBRANCH  30  31
ENDBRANCH  29  30
ENDBRANCH  28  29
ENDBRANCH  27  28
ENDBRANCH  21  27
BRANCH  24  35
HETATM   35  C33 UNL     1     -14.383  12.308  37.711  1.00  0.00     0.011 C 
HETATM   36  C34 UNL     1     -14.026  13.653  38.358  1.00  0.00     0.006 C 
ENDBRANCH  24  35
BRANCH  25  37
HETATM   37  O9  UNL     1     -12.486  10.446  38.182  1.00  0.00    -0.387 OA
ATOM     38  H9  UNL     1     -11.696   9.919  38.193  1.00  0.00     0.210 HD
ENDBRANCH  25  37
BRANCH   1  39
HETATM   39  O2  UNL     1     -13.788   8.416  37.637  1.00  0.00    -0.312 OA
BRANCH  39  40
HETATM   40  C5  UNL     1     -14.659   8.010  38.579  1.00  0.00     0.259 C 
HETATM   41  O1  UNL     1     -14.943   8.788  39.483  1.00  0.00    -0.265 OA
BRANCH  40  42
HETATM   42  C4  UNL     1     -15.245   6.648  38.497  1.00  0.00     0.111 C 
BRANCH  42  43
HETATM   43  C3  UNL     1     -14.189   5.580  38.694  1.00  0.00     0.009 C 
BRANCH  43  44
HETATM   44  C2  UNL     1     -13.776   4.965  37.381  1.00  0.00    -0.004 C 
HETATM   45  C1  UNL     1     -12.315   5.163  37.126  1.00  0.00     0.005 C 
ENDBRANCH  43  44
ENDBRANCH  42  43
ENDBRANCH  40  42
ENDBRANCH  39  40
ENDBRANCH   1  39
BRANCH  10  46
HETATM   46  C15 UNL     1     -15.294   7.790  30.865  1.00  0.00     0.037 C 
BRANCH  46  47
HETATM   47  C16 UNL     1     -14.838   6.639  31.650  1.00  0.00    -0.017 C 
HETATM   48  C17 UNL     1     -15.712   5.430  31.612  1.00  0.00     0.010 C 
BRANCH  47  49
HETATM   49  C18 UNL     1     -13.454   6.212  31.094  1.00  0.00    -0.000 C 
HETATM   50  C19 UNL     1     -12.454   7.316  31.303  1.00  0.00     0.005 C 
ENDBRANCH  47  49
ENDBRANCH  46  47
ENDBRANCH  10  46
BRANCH   6  51
HETATM   51  C11 UNL     1     -17.207   6.975  35.335  1.00  0.00     0.018 C 
HETATM   52  C12 UNL     1     -16.771   5.552  35.213  1.00  0.00     0.006 C 
ENDBRANCH   6  51
TORSDOF 16
ENDMDL
MODEL 2
REMARK VINA RESULT: -6.058102103      2.339      6.388
REMARK  16 active torsions:
REMARK  status: ('A' for Active; 'I' for Inactive)
REMARK    1  A    between atoms: C2_2  and  C3_3 
REMARK    2  A    between atoms: C3_3  and  C4_4 
REMARK    3  A    between atoms: C4_4  and  C5_5 
REMARK    4  A    between atoms: C5_5  and  O2_7 
REMARK    5  A    between atoms: O2_7  and  C6_8 
REMARK    6  A    between atoms: C10_13  and  C11_14 
REMARK    7  A    between atoms: C14_19  and  C15_20 
REMARK    8  A    between atoms: C15_20  and  C16_21 
REMARK    9  A    between atoms: C16_21  and  C18_23 
REMARK   10  A    between atoms: C26_35  and  C27_36 
REMARK   11  A    between atoms: C27_36  and  C28_37 
REMARK   12  A    between atoms: C28_37  and  C29_38 
REMARK   13  A    between atoms: C29_38  and  C30_39 
REMARK   14  A    between atoms: C30_39  and  N2_40 
REMARK   15  A    between atoms: C32_46  and  C33_47 
REMARK   16  A    between atoms: C35_49  and  O9_51 
ROOT
HETATM    1  C6  UNL     1     -14.544  12.539  31.289  1.00  0.00     0.177 C 
HETATM    2  C7  UNL     1     -14.804  11.620  32.413  1.00  0.00     0.085 C 
HETATM    3  C8  UNL     1     -16.189  11.263  32.752  1.00  0.00     0.020 C 
HETATM    4  C9  UNL     1     -14.037  10.368  32.230  1.00  0.00     0.146 C 
HETATM    5  O3  UNL     1     -12.907  10.338  31.715  1.00  0.00    -0.297 OA
HETATM    6  C10 UNL     1     -14.538   9.030  32.646  1.00  0.00     0.155 C 
HETATM    7  C13 UNL     1     -13.549   8.232  33.404  1.00  0.00     0.270 C 
HETATM    8  O4  UNL     1     -12.609   7.695  32.772  1.00  0.00    -0.264 OA
HETATM    9  O5  UNL     1     -13.678   8.095  34.760  1.00  0.00    -0.315 OA
HETATM   10  C14 UNL     1     -14.073   9.071  35.688  1.00  0.00     0.143 C 
HETATM   11  C20 UNL     1     -13.005   9.521  36.639  1.00  0.00     0.082 C 
HETATM   12  C21 UNL     1     -12.016   8.365  36.883  1.00  0.00     0.020 C 
HETATM   13  C22 UNL     1     -12.175  10.563  35.958  1.00  0.00     0.145 C 
HETATM   14  O6  UNL     1     -11.612  10.159  34.938  1.00  0.00    -0.297 OA
HETATM   15  C23 UNL     1     -11.973  11.945  36.365  1.00  0.00     0.144 C 
HETATM   16  C24 UNL     1     -11.742  11.894  37.897  1.00  0.00     0.028 C 
HETATM   17  C25 UNL     1     -13.068  12.890  36.095  1.00  0.00     0.229 C 
HETATM   18  O7  UNL     1     -14.224  12.431  36.421  1.00  0.00    -0.273 OA
HETATM   19  N1  UNL     1     -13.056  14.172  35.559  1.00  0.00    -0.349 N 
ATOM     20  H1  UNL     1     -13.595  14.833  36.121  1.00  0.00     0.163 HD
HETATM   21  C26 UNL     1     -12.479  14.777  34.430  1.00  0.00     0.154 C 
HETATM   22  C31 UNL     1     -12.277  14.015  33.197  1.00  0.00     0.156 C 
HETATM   23  O8  UNL     1     -11.589  13.031  33.290  1.00  0.00    -0.295 OA
HETATM   24  C32 UNL     1     -12.823  14.333  31.883  1.00  0.00     0.094 C 
HETATM   25  C35 UNL     1     -14.217  13.954  31.554  1.00  0.00     0.092 C 
HETATM   26  C36 UNL     1     -15.163  14.700  32.462  1.00  0.00     0.049 C 
ENDROOT
BRANCH  21  27
HETATM   27  C27 UNL     1     -11.103  15.392  34.778  1.00  0.00     0.033 C 
BRANCH  27  28
HETATM   28  C28 UNL     1     -10.551  16.160  33.616  1.00  0.00     0.004 C 
BRANCH  28  29
HETATM   29  C29 UNL     1      -9.063  16.094  33.471  1.00  0.00     0.027 C 
BRANCH  29  30
HETATM   30  C30 UNL     1      -8.756  15.290  32.200  1.00  0.00     0.229 C 
BRANCH  30  31
HETATM   31  N2  UNL     1      -8.686  13.888  32.572  1.00  0.00    -0.079 N 
ATOM     32  H23 UNL     1      -7.924  13.687  33.221  1.00  0.00     0.274 HD
ATOM     33  H22 UNL     1      -9.456  13.599  33.176  1.00  0.00     0.274 HD
ATOM     34  H21 UNL     1      -8.630  13.341  31.712  1.00  0.00     0.274 HD
ENDBRANCH  30  31
ENDBRANCH  29  30
ENDBRANCH  28  29
ENDBRANCH  27  28
ENDBRANCH  21  27
BRANCH  24  35
HETATM   35  C33 UNL     1     -11.848  13.930  30.755  1.00  0.00     0.011 C 
HETATM   36  C34 UNL     1     -11.374  15.194  30.024  1.00  0.00     0.006 C 
ENDBRANCH  24  35
BRANCH  25  37
HETATM   37  O9  UNL     1     -14.423  14.629  30.340  1.00  0.00    -0.387 OA
ATOM     38  H9  UNL     1     -13.649  14.461  29.816  1.00  0.00     0.210 HD
ENDBRANCH  25  37
BRANCH   1  39
HETATM   39  O2  UNL     1     -15.420  12.371  30.193  1.00  0.00    -0.312 OA
BRANCH  39  40
HETATM   40  C5  UNL     1     -16.765  12.342  30.161  1.00  0.00     0.259 C 
HETATM   41  O1  UNL     1     -17.371  13.404  30.246  1.00  0.00    -0.265 OA
BRANCH  40  42
HETATM   42  C4  UNL     1     -17.467  11.042  30.025  1.00  0.00     0.111 C 
BRANCH  42  43
HETATM   43  C3  UNL     1     -18.949  11.237  29.775  1.00  0.00     0.009 C 
BRANCH  43  44
HETATM   44  C2  UNL     1     -19.753  10.067  30.279  1.00  0.00    -0.004 C 
HETATM   45  C1  UNL     1     -19.402   9.739  31.696  1.00  0.00     0.005 C 
ENDBRANCH  43  44
ENDBRANCH  42  43
ENDBRANCH  40  42
ENDBRANCH  39  40
ENDBRANCH   1  39
BRANCH  10  46
HETATM   46  C15 UNL     1     -15.437   8.919  36.243  1.00  0.00     0.037 C 
BRANCH  46  47
HETATM   47  C16 UNL     1     -16.618   9.129  35.400  1.00  0.00    -0.017 C 
HETATM   48  C17 UNL     1     -17.358   7.900  34.989  1.00  0.00     0.010 C 
BRANCH  47  49
HETATM   49  C18 UNL     1     -17.615  10.009  36.201  1.00  0.00    -0.000 C 
HETATM   50  C19 UNL     1     -18.839  10.281  35.372  1.00  0.00     0.005 C 
ENDBRANCH  47  49
ENDBRANCH  46  47
ENDBRANCH  10  46
BRANCH   6  51
HETATM   51  C11 UNL     1     -14.845   8.214  31.400  1.00  0.00     0.018 C 
HETATM   52  C12 UNL     1     -16.257   7.728  31.370  1.00  0.00     0.006 C 
ENDBRANCH   6  51
TORSDOF 16
ENDMDL
MODEL 3
REMARK VINA RESULT: -5.896847866      0.941      1.663
REMARK  16 active torsions:
REMARK  status: ('A' for Active; 'I' for Inactive)
REMARK    1  A    between atoms: C2_2  and  C3_3 
REMARK    2  A    between atoms: C3_3  and  C4_4 
REMARK    3  A    between atoms: C4_4  and  C5_5 
REMARK    4  A    between atoms: C5_5  and  O2_7 
REMARK    5  A    between atoms: O2_7  and  C6_8 
REMARK    6  A    between atoms: C10_13  and  C11_14 
REMARK    7  A    between atoms: C14_19  and  C15_20 
REMARK    8  A    between atoms: C15_20  and  C16_21 
REMARK    9  A    between atoms: C16_21  and  C18_23 
REMARK   10  A    between atoms: C26_35  and  C27_36 
REMARK   11  A    between atoms: C27_36  and  C28_37 
REMARK   12  A    between atoms: C28_37  and  C29_38 
REMARK   13  A    between atoms: C29_38  and  C30_39 
REMARK   14  A    between atoms: C30_39  and  N2_40 
REMARK   15  A    between atoms: C32_46  and  C33_47 
REMARK   16  A    between atoms: C35_49  and  O9_51 
ROOT
HETATM    1  C6  UNL     1     -13.920   9.473  36.693  1.00  0.00     0.177 C 
HETATM    2  C7  UNL     1     -14.279   8.994  35.345  1.00  0.00     0.085 C 
HETATM    3  C8  UNL     1     -13.738   7.715  34.861  1.00  0.00     0.020 C 
HETATM    4  C9  UNL     1     -15.750   8.957  35.196  1.00  0.00     0.146 C 
HETATM    5  O3  UNL     1     -16.503   9.790  35.728  1.00  0.00    -0.297 OA
HETATM    6  C10 UNL     1     -16.470   7.928  34.398  1.00  0.00     0.155 C 
HETATM    7  C13 UNL     1     -17.492   8.487  33.486  1.00  0.00     0.270 C 
HETATM    8  O4  UNL     1     -18.576   8.878  33.979  1.00  0.00    -0.264 OA
HETATM    9  O5  UNL     1     -17.240   8.564  32.144  1.00  0.00    -0.315 OA
HETATM   10  C14 UNL     1     -16.034   8.911  31.514  1.00  0.00     0.143 C 
HETATM   11  C20 UNL     1     -16.047  10.214  30.775  1.00  0.00     0.082 C 
HETATM   12  C21 UNL     1     -17.471  10.492  30.254  1.00  0.00     0.020 C 
HETATM   13  C22 UNL     1     -15.805  11.317  31.757  1.00  0.00     0.145 C 
HETATM   14  O6  UNL     1     -16.660  11.387  32.643  1.00  0.00    -0.297 OA
HETATM   15  C23 UNL     1     -14.709  12.273  31.766  1.00  0.00     0.144 C 
HETATM   16  C24 UNL     1     -14.545  12.729  30.293  1.00  0.00     0.028 C 
HETATM   17  C25 UNL     1     -13.404  11.793  32.248  1.00  0.00     0.229 C 
HETATM   18  O7  UNL     1     -13.074  10.650  31.758  1.00  0.00    -0.273 OA
HETATM   19  N1  UNL     1     -12.488  12.362  33.125  1.00  0.00    -0.349 N 
ATOM     20  H1  UNL     1     -11.538  12.356  32.752  1.00  0.00     0.163 HD
HETATM   21  C26 UNL     1     -12.558  12.943  34.402  1.00  0.00     0.154 C 
HETATM   22  C31 UNL     1     -13.551  12.487  35.376  1.00  0.00     0.156 C 
HETATM   23  O8  UNL     1     -14.703  12.574  35.037  1.00  0.00    -0.295 OA
HETATM   24  C32 UNL     1     -13.279  11.948  36.702  1.00  0.00     0.094 C 
HETATM   25  C35 UNL     1     -12.895  10.525  36.853  1.00  0.00     0.092 C 
HETATM   26  C36 UNL     1     -11.579  10.288  36.155  1.00  0.00     0.049 C 
ENDROOT
BRANCH  21  27
HETATM   27  C27 UNL     1     -12.737  14.476  34.299  1.00  0.00     0.033 C 
BRANCH  27  28
HETATM   28  C28 UNL     1     -11.908  15.182  35.329  1.00  0.00     0.004 C 
BRANCH  28  29
HETATM   29  C29 UNL     1     -10.488  14.718  35.417  1.00  0.00     0.027 C 
BRANCH  29  30
HETATM   30  C30 UNL     1      -9.721  15.346  34.245  1.00  0.00     0.229 C 
BRANCH  30  31
HETATM   31  N2  UNL     1      -9.829  16.789  34.372  1.00  0.00    -0.079 N 
ATOM     32  H23 UNL     1     -10.792  17.121  34.311  1.00  0.00     0.274 HD
ATOM     33  H22 UNL     1      -9.632  17.120  35.316  1.00  0.00     0.274 HD
ATOM     34  H21 UNL     1      -9.220  17.208  33.669  1.00  0.00     0.274 HD
ENDBRANCH  30  31
ENDBRANCH  29  30
ENDBRANCH  28  29
ENDBRANCH  27  28
ENDBRANCH  21  27
BRANCH  24  35
HETATM   35  C33 UNL     1     -14.381  12.344  37.710  1.00  0.00     0.011 C 
HETATM   36  C34 UNL     1     -14.009  13.682  38.364  1.00  0.00     0.006 C 
ENDBRANCH  24  35
BRANCH  25  37
HETATM   37  O9  UNL     1     -12.499  10.472  38.199  1.00  0.00    -0.387 OA
ATOM     38  H9  UNL     1     -13.211  10.048  38.662  1.00  0.00     0.210 HD
ENDBRANCH  25  37
BRANCH   1  39
HETATM   39  O2  UNL     1     -13.813   8.448  37.659  1.00  0.00    -0.312 OA
BRANCH  39  40
HETATM   40  C5  UNL     1     -14.770   7.845  38.387  1.00  0.00     0.259 C 
HETATM   41  O1  UNL     1     -14.766   6.621  38.454  1.00  0.00    -0.265 OA
BRANCH  40  42
HETATM   42  C4  UNL     1     -15.792   8.669  39.080  1.00  0.00     0.111 C 
BRANCH  42  43
HETATM   43  C3  UNL     1     -17.191   8.153  38.815  1.00  0.00     0.009 C 
BRANCH  43  44
HETATM   44  C2  UNL     1     -18.191   9.278  38.748  1.00  0.00    -0.004 C 
HETATM   45  C1  UNL     1     -19.297   8.964  37.790  1.00  0.00     0.005 C 
ENDBRANCH  43  44
ENDBRANCH  42  43
ENDBRANCH  40  42
ENDBRANCH  39  40
ENDBRANCH   1  39
BRANCH  10  46
HETATM   46  C15 UNL     1     -15.292   7.795  30.883  1.00  0.00     0.037 C 
BRANCH  46  47
HETATM   47  C16 UNL     1     -14.787   6.678  31.689  1.00  0.00    -0.017 C 
HETATM   48  C17 UNL     1     -15.655   5.466  31.745  1.00  0.00     0.010 C 
BRANCH  47  49
HETATM   49  C18 UNL     1     -13.432   6.235  31.077  1.00  0.00    -0.000 C 
HETATM   50  C19 UNL     1     -12.392   7.295  31.310  1.00  0.00     0.005 C 
ENDBRANCH  47  49
ENDBRANCH  46  47
ENDBRANCH  10  46
BRANCH   6  51
HETATM   51  C11 UNL     1     -17.230   7.017  35.348  1.00  0.00     0.018 C 
HETATM   52  C12 UNL     1     -16.622   5.657  35.446  1.00  0.00     0.006 C 
ENDBRANCH   6  51
TORSDOF 16
ENDMDL
MODEL 4
REMARK VINA RESULT: -5.834001519      2.526      7.313
REMARK  16 active torsions:
REMARK  status: ('A' for Active; 'I' for Inactive)
REMARK    1  A    between atoms: C2_2  and  C3_3 
REMARK    2  A    between atoms: C3_3  and  C4_4 
REMARK    3  A    between atoms: C4_4  and  C5_5 
REMARK    4  A    between atoms: C5_5  and  O2_7 
REMARK    5  A    between atoms: O2_7  and  C6_8 
REMARK    6  A    between atoms: C10_13  and  C11_14 
REMARK    7  A    between atoms: C14_19  and  C15_20 
REMARK    8  A    between atoms: C15_20  and  C16_21 
REMARK    9  A    between atoms: C16_21  and  C18_23 
REMARK   10  A    between atoms: C26_35  and  C27_36 
REMARK   11  A    between atoms: C27_36  and  C28_37 
REMARK   12  A    between atoms: C28_37  and  C29_38 
REMARK   13  A    between atoms: C29_38  and  C30_39 
REMARK   14  A    between atoms: C30_39  and  N2_40 
REMARK   15  A    between atoms: C32_46  and  C33_47 
REMARK   16  A    between atoms: C35_49  and  O9_51 
ROOT
HETATM    1  C6  UNL     1     -13.359  11.922  33.207  1.00  0.00     0.177 C 
HETATM    2  C7  UNL     1     -13.497  10.977  34.330  1.00  0.00     0.085 C 
HETATM    3  C8  UNL     1     -12.321  10.228  34.798  1.00  0.00     0.020 C 
HETATM    4  C9  UNL     1     -14.102  11.660  35.495  1.00  0.00     0.146 C 
HETATM    5  O3  UNL     1     -14.962  12.548  35.384  1.00  0.00    -0.297 OA
HETATM    6  C10 UNL     1     -13.742  11.351  36.906  1.00  0.00     0.155 C 
HETATM    7  C13 UNL     1     -14.913  11.172  37.793  1.00  0.00     0.270 C 
HETATM    8  O4  UNL     1     -15.538  12.194  38.165  1.00  0.00    -0.264 OA
HETATM    9  O5  UNL     1     -15.285   9.916  38.187  1.00  0.00    -0.315 OA
HETATM   10  C14 UNL     1     -15.290   8.741  37.420  1.00  0.00     0.143 C 
HETATM   11  C20 UNL     1     -16.646   8.180  37.116  1.00  0.00     0.082 C 
HETATM   12  C21 UNL     1     -17.616   8.537  38.258  1.00  0.00     0.020 C 
HETATM   13  C22 UNL     1     -17.204   8.907  35.933  1.00  0.00     0.145 C 
HETATM   14  O6  UNL     1     -17.341  10.118  36.116  1.00  0.00    -0.297 OA
HETATM   15  C23 UNL     1     -17.588   8.348  34.646  1.00  0.00     0.144 C 
HETATM   16  C24 UNL     1     -18.362   7.045  34.975  1.00  0.00     0.028 C 
HETATM   17  C25 UNL     1     -16.502   8.015  33.710  1.00  0.00     0.229 C 
HETATM   18  O7  UNL     1     -15.531   7.382  34.266  1.00  0.00    -0.273 OA
HETATM   19  N1  UNL     1     -16.361   8.265  32.350  1.00  0.00    -0.349 N 
ATOM     20  H1  UNL     1     -16.087   7.431  31.828  1.00  0.00     0.163 HD
HETATM   21  C26 UNL     1     -16.504   9.391  31.521  1.00  0.00     0.154 C 
HETATM   22  C31 UNL     1     -16.214  10.733  32.030  1.00  0.00     0.156 C 
HETATM   23  O8  UNL     1     -16.855  11.085  32.986  1.00  0.00    -0.295 OA
HETATM   24  C32 UNL     1     -15.237  11.670  31.491  1.00  0.00     0.094 C 
HETATM   25  C35 UNL     1     -13.807  11.532  31.855  1.00  0.00     0.092 C 
HETATM   26  C36 UNL     1     -13.285  10.218  31.330  1.00  0.00     0.049 C 
ENDROOT
BRANCH  21  27
HETATM   27  C27 UNL     1     -17.932   9.460  30.931  1.00  0.00     0.033 C 
BRANCH  27  28
HETATM   28  C28 UNL     1     -17.983  10.398  29.763  1.00  0.00     0.004 C 
BRANCH  28  29
HETATM   29  C29 UNL     1     -19.163  11.317  29.747  1.00  0.00     0.027 C 
BRANCH  29  30
HETATM   30  C30 UNL     1     -20.338  10.553  29.120  1.00  0.00     0.229 C 
BRANCH  30  31
HETATM   31  N2  UNL     1     -19.862   9.947  27.889  1.00  0.00    -0.079 N 
ATOM     32  H23 UNL     1     -19.951   8.931  27.888  1.00  0.00     0.274 HD
ATOM     33  H22 UNL     1     -20.470  10.137  27.093  1.00  0.00     0.274 HD
ATOM     34  H21 UNL     1     -18.903  10.262  27.740  1.00  0.00     0.274 HD
ENDBRANCH  30  31
ENDBRANCH  29  30
ENDBRANCH  28  29
ENDBRANCH  27  28
ENDBRANCH  21  27
BRANCH  24  35
HETATM   35  C33 UNL     1     -15.717  13.131  31.636  1.00  0.00     0.011 C 
HETATM   36  C34 UNL     1     -16.239  13.627  30.281  1.00  0.00     0.006 C 
ENDBRANCH  24  35
BRANCH  25  37
HETATM   37  O9  UNL     1     -13.195  12.435  30.972  1.00  0.00    -0.387 OA
ATOM     38  H9  UNL     1     -12.261  12.349  31.119  1.00  0.00     0.210 HD
ENDBRANCH  25  37
BRANCH   1  39
HETATM   39  O2  UNL     1     -12.137  12.632  33.198  1.00  0.00    -0.312 OA
BRANCH  39  40
HETATM   40  C5  UNL     1     -11.778  13.740  33.871  1.00  0.00     0.259 C 
HETATM   41  O1  UNL     1     -12.632  14.595  34.081  1.00  0.00    -0.265 OA
BRANCH  40  42
HETATM   42  C4  UNL     1     -10.377  13.895  34.336  1.00  0.00     0.111 C 
BRANCH  42  43
HETATM   43  C3  UNL     1     -10.243  15.044  35.314  1.00  0.00     0.009 C 
BRANCH  43  44
HETATM   44  C2  UNL     1      -9.712  16.283  34.641  1.00  0.00    -0.004 C 
HETATM   45  C1  UNL     1      -8.994  15.945  33.373  1.00  0.00     0.005 C 
ENDBRANCH  43  44
ENDBRANCH  42  43
ENDBRANCH  40  42
ENDBRANCH  39  40
ENDBRANCH   1  39
BRANCH  10  46
HETATM   46  C15 UNL     1     -14.219   7.765  37.726  1.00  0.00     0.037 C 
BRANCH  46  47
HETATM   47  C16 UNL     1     -13.007   7.698  36.904  1.00  0.00    -0.017 C 
HETATM   48  C17 UNL     1     -11.723   8.003  37.601  1.00  0.00     0.010 C 
BRANCH  47  49
HETATM   49  C18 UNL     1     -12.891   6.250  36.358  1.00  0.00    -0.000 C 
HETATM   50  C19 UNL     1     -12.027   5.425  37.270  1.00  0.00     0.005 C 
ENDBRANCH  47  49
ENDBRANCH  46  47
ENDBRANCH  10  46
BRANCH   6  51
HETATM   51  C11 UNL     1     -12.973  12.528  37.483  1.00  0.00     0.018 C 
HETATM   52  C12 UNL     1     -11.587  12.157  37.896  1.00  0.00     0.006 C 
ENDBRANCH   6  51
TORSDOF 16
ENDMDL
MODEL 5
REMARK VINA RESULT: -5.807408092      2.256      4.581
REMARK  16 active torsions:
REMARK  status: ('A' for Active; 'I' for Inactive)
REMARK    1  A    between atoms: C2_2  and  C3_3 
REMARK    2  A    between atoms: C3_3  and  C4_4 
REMARK    3  A    between atoms: C4_4  and  C5_5 
REMARK    4  A    between atoms: C5_5  and  O2_7 
REMARK    5  A    between atoms: O2_7  and  C6_8 
REMARK    6  A    between atoms: C10_13  and  C11_14 
REMARK    7  A    between atoms: C14_19  and  C15_20 
REMARK    8  A    between atoms: C15_20  and  C16_21 
REMARK    9  A    between atoms: C16_21  and  C18_23 
REMARK   10  A    between atoms: C26_35  and  C27_36 
REMARK   11  A    between atoms: C27_36  and  C28_37 
REMARK   12  A    between atoms: C28_37  and  C29_38 
REMARK   13  A    between atoms: C29_38  and  C30_39 
REMARK   14  A    between atoms: C30_39  and  N2_40 
REMARK   15  A    between atoms: C32_46  and  C33_47 
REMARK   16  A    between atoms: C35_49  and  O9_51 
ROOT
HETATM    1  C6  UNL     1     -14.156   8.529  34.563  1.00  0.00     0.177 C 
HETATM    2  C7  UNL     1     -13.958   9.296  33.319  1.00  0.00     0.085 C 
HETATM    3  C8  UNL     1     -13.074   8.763  32.271  1.00  0.00     0.020 C 
HETATM    4  C9  UNL     1     -15.267   9.607  32.702  1.00  0.00     0.146 C 
HETATM    5  O3  UNL     1     -16.285   9.850  33.369  1.00  0.00    -0.297 OA
HETATM    6  C10 UNL     1     -15.490   9.661  31.232  1.00  0.00     0.155 C 
HETATM    7  C13 UNL     1     -16.232  10.861  30.785  1.00  0.00     0.270 C 
HETATM    8  O4  UNL     1     -17.468  10.902  30.985  1.00  0.00    -0.264 OA
HETATM    9  O5  UNL     1     -15.565  11.885  30.171  1.00  0.00    -0.315 OA
HETATM   10  C14 UNL     1     -14.298  12.400  30.488  1.00  0.00     0.143 C 
HETATM   11  C20 UNL     1     -14.291  13.791  31.043  1.00  0.00     0.082 C 
HETATM   12  C21 UNL     1     -15.486  14.577  30.469  1.00  0.00     0.020 C 
HETATM   13  C22 UNL     1     -14.584  13.717  32.509  1.00  0.00     0.145 C 
HETATM   14  O6  UNL     1     -15.683  13.223  32.769  1.00  0.00    -0.297 OA
HETATM   15  C23 UNL     1     -13.737  14.155  33.607  1.00  0.00     0.144 C 
HETATM   16  C24 UNL     1     -13.175  15.533  33.173  1.00  0.00     0.028 C 
HETATM   17  C25 UNL     1     -12.604  13.288  33.967  1.00  0.00     0.229 C 
HETATM   18  O7  UNL     1     -11.937  12.879  32.946  1.00  0.00    -0.273 OA
HETATM   19  N1  UNL     1     -12.145  12.850  35.204  1.00  0.00    -0.349 N 
ATOM     20  H1  UNL     1     -11.140  12.985  35.315  1.00  0.00     0.163 HD
HETATM   21  C26 UNL     1     -12.735  12.267  36.338  1.00  0.00     0.154 C 
HETATM   22  C31 UNL     1     -13.901  11.391  36.206  1.00  0.00     0.156 C 
HETATM   23  O8  UNL     1     -14.871  11.877  35.684  1.00  0.00    -0.295 OA
HETATM   24  C32 UNL     1     -13.995  10.005  36.645  1.00  0.00     0.094 C 
HETATM   25  C35 UNL     1     -13.442   8.925  35.794  1.00  0.00     0.092 C 
HETATM   26  C36 UNL     1     -11.949   9.101  35.673  1.00  0.00     0.049 C 
ENDROOT
BRANCH  21  27
HETATM   27  C27 UNL     1     -13.133  13.350  37.369  1.00  0.00     0.033 C 
BRANCH  27  28
HETATM   28  C28 UNL     1     -12.997  12.833  38.768  1.00  0.00     0.004 C 
BRANCH  28  29
HETATM   29  C29 UNL     1     -11.708  12.128  39.054  1.00  0.00     0.027 C 
BRANCH  29  30
HETATM   30  C30 UNL     1     -12.038  10.871  39.869  1.00  0.00     0.229 C 
BRANCH  30  31
HETATM   31  N2  UNL     1     -11.421   9.738  39.202  1.00  0.00    -0.079 N 
ATOM     32  H23 UNL     1     -10.776  10.018  38.462  1.00  0.00     0.274 HD
ATOM     33  H22 UNL     1     -10.745   9.250  39.791  1.00  0.00     0.274 HD
ATOM     34  H21 UNL     1     -12.169   9.130  38.868  1.00  0.00     0.274 HD
ENDBRANCH  30  31
ENDBRANCH  29  30
ENDBRANCH  28  29
ENDBRANCH  27  28
ENDBRANCH  21  27
BRANCH  24  35
HETATM   35  C33 UNL     1     -15.420   9.663  37.133  1.00  0.00     0.011 C 
HETATM   36  C34 UNL     1     -15.537  10.003  38.625  1.00  0.00     0.006 C 
ENDBRANCH  24  35
BRANCH  25  37
HETATM   37  O9  UNL     1     -13.513   7.815  36.651  1.00  0.00    -0.387 OA
ATOM     38  H9  UNL     1     -12.636   7.698  36.996  1.00  0.00     0.210 HD
ENDBRANCH  25  37
BRANCH   1  39
HETATM   39  O2  UNL     1     -14.200   7.130  34.377  1.00  0.00    -0.312 OA
BRANCH  39  40
HETATM   40  C5  UNL     1     -15.229   6.338  34.026  1.00  0.00     0.259 C 
HETATM   41  O1  UNL     1     -16.358   6.663  34.376  1.00  0.00    -0.265 OA
BRANCH  40  42
HETATM   42  C4  UNL     1     -14.972   5.108  33.236  1.00  0.00     0.111 C 
BRANCH  42  43
HETATM   43  C3  UNL     1     -13.513   4.997  32.845  1.00  0.00     0.009 C 
BRANCH  43  44
HETATM   44  C2  UNL     1     -13.355   4.432  31.457  1.00  0.00    -0.004 C 
HETATM   45  C1  UNL     1     -12.440   5.277  30.628  1.00  0.00     0.005 C 
ENDBRANCH  43  44
ENDBRANCH  42  43
ENDBRANCH  40  42
ENDBRANCH  39  40
ENDBRANCH   1  39
BRANCH  10  46
HETATM   46  C15 UNL     1     -13.207  12.052  29.549  1.00  0.00     0.037 C 
BRANCH  46  47
HETATM   47  C16 UNL     1     -12.459  13.099  28.846  1.00  0.00    -0.017 C 
HETATM   48  C17 UNL     1     -11.219  13.585  29.519  1.00  0.00     0.010 C 
BRANCH  47  49
HETATM   49  C18 UNL     1     -12.029  12.522  27.471  1.00  0.00    -0.000 C 
HETATM   50  C19 UNL     1     -11.408  13.605  26.632  1.00  0.00     0.005 C 
ENDBRANCH  47  49
ENDBRANCH  46  47
ENDBRANCH  10  46
BRANCH   6  51
HETATM   51  C11 UNL     1     -16.352   8.477  30.825  1.00  0.00     0.018 C 
HETATM   52  C12 UNL     1     -15.541   7.279  30.455  1.00  0.00     0.006 C 
ENDBRANCH   6  51
TORSDOF 16
ENDMDL
