MODEL 1
REMARK VINA RESULT: -9.475171642      0.000      0.000
REMARK  8 active torsions:
REMARK  status: ('A' for Active; 'I' for Inactive)
REMARK    1  A    between atoms: C2_3  and  C3_4 
REMARK    2  A    between atoms: C5_6  and  C6_7 
REMARK    3  A    between atoms: C6_7  and  N2_8 
REMARK    4  A    between atoms: N2_8  and  C7_9 
REMARK    5  A    between atoms: N2_8  and  C12_17 
REMARK    6  A    between atoms: C7_9  and  C8_10 
REMARK    7  A    between atoms: C21_33  and  C22_34 
REMARK    8  A    between atoms: C22_34  and  O1_35 
ROOT
HETATM    1  C3  UNL     1      -1.048  21.969   4.957  1.00  0.00     0.036 A 
HETATM    2  C4  UNL     1      -1.892  22.872   5.630  1.00  0.00     0.028 A 
HETATM    3  C5  UNL     1      -1.851  23.129   6.972  1.00  0.00    -0.014 A 
HETATM    4  C18 UNL     1      -0.902  22.433   7.688  1.00  0.00     0.098 A 
HETATM    5  N4  UNL     1      -0.071  21.558   7.104  1.00  0.00    -0.351 N 
ATOM      6  H4  UNL     1       0.619  21.062   7.667  1.00  0.00     0.166 HD
HETATM    7  C19 UNL     1      -0.143  21.323   5.747  1.00  0.00     0.111 A 
HETATM    8  N5  UNL     1       0.631  20.401   5.278  1.00  0.00    -0.385 N 
ATOM      9  H51 UNL     1       1.308  19.919   5.868  1.00  0.00     0.157 HD
ATOM     10  H52 UNL     1       0.578  20.227   4.274  1.00  0.00     0.157 HD
ENDROOT
BRANCH   3  11
HETATM   11  C6  UNL     1      -2.735  24.072   7.661  1.00  0.00     0.313 C 
BRANCH  11  12
HETATM   12  N2  UNL     1      -2.837  23.774   9.111  1.00  0.00     0.097 N 
BRANCH  12  13
HETATM   13  C7  UNL     1      -2.496  25.038   9.742  1.00  0.00     0.279 C 
BRANCH  13  14
HETATM   14  C8  UNL     1      -2.746  26.245   8.916  1.00  0.00     0.041 C 
HETATM   15  C9  UNL     1      -4.117  26.851   9.158  1.00  0.00     0.035 C 
HETATM   16  C10 UNL     1      -3.929  27.526  10.486  1.00  0.00     0.232 C 
HETATM   17  N3  UNL     1      -2.622  28.101  10.393  1.00  0.00    -0.075 N 
HETATM   18  C11 UNL     1      -1.841  27.353   9.452  1.00  0.00     0.238 C 
ATOM     19  H32 UNL     1      -2.652  29.095  10.167  1.00  0.00     0.277 HD
ATOM     20  H31 UNL     1      -2.167  28.173  11.303  1.00  0.00     0.277 HD
ENDBRANCH  13  14
ENDBRANCH  12  13
BRANCH  12  21
HETATM   21  C12 UNL     1      -4.208  23.380   9.293  1.00  0.00     0.223 C 
HETATM   22  C13 UNL     1      -4.556  21.987   8.873  1.00  0.00     0.036 C 
HETATM   23  C14 UNL     1      -6.071  22.016   8.585  1.00  0.00     0.002 C 
HETATM   24  C15 UNL     1      -6.841  22.462   9.790  1.00  0.00     0.000 C 
HETATM   25  C16 UNL     1      -6.270  23.663  10.496  1.00  0.00     0.002 C 
HETATM   26  C17 UNL     1      -4.764  23.607  10.666  1.00  0.00     0.036 C 
ENDBRANCH  12  21
ENDBRANCH  11  12
ENDBRANCH   3  11
BRANCH   1  27
HETATM   27  C2  UNL     1      -1.284  21.763   3.547  1.00  0.00     0.065 A 
HETATM   28  N1  UNL     1      -1.054  20.763   2.714  1.00  0.00    -0.337 N 
HETATM   29  C1  UNL     1      -0.475  19.446   2.919  1.00  0.00     0.158 C 
HETATM   30  C21 UNL     1      -1.370  21.159   1.441  1.00  0.00     0.107 A 
HETATM   31  N6  UNL     1      -1.795  22.417   1.487  1.00  0.00    -0.352 N 
HETATM   32  C20 UNL     1      -1.757  22.822   2.747  1.00  0.00     0.120 A 
ATOM     33  H6  UNL     1      -2.098  22.976   0.689  1.00  0.00     0.166 HD
BRANCH  30  34
HETATM   34  C22 UNL     1      -1.280  20.378   0.180  1.00  0.00     0.240 C 
BRANCH  34  35
HETATM   35  O1  UNL     1      -2.488  19.701   0.030  1.00  0.00    -0.393 OA
ATOM     36  H1  UNL     1      -2.280  18.796  -0.170  1.00  0.00     0.209 HD
ENDBRANCH  34  35
ENDBRANCH  30  34
ENDBRANCH   1  27
TORSDOF 8
ENDMDL
MODEL 2
REMARK VINA RESULT: -8.931084036      3.695      6.414
REMARK  8 active torsions:
REMARK  status: ('A' for Active; 'I' for Inactive)
REMARK    1  A    between atoms: C2_3  and  C3_4 
REMARK    2  A    between atoms: C5_6  and  C6_7 
REMARK    3  A    between atoms: C6_7  and  N2_8 
REMARK    4  A    between atoms: N2_8  and  C7_9 
REMARK    5  A    between atoms: N2_8  and  C12_17 
REMARK    6  A    between atoms: C7_9  and  C8_10 
REMARK    7  A    between atoms: C21_33  and  C22_34 
REMARK    8  A    between atoms: C22_34  and  O1_35 
ROOT
HETATM    1  C3  UNL     1      -6.633  21.721   9.648  1.00  0.00     0.036 A 
HETATM    2  C4  UNL     1      -5.263  22.037   9.707  1.00  0.00     0.028 A 
HETATM    3  C5  UNL     1      -4.734  23.094  10.394  1.00  0.00    -0.014 A 
HETATM    4  C18 UNL     1      -5.638  23.888  11.064  1.00  0.00     0.098 A 
HETATM    5  N4  UNL     1      -6.954  23.639  11.044  1.00  0.00    -0.351 N 
ATOM      6  H4  UNL     1      -7.593  24.249  11.554  1.00  0.00     0.166 HD
HETATM    7  C19 UNL     1      -7.452  22.564  10.338  1.00  0.00     0.111 A 
HETATM    8  N5  UNL     1      -8.739  22.445  10.296  1.00  0.00    -0.385 N 
ATOM      9  H51 UNL     1      -9.352  23.075  10.813  1.00  0.00     0.157 HD
ATOM     10  H52 UNL     1      -9.108  21.650   9.775  1.00  0.00     0.157 HD
ENDROOT
BRANCH   3  11
HETATM   11  C6  UNL     1      -3.305  23.414  10.447  1.00  0.00     0.313 C 
BRANCH  11  12
HETATM   12  N2  UNL     1      -2.922  24.404   9.412  1.00  0.00     0.097 N 
BRANCH  12  13
HETATM   13  C7  UNL     1      -2.126  25.374  10.146  1.00  0.00     0.279 C 
BRANCH  13  14
HETATM   14  C8  UNL     1      -2.583  26.782  10.032  1.00  0.00     0.041 C 
HETATM   15  C9  UNL     1      -3.925  27.021  10.699  1.00  0.00     0.035 C 
HETATM   16  C10 UNL     1      -3.554  27.025  12.154  1.00  0.00     0.232 C 
HETATM   17  N3  UNL     1      -2.317  27.744  12.187  1.00  0.00    -0.075 N 
HETATM   18  C11 UNL     1      -1.665  27.626  10.916  1.00  0.00     0.238 C 
ATOM     19  H32 UNL     1      -2.443  28.717  12.467  1.00  0.00     0.277 HD
ATOM     20  H31 UNL     1      -1.719  27.447  12.958  1.00  0.00     0.277 HD
ENDBRANCH  13  14
ENDBRANCH  12  13
BRANCH  12  21
HETATM   21  C12 UNL     1      -2.172  23.639   8.453  1.00  0.00     0.223 C 
HETATM   22  C13 UNL     1      -1.505  22.403   8.971  1.00  0.00     0.036 C 
HETATM   23  C14 UNL     1      -0.337  22.134   8.000  1.00  0.00     0.002 C 
HETATM   24  C15 UNL     1      -0.829  21.975   6.594  1.00  0.00     0.000 C 
HETATM   25  C16 UNL     1      -1.841  23.003   6.159  1.00  0.00     0.002 C 
HETATM   26  C17 UNL     1      -2.908  23.281   7.198  1.00  0.00     0.036 C 
ENDBRANCH  12  21
ENDBRANCH  11  12
ENDBRANCH   3  11
BRANCH   1  27
HETATM   27  C2  UNL     1      -7.023  20.611   8.809  1.00  0.00     0.065 A 
HETATM   28  N1  UNL     1      -7.217  19.322   9.024  1.00  0.00    -0.337 N 
HETATM   29  C1  UNL     1      -7.122  18.517  10.231  1.00  0.00     0.158 C 
HETATM   30  C21 UNL     1      -7.461  18.700   7.829  1.00  0.00     0.107 A 
HETATM   31  N6  UNL     1      -7.415  19.613   6.864  1.00  0.00    -0.352 N 
HETATM   32  C20 UNL     1      -7.150  20.788   7.417  1.00  0.00     0.120 A 
ATOM     33  H6  UNL     1      -7.558  19.440   5.869  1.00  0.00     0.166 HD
BRANCH  30  34
HETATM   34  C22 UNL     1      -7.739  17.263   7.573  1.00  0.00     0.240 C 
BRANCH  34  35
HETATM   35  O1  UNL     1      -7.380  17.003   6.252  1.00  0.00    -0.393 OA
ATOM     36  H1  UNL     1      -7.280  16.062   6.168  1.00  0.00     0.209 HD
ENDBRANCH  34  35
ENDBRANCH  30  34
ENDBRANCH   1  27
TORSDOF 8
ENDMDL
MODEL 3
REMARK VINA RESULT: -8.876696856      2.405      4.917
REMARK  8 active torsions:
REMARK  status: ('A' for Active; 'I' for Inactive)
REMARK    1  A    between atoms: C2_3  and  C3_4 
REMARK    2  A    between atoms: C5_6  and  C6_7 
REMARK    3  A    between atoms: C6_7  and  N2_8 
REMARK    4  A    between atoms: N2_8  and  C7_9 
REMARK    5  A    between atoms: N2_8  and  C12_17 
REMARK    6  A    between atoms: C7_9  and  C8_10 
REMARK    7  A    between atoms: C21_33  and  C22_34 
REMARK    8  A    between atoms: C22_34  and  O1_35 
ROOT
HETATM    1  C3  UNL     1      -1.804  22.895   8.029  1.00  0.00     0.036 A 
HETATM    2  C4  UNL     1      -3.095  22.732   8.565  1.00  0.00     0.028 A 
HETATM    3  C5  UNL     1      -3.417  22.871   9.886  1.00  0.00    -0.014 A 
HETATM    4  C18 UNL     1      -2.374  23.193  10.727  1.00  0.00     0.098 A 
HETATM    5  N4  UNL     1      -1.123  23.359  10.277  1.00  0.00    -0.351 N 
ATOM      6  H4  UNL     1      -0.377  23.598  10.930  1.00  0.00     0.166 HD
HETATM    7  C19 UNL     1      -0.836  23.209   8.936  1.00  0.00     0.111 A 
HETATM    8  N5  UNL     1       0.408  23.298   8.597  1.00  0.00    -0.385 N 
ATOM      9  H51 UNL     1       1.132  23.533   9.275  1.00  0.00     0.157 HD
ATOM     10  H52 UNL     1       0.620  23.187   7.606  1.00  0.00     0.157 HD
ENDROOT
BRANCH   3  11
HETATM   11  C6  UNL     1      -4.765  22.699  10.433  1.00  0.00     0.313 C 
BRANCH  11  12
HETATM   12  N2  UNL     1      -5.808  22.861   9.390  1.00  0.00     0.097 N 
BRANCH  12  13
HETATM   13  C7  UNL     1      -6.622  21.665   9.534  1.00  0.00     0.279 C 
BRANCH  13  14
HETATM   14  C8  UNL     1      -6.023  20.424   8.984  1.00  0.00     0.041 C 
HETATM   15  C9  UNL     1      -6.126  19.248   9.937  1.00  0.00     0.035 C 
HETATM   16  C10 UNL     1      -7.574  18.870   9.812  1.00  0.00     0.232 C 
HETATM   17  N3  UNL     1      -7.840  19.005   8.412  1.00  0.00    -0.075 N 
HETATM   18  C11 UNL     1      -6.928  19.954   7.845  1.00  0.00     0.238 C 
ATOM     19  H32 UNL     1      -7.817  18.109   7.926  1.00  0.00     0.277 HD
ATOM     20  H31 UNL     1      -8.814  19.246   8.226  1.00  0.00     0.277 HD
ENDBRANCH  13  14
ENDBRANCH  12  13
BRANCH  12  21
HETATM   21  C12 UNL     1      -6.485  24.076   9.756  1.00  0.00     0.223 C 
HETATM   22  C13 UNL     1      -7.102  24.104  11.119  1.00  0.00     0.036 C 
HETATM   23  C14 UNL     1      -8.221  25.162  11.036  1.00  0.00     0.002 C 
HETATM   24  C15 UNL     1      -7.676  26.495  10.626  1.00  0.00     0.000 C 
HETATM   25  C16 UNL     1      -6.706  26.453   9.473  1.00  0.00     0.002 C 
HETATM   26  C17 UNL     1      -5.689  25.334   9.577  1.00  0.00     0.036 C 
ENDBRANCH  12  21
ENDBRANCH  11  12
ENDBRANCH   3  11
BRANCH   1  27
HETATM   27  C2  UNL     1      -1.632  22.633   6.619  1.00  0.00     0.065 A 
HETATM   28  N1  UNL     1      -0.851  21.825   5.924  1.00  0.00    -0.337 N 
HETATM   29  C1  UNL     1       0.147  20.852   6.337  1.00  0.00     0.158 C 
HETATM   30  C21 UNL     1      -1.019  22.078   4.589  1.00  0.00     0.107 A 
HETATM   31  N6  UNL     1      -1.910  23.055   4.456  1.00  0.00    -0.352 N 
HETATM   32  C20 UNL     1      -2.307  23.421   5.666  1.00  0.00     0.120 A 
ATOM     33  H6  UNL     1      -2.233  23.454   3.575  1.00  0.00     0.166 HD
BRANCH  30  34
HETATM   34  C22 UNL     1      -0.359  21.419   3.432  1.00  0.00     0.240 C 
BRANCH  34  35
HETATM   35  O1  UNL     1      -0.906  21.972   2.276  1.00  0.00    -0.393 OA
ATOM     36  H1  UNL     1      -1.746  21.552   2.135  1.00  0.00     0.209 HD
ENDBRANCH  34  35
ENDBRANCH  30  34
ENDBRANCH   1  27
TORSDOF 8
ENDMDL
MODEL 4
REMARK VINA RESULT: -8.860879448      4.772      9.040
REMARK  8 active torsions:
REMARK  status: ('A' for Active; 'I' for Inactive)
REMARK    1  A    between atoms: C2_3  and  C3_4 
REMARK    2  A    between atoms: C5_6  and  C6_7 
REMARK    3  A    between atoms: C6_7  and  N2_8 
REMARK    4  A    between atoms: N2_8  and  C7_9 
REMARK    5  A    between atoms: N2_8  and  C12_17 
REMARK    6  A    between atoms: C7_9  and  C8_10 
REMARK    7  A    between atoms: C21_33  and  C22_34 
REMARK    8  A    between atoms: C22_34  and  O1_35 
ROOT
HETATM    1  C3  UNL     1      -1.506  29.430  10.878  1.00  0.00     0.036 A 
HETATM    2  C4  UNL     1      -1.654  28.477   9.853  1.00  0.00     0.028 A 
HETATM    3  C5  UNL     1      -2.358  27.311   9.965  1.00  0.00    -0.014 A 
HETATM    4  C18 UNL     1      -2.953  27.083  11.187  1.00  0.00     0.098 A 
HETATM    5  N4  UNL     1      -2.846  27.951  12.202  1.00  0.00    -0.351 N 
ATOM      6  H4  UNL     1      -3.301  27.749  13.092  1.00  0.00     0.166 HD
HETATM    7  C19 UNL     1      -2.125  29.118  12.052  1.00  0.00     0.111 A 
HETATM    8  N5  UNL     1      -1.997  29.858  13.104  1.00  0.00    -0.385 N 
ATOM      9  H51 UNL     1      -2.460  29.625  13.982  1.00  0.00     0.157 HD
ATOM     10  H52 UNL     1      -1.464  30.721  12.994  1.00  0.00     0.157 HD
ENDROOT
BRANCH   3  11
HETATM   11  C6  UNL     1      -2.505  26.326   8.891  1.00  0.00     0.313 C 
BRANCH  11  12
HETATM   12  N2  UNL     1      -2.970  25.015   9.403  1.00  0.00     0.097 N 
BRANCH  12  13
HETATM   13  C7  UNL     1      -4.376  24.984   9.034  1.00  0.00     0.279 C 
BRANCH  13  14
HETATM   14  C8  UNL     1      -5.314  24.674  10.141  1.00  0.00     0.041 C 
HETATM   15  C9  UNL     1      -6.438  23.746   9.718  1.00  0.00     0.035 C 
HETATM   16  C10 UNL     1      -5.736  22.421   9.644  1.00  0.00     0.232 C 
HETATM   17  N3  UNL     1      -4.869  22.431  10.782  1.00  0.00    -0.075 N 
HETATM   18  C11 UNL     1      -4.562  23.787  11.132  1.00  0.00     0.238 C 
ATOM     19  H32 UNL     1      -5.255  21.907  11.567  1.00  0.00     0.277 HD
ATOM     20  H31 UNL     1      -4.029  21.871  10.632  1.00  0.00     0.277 HD
ENDBRANCH  13  14
ENDBRANCH  12  13
BRANCH  12  21
HETATM   21  C12 UNL     1      -2.161  24.055   8.703  1.00  0.00     0.223 C 
HETATM   22  C13 UNL     1      -1.452  23.045   9.549  1.00  0.00     0.036 C 
HETATM   23  C14 UNL     1      -0.248  22.580   8.705  1.00  0.00     0.002 C 
HETATM   24  C15 UNL     1      -0.694  22.017   7.391  1.00  0.00     0.000 C 
HETATM   25  C16 UNL     1      -1.739  22.833   6.676  1.00  0.00     0.002 C 
HETATM   26  C17 UNL     1      -2.846  23.330   7.585  1.00  0.00     0.036 C 
ENDBRANCH  12  21
ENDBRANCH  11  12
ENDBRANCH   3  11
BRANCH   1  27
HETATM   27  C2  UNL     1      -0.661  30.570  10.609  1.00  0.00     0.065 A 
HETATM   28  N1  UNL     1      -0.789  31.652   9.861  1.00  0.00    -0.337 N 
HETATM   29  C1  UNL     1      -1.875  32.120   9.015  1.00  0.00     0.158 C 
HETATM   30  C21 UNL     1       0.388  32.351   9.879  1.00  0.00     0.107 A 
HETATM   31  N6  UNL     1       1.254  31.694  10.644  1.00  0.00    -0.352 N 
HETATM   32  C20 UNL     1       0.657  30.606  11.106  1.00  0.00     0.120 A 
ATOM     33  H6  UNL     1       2.214  31.979  10.841  1.00  0.00     0.166 HD
BRANCH  30  34
HETATM   34  C22 UNL     1       0.716  33.628   9.193  1.00  0.00     0.240 C 
BRANCH  34  35
HETATM   35  O1  UNL     1       1.979  33.476   8.624  1.00  0.00    -0.393 OA
ATOM     36  H1  UNL     1       1.926  32.749   8.015  1.00  0.00     0.209 HD
ENDBRANCH  34  35
ENDBRANCH  30  34
ENDBRANCH   1  27
TORSDOF 8
ENDMDL
MODEL 5
REMARK VINA RESULT: -8.785551568      2.166      4.628
REMARK  8 active torsions:
REMARK  status: ('A' for Active; 'I' for Inactive)
REMARK    1  A    between atoms: C2_3  and  C3_4 
REMARK    2  A    between atoms: C5_6  and  C6_7 
REMARK    3  A    between atoms: C6_7  and  N2_8 
REMARK    4  A    between atoms: N2_8  and  C7_9 
REMARK    5  A    between atoms: N2_8  and  C12_17 
REMARK    6  A    between atoms: C7_9  and  C8_10 
REMARK    7  A    between atoms: C21_33  and  C22_34 
REMARK    8  A    between atoms: C22_34  and  O1_35 
ROOT
HETATM    1  C3  UNL     1      -1.592  22.932   8.019  1.00  0.00     0.036 A 
HETATM    2  C4  UNL     1      -2.855  22.901   8.638  1.00  0.00     0.028 A 
HETATM    3  C5  UNL     1      -3.074  23.070   9.977  1.00  0.00    -0.014 A 
HETATM    4  C18 UNL     1      -1.952  23.284  10.747  1.00  0.00     0.098 A 
HETATM    5  N4  UNL     1      -0.722  23.322  10.216  1.00  0.00    -0.351 N 
ATOM      6  H4  UNL     1       0.085  23.483  10.818  1.00  0.00     0.166 HD
HETATM    7  C19 UNL     1      -0.540  23.145   8.860  1.00  0.00     0.111 A 
HETATM    8  N5  UNL     1       0.682  23.108   8.441  1.00  0.00    -0.385 N 
ATOM      9  H51 UNL     1       1.469  23.267   9.070  1.00  0.00     0.157 HD
ATOM     10  H52 UNL     1       0.818  22.977   7.439  1.00  0.00     0.157 HD
ENDROOT
BRANCH   3  11
HETATM   11  C6  UNL     1      -4.395  23.035  10.610  1.00  0.00     0.313 C 
BRANCH  11  12
HETATM   12  N2  UNL     1      -5.440  23.629   9.741  1.00  0.00     0.097 N 
BRANCH  12  13
HETATM   13  C7  UNL     1      -6.673  23.053  10.250  1.00  0.00     0.279 C 
BRANCH  13  14
HETATM   14  C8  UNL     1      -7.404  22.182   9.295  1.00  0.00     0.041 C 
HETATM   15  C9  UNL     1      -6.500  21.176   8.606  1.00  0.00     0.035 C 
HETATM   16  C10 UNL     1      -6.269  20.168   9.694  1.00  0.00     0.232 C 
HETATM   17  N3  UNL     1      -7.549  20.045  10.321  1.00  0.00    -0.075 N 
HETATM   18  C11 UNL     1      -8.293  21.254  10.122  1.00  0.00     0.238 C 
ATOM     19  H32 UNL     1      -8.058  19.221  10.002  1.00  0.00     0.277 HD
ATOM     20  H31 UNL     1      -7.473  19.795  11.308  1.00  0.00     0.277 HD
ENDBRANCH  13  14
ENDBRANCH  12  13
BRANCH  12  21
HETATM   21  C12 UNL     1      -5.320  25.045   9.965  1.00  0.00     0.223 C 
HETATM   22  C13 UNL     1      -6.383  25.902   9.353  1.00  0.00     0.036 C 
HETATM   23  C14 UNL     1      -5.739  27.295   9.194  1.00  0.00     0.002 C 
HETATM   24  C15 UNL     1      -5.263  27.824  10.511  1.00  0.00     0.000 C 
HETATM   25  C16 UNL     1      -4.510  26.830  11.356  1.00  0.00     0.002 C 
HETATM   26  C17 UNL     1      -5.153  25.458  11.395  1.00  0.00     0.036 C 
ENDBRANCH  12  21
ENDBRANCH  11  12
ENDBRANCH   3  11
BRANCH   1  27
HETATM   27  C2  UNL     1      -1.539  22.656   6.602  1.00  0.00     0.065 A 
HETATM   28  N1  UNL     1      -0.838  21.820   5.856  1.00  0.00    -0.337 N 
HETATM   29  C1  UNL     1       0.162  20.822   6.198  1.00  0.00     0.158 C 
HETATM   30  C21 UNL     1      -1.103  22.069   4.535  1.00  0.00     0.107 A 
HETATM   31  N6  UNL     1      -1.974  23.071   4.465  1.00  0.00    -0.352 N 
HETATM   32  C20 UNL     1      -2.263  23.457   5.698  1.00  0.00     0.120 A 
ATOM     33  H6  UNL     1      -2.353  23.474   3.608  1.00  0.00     0.166 HD
BRANCH  30  34
HETATM   34  C22 UNL     1      -0.556  21.383   3.336  1.00  0.00     0.240 C 
BRANCH  34  35
HETATM   35  O1  UNL     1      -1.080  22.028   2.218  1.00  0.00    -0.393 OA
ATOM     36  H1  UNL     1      -1.707  21.436   1.821  1.00  0.00     0.209 HD
ENDBRANCH  34  35
ENDBRANCH  30  34
ENDBRANCH   1  27
TORSDOF 8
ENDMDL
