MODEL 1
REMARK VINA RESULT: -9.181921073      0.000      0.000
REMARK  8 active torsions:
REMARK  status: ('A' for Active; 'I' for Inactive)
REMARK    1  A    between atoms: C2_5  and  S1_6 
REMARK    2  A    between atoms: S1_6  and  C3_7 
REMARK    3  A    between atoms: C3_7  and  C4_8 
REMARK    4  A    between atoms: C8_17  and  O2_18 
REMARK    5  A    between atoms: C9_20  and  C10_21 
REMARK    6  A    between atoms: C10_21  and  C11_22 
REMARK    7  A    between atoms: C13_24  and  C14_25 
REMARK    8  A    between atoms: N4_26  and  C15_28 
ROOT
HETATM    1  O1  UNL     1      -0.739  21.651   9.059  1.00  0.00    -0.267 OA
HETATM    2  C1  UNL     1      -0.944  21.930   7.844  1.00  0.00     0.258 A 
HETATM    3  N1  UNL     1      -0.267  21.269   6.860  1.00  0.00    -0.303 N 
ATOM      4  H1  UNL     1       0.402  20.550   7.132  1.00  0.00     0.171 HD
HETATM    5  C2  UNL     1      -0.438  21.518   5.555  1.00  0.00     0.148 A 
HETATM    6  N3  UNL     1      -1.324  22.469   5.210  1.00  0.00    -0.317 N 
ATOM      7  H3  UNL     1      -1.474  22.678   4.222  1.00  0.00     0.170 HD
HETATM    8  C8  UNL     1      -2.017  23.150   6.139  1.00  0.00     0.154 A 
HETATM    9  C9  UNL     1      -1.850  22.903   7.506  1.00  0.00     0.066 A 
ENDROOT
BRANCH   9  10
HETATM   10  C10 UNL     1      -2.638  23.671   8.500  1.00  0.00     0.106 C 
BRANCH  10  11
HETATM   11  C11 UNL     1      -3.983  22.999   8.620  1.00  0.00     0.014 A 
HETATM   12  C12 UNL     1      -4.170  21.795   9.247  1.00  0.00     0.039 A 
HETATM   13  C13 UNL     1      -5.540  21.506   9.141  1.00  0.00    -0.004 A 
HETATM   14  C20 UNL     1      -6.129  22.537   8.460  1.00  0.00     0.101 A 
HETATM   15  N5  UNL     1      -5.155  23.419   8.161  1.00  0.00    -0.368 N 
ATOM     16  H5  UNL     1      -5.299  24.291   7.652  1.00  0.00     0.165 HD
BRANCH  13  17
HETATM   17  C14 UNL     1      -6.149  20.313   9.682  1.00  0.00     0.096 C 
HETATM   18  N4  UNL     1      -6.524  19.337   9.043  1.00  0.00    -0.393 N 
ATOM     19  H4  UNL     1      -6.913  18.656   9.694  1.00  0.00     0.159 HD
BRANCH  18  20
HETATM   20  C15 UNL     1      -6.615  18.820   7.766  1.00  0.00     0.081 C 
HETATM   21  C16 UNL     1      -6.919  17.313   7.822  1.00  0.00     0.025 C 
HETATM   22  C17 UNL     1      -8.235  17.342   8.601  1.00  0.00     0.002 C 
HETATM   23  C18 UNL     1      -8.919  18.643   8.194  1.00  0.00     0.002 C 
HETATM   24  C19 UNL     1      -7.975  19.281   7.173  1.00  0.00     0.025 C 
ENDBRANCH  18  20
ENDBRANCH  13  17
ENDBRANCH  10  11
ENDBRANCH   9  10
BRANCH   8  25
HETATM   25  O2  UNL     1      -2.938  24.139   5.804  1.00  0.00    -0.345 OA
ATOM     26  H2  UNL     1      -3.149  24.856   6.392  1.00  0.00     0.219 HD
ENDBRANCH   8  25
BRANCH   5  27
HETATM   27  S1  UNL     1       0.466  20.631   4.287  1.00  0.00    -0.093 SA
BRANCH  27  28
HETATM   28  C3  UNL     1      -0.538  19.370   3.506  1.00  0.00     0.088 C 
BRANCH  28  29
HETATM   29  C4  UNL     1      -0.873  19.705   2.069  1.00  0.00     0.022 C 
HETATM   30  C5  UNL     1       0.370  19.648   1.190  1.00  0.00     0.034 C 
HETATM   31  C6  UNL     1      -0.089  20.484   0.013  1.00  0.00     0.232 C 
HETATM   32  N2  UNL     1      -1.044  21.428   0.533  1.00  0.00    -0.075 N 
HETATM   33  C7  UNL     1      -1.239  21.171   1.925  1.00  0.00     0.237 C 
ATOM     34  H22 UNL     1      -0.775  22.395   0.350  1.00  0.00     0.277 HD
ATOM     35  H21 UNL     1      -1.921  21.424   0.010  1.00  0.00     0.277 HD
ENDBRANCH  28  29
ENDBRANCH  27  28
ENDBRANCH   5  27
TORSDOF 8
ENDMDL
MODEL 2
REMARK VINA RESULT: -9.132095074      4.777      8.806
REMARK  8 active torsions:
REMARK  status: ('A' for Active; 'I' for Inactive)
REMARK    1  A    between atoms: C2_5  and  S1_6 
REMARK    2  A    between atoms: S1_6  and  C3_7 
REMARK    3  A    between atoms: C3_7  and  C4_8 
REMARK    4  A    between atoms: C8_17  and  O2_18 
REMARK    5  A    between atoms: C9_20  and  C10_21 
REMARK    6  A    between atoms: C10_21  and  C11_22 
REMARK    7  A    between atoms: C13_24  and  C14_25 
REMARK    8  A    between atoms: N4_26  and  C15_28 
ROOT
HETATM    1  O1  UNL     1      -3.164  23.439  10.830  1.00  0.00    -0.267 OA
HETATM    2  C1  UNL     1      -2.878  24.539  10.277  1.00  0.00     0.258 A 
HETATM    3  N1  UNL     1      -2.441  25.595  11.023  1.00  0.00    -0.303 N 
ATOM      4  H1  UNL     1      -2.352  25.470  12.032  1.00  0.00     0.171 HD
HETATM    5  C2  UNL     1      -2.123  26.785  10.499  1.00  0.00     0.148 A 
HETATM    6  N3  UNL     1      -2.244  26.935   9.168  1.00  0.00    -0.317 N 
ATOM      7  H3  UNL     1      -2.008  27.832   8.743  1.00  0.00     0.170 HD
HETATM    8  C8  UNL     1      -2.671  25.928   8.386  1.00  0.00     0.154 A 
HETATM    9  C9  UNL     1      -3.007  24.678   8.918  1.00  0.00     0.066 A 
ENDROOT
BRANCH   9  10
HETATM   10  C10 UNL     1      -3.467  23.590   8.022  1.00  0.00     0.106 C 
BRANCH  10  11
HETATM   11  C11 UNL     1      -2.256  22.765   7.663  1.00  0.00     0.014 A 
HETATM   12  C12 UNL     1      -1.685  22.770   6.417  1.00  0.00     0.039 A 
HETATM   13  C13 UNL     1      -0.601  21.880   6.479  1.00  0.00    -0.004 A 
HETATM   14  C20 UNL     1      -0.556  21.371   7.750  1.00  0.00     0.101 A 
HETATM   15  N5  UNL     1      -1.573  21.931   8.434  1.00  0.00    -0.368 N 
ATOM     16  H5  UNL     1      -1.788  21.739   9.412  1.00  0.00     0.165 HD
BRANCH  13  17
HETATM   17  C14 UNL     1       0.269  21.600   5.361  1.00  0.00     0.096 C 
HETATM   18  N4  UNL     1      -0.006  20.916   4.382  1.00  0.00    -0.393 N 
ATOM     19  H4  UNL     1       0.804  20.899   3.763  1.00  0.00     0.159 HD
BRANCH  18  20
HETATM   20  C15 UNL     1      -1.008  20.159   3.808  1.00  0.00     0.081 C 
HETATM   21  C16 UNL     1      -1.421  20.761   2.453  1.00  0.00     0.025 C 
HETATM   22  C17 UNL     1      -0.077  20.708   1.726  1.00  0.00     0.002 C 
HETATM   23  C18 UNL     1       0.634  19.475   2.272  1.00  0.00     0.002 C 
HETATM   24  C19 UNL     1      -0.355  18.859   3.264  1.00  0.00     0.025 C 
ENDBRANCH  18  20
ENDBRANCH  13  17
ENDBRANCH  10  11
ENDBRANCH   9  10
BRANCH   8  25
HETATM   25  O2  UNL     1      -2.805  26.062   7.007  1.00  0.00    -0.345 OA
ATOM     26  H2  UNL     1      -2.468  25.413   6.399  1.00  0.00     0.219 HD
ENDBRANCH   8  25
BRANCH   5  27
HETATM   27  S1  UNL     1      -1.550  28.152  11.508  1.00  0.00    -0.093 SA
BRANCH  27  28
HETATM   28  C3  UNL     1      -2.017  29.735  10.816  1.00  0.00     0.088 C 
BRANCH  28  29
HETATM   29  C4  UNL     1      -0.955  30.793  11.024  1.00  0.00     0.022 C 
HETATM   30  C5  UNL     1      -0.718  31.588   9.746  1.00  0.00     0.034 C 
HETATM   31  C6  UNL     1       0.654  32.164  10.033  1.00  0.00     0.232 C 
HETATM   32  N2  UNL     1       1.316  31.224  10.900  1.00  0.00    -0.075 N 
HETATM   33  C7  UNL     1       0.412  30.160  11.206  1.00  0.00     0.237 C 
ATOM     34  H22 UNL     1       2.196  30.887  10.510  1.00  0.00     0.277 HD
ATOM     35  H21 UNL     1       1.694  31.666  11.739  1.00  0.00     0.277 HD
ENDBRANCH  28  29
ENDBRANCH  27  28
ENDBRANCH   5  27
TORSDOF 8
ENDMDL
MODEL 3
REMARK VINA RESULT: -9.112486275      4.146      8.640
REMARK  8 active torsions:
REMARK  status: ('A' for Active; 'I' for Inactive)
REMARK    1  A    between atoms: C2_5  and  S1_6 
REMARK    2  A    between atoms: S1_6  and  C3_7 
REMARK    3  A    between atoms: C3_7  and  C4_8 
REMARK    4  A    between atoms: C8_17  and  O2_18 
REMARK    5  A    between atoms: C9_20  and  C10_21 
REMARK    6  A    between atoms: C10_21  and  C11_22 
REMARK    7  A    between atoms: C13_24  and  C14_25 
REMARK    8  A    between atoms: N4_26  and  C15_28 
ROOT
HETATM    1  O1  UNL     1      -4.315  23.143   8.315  1.00  0.00    -0.267 OA
HETATM    2  C1  UNL     1      -3.569  23.781   9.111  1.00  0.00     0.258 A 
HETATM    3  N1  UNL     1      -3.946  25.005   9.581  1.00  0.00    -0.303 N 
ATOM      4  H1  UNL     1      -4.841  25.386   9.275  1.00  0.00     0.171 HD
HETATM    5  C2  UNL     1      -3.201  25.730  10.426  1.00  0.00     0.148 A 
HETATM    6  N3  UNL     1      -2.024  25.215  10.822  1.00  0.00    -0.317 N 
ATOM      7  H3  UNL     1      -1.437  25.747  11.465  1.00  0.00     0.170 HD
HETATM    8  C8  UNL     1      -1.604  24.014  10.388  1.00  0.00     0.154 A 
HETATM    9  C9  UNL     1      -2.370  23.243   9.507  1.00  0.00     0.066 A 
ENDROOT
BRANCH   9  10
HETATM   10  C10 UNL     1      -1.875  21.920   9.057  1.00  0.00     0.106 C 
BRANCH  10  11
HETATM   11  C11 UNL     1      -1.502  22.053   7.602  1.00  0.00     0.014 A 
HETATM   12  C12 UNL     1      -0.464  21.367   7.026  1.00  0.00     0.039 A 
HETATM   13  C13 UNL     1      -0.433  21.763   5.679  1.00  0.00    -0.004 A 
HETATM   14  C20 UNL     1      -1.444  22.667   5.489  1.00  0.00     0.101 A 
HETATM   15  N5  UNL     1      -2.066  22.815   6.676  1.00  0.00    -0.368 N 
ATOM     16  H5  UNL     1      -2.863  23.431   6.839  1.00  0.00     0.165 HD
BRANCH  13  17
HETATM   17  C14 UNL     1       0.525  21.262   4.721  1.00  0.00     0.096 C 
HETATM   18  N4  UNL     1       0.306  20.439   3.840  1.00  0.00    -0.393 N 
ATOM     19  H4  UNL     1       1.171  20.282   3.323  1.00  0.00     0.159 HD
BRANCH  18  20
HETATM   20  C15 UNL     1      -0.681  19.645   3.288  1.00  0.00     0.081 C 
HETATM   21  C16 UNL     1      -1.469  20.435   2.229  1.00  0.00     0.025 C 
HETATM   22  C17 UNL     1      -0.330  20.802   1.277  1.00  0.00     0.002 C 
HETATM   23  C18 UNL     1       0.654  19.640   1.354  1.00  0.00     0.002 C 
HETATM   24  C19 UNL     1       0.013  18.645   2.323  1.00  0.00     0.025 C 
ENDBRANCH  18  20
ENDBRANCH  13  17
ENDBRANCH  10  11
ENDBRANCH   9  10
BRANCH   8  25
HETATM   25  O2  UNL     1      -0.389  23.462  10.785  1.00  0.00    -0.345 OA
ATOM     26  H2  UNL     1      -0.273  23.045  11.631  1.00  0.00     0.219 HD
ENDBRANCH   8  25
BRANCH   5  27
HETATM   27  S1  UNL     1      -3.726  27.335  11.026  1.00  0.00    -0.093 SA
BRANCH  27  28
HETATM   28  C3  UNL     1      -3.041  28.671  10.052  1.00  0.00     0.088 C 
BRANCH  28  29
HETATM   29  C4  UNL     1      -1.925  29.398  10.771  1.00  0.00     0.022 C 
HETATM   30  C5  UNL     1      -1.463  30.613   9.976  1.00  0.00     0.034 C 
HETATM   31  C6  UNL     1      -0.093  30.833  10.585  1.00  0.00     0.232 C 
HETATM   32  N2  UNL     1       0.372  29.539  11.017  1.00  0.00    -0.075 N 
HETATM   33  C7  UNL     1      -0.652  28.573  10.770  1.00  0.00     0.237 C 
ATOM     34  H22 UNL     1       1.261  29.282  10.588  1.00  0.00     0.277 HD
ATOM     35  H21 UNL     1       0.680  29.541  11.990  1.00  0.00     0.277 HD
ENDBRANCH  28  29
ENDBRANCH  27  28
ENDBRANCH   5  27
TORSDOF 8
ENDMDL
MODEL 4
REMARK VINA RESULT: -9.089922207      4.469      9.441
REMARK  8 active torsions:
REMARK  status: ('A' for Active; 'I' for Inactive)
REMARK    1  A    between atoms: C2_5  and  S1_6 
REMARK    2  A    between atoms: S1_6  and  C3_7 
REMARK    3  A    between atoms: C3_7  and  C4_8 
REMARK    4  A    between atoms: C8_17  and  O2_18 
REMARK    5  A    between atoms: C9_20  and  C10_21 
REMARK    6  A    between atoms: C10_21  and  C11_22 
REMARK    7  A    between atoms: C13_24  and  C14_25 
REMARK    8  A    between atoms: N4_26  and  C15_28 
ROOT
HETATM    1  O1  UNL     1      -4.599  23.392   8.519  1.00  0.00    -0.267 OA
HETATM    2  C1  UNL     1      -3.785  24.030   9.246  1.00  0.00     0.258 A 
HETATM    3  N1  UNL     1      -4.084  25.290   9.677  1.00  0.00    -0.303 N 
ATOM      4  H1  UNL     1      -4.976  25.698   9.397  1.00  0.00     0.171 HD
HETATM    5  C2  UNL     1      -3.266  26.017  10.448  1.00  0.00     0.148 A 
HETATM    6  N3  UNL     1      -2.093  25.467  10.809  1.00  0.00    -0.317 N 
ATOM      7  H3  UNL     1      -1.452  26.000  11.397  1.00  0.00     0.170 HD
HETATM    8  C8  UNL     1      -1.749  24.230  10.413  1.00  0.00     0.154 A 
HETATM    9  C9  UNL     1      -2.592  23.456   9.607  1.00  0.00     0.066 A 
ENDROOT
BRANCH   9  10
HETATM   10  C10 UNL     1      -2.180  22.093   9.197  1.00  0.00     0.106 C 
BRANCH  10  11
HETATM   11  C11 UNL     1      -1.730  22.175   7.759  1.00  0.00     0.014 A 
HETATM   12  C12 UNL     1      -0.686  21.446   7.254  1.00  0.00     0.039 A 
HETATM   13  C13 UNL     1      -0.576  21.803   5.900  1.00  0.00    -0.004 A 
HETATM   14  C20 UNL     1      -1.550  22.729   5.637  1.00  0.00     0.101 A 
HETATM   15  N5  UNL     1      -2.226  22.927   6.786  1.00  0.00    -0.368 N 
ATOM     16  H5  UNL     1      -3.011  23.569   6.893  1.00  0.00     0.165 HD
BRANCH  13  17
HETATM   17  C14 UNL     1       0.412  21.249   5.005  1.00  0.00     0.096 C 
HETATM   18  N4  UNL     1       0.204  20.449   4.100  1.00  0.00    -0.393 N 
ATOM     19  H4  UNL     1       1.091  20.241   3.643  1.00  0.00     0.159 HD
BRANCH  18  20
HETATM   20  C15 UNL     1      -0.791  19.726   3.470  1.00  0.00     0.081 C 
HETATM   21  C16 UNL     1      -1.382  20.538   2.305  1.00  0.00     0.025 C 
HETATM   22  C17 UNL     1      -0.118  20.756   1.473  1.00  0.00     0.002 C 
HETATM   23  C18 UNL     1       0.736  19.514   1.696  1.00  0.00     0.002 C 
HETATM   24  C19 UNL     1      -0.098  18.625   2.622  1.00  0.00     0.025 C 
ENDBRANCH  18  20
ENDBRANCH  13  17
ENDBRANCH  10  11
ENDBRANCH   9  10
BRANCH   8  25
HETATM   25  O2  UNL     1      -0.541  23.642  10.774  1.00  0.00    -0.345 OA
ATOM     26  H2  UNL     1      -0.469  23.034  11.501  1.00  0.00     0.219 HD
ENDBRANCH   8  25
BRANCH   5  27
HETATM   27  S1  UNL     1      -3.689  27.670  10.997  1.00  0.00    -0.093 SA
BRANCH  27  28
HETATM   28  C3  UNL     1      -2.500  28.311  12.171  1.00  0.00     0.088 C 
BRANCH  28  29
HETATM   29  C4  UNL     1      -2.971  28.175  13.603  1.00  0.00     0.022 C 
HETATM   30  C5  UNL     1      -4.492  28.153  13.679  1.00  0.00     0.034 C 
HETATM   31  C6  UNL     1      -4.699  28.532  15.131  1.00  0.00     0.232 C 
HETATM   32  N2  UNL     1      -3.576  29.355  15.501  1.00  0.00    -0.075 N 
HETATM   33  C7  UNL     1      -2.679  29.438  14.392  1.00  0.00     0.237 C 
ATOM     34  H22 UNL     1      -3.861  30.273  15.841  1.00  0.00     0.277 HD
ATOM     35  H21 UNL     1      -3.116  29.026  16.350  1.00  0.00     0.277 HD
ENDBRANCH  28  29
ENDBRANCH  27  28
ENDBRANCH   5  27
TORSDOF 8
ENDMDL
MODEL 5
REMARK VINA RESULT: -9.040248010      4.539      8.682
REMARK  8 active torsions:
REMARK  status: ('A' for Active; 'I' for Inactive)
REMARK    1  A    between atoms: C2_5  and  S1_6 
REMARK    2  A    between atoms: S1_6  and  C3_7 
REMARK    3  A    between atoms: C3_7  and  C4_8 
REMARK    4  A    between atoms: C8_17  and  O2_18 
REMARK    5  A    between atoms: C9_20  and  C10_21 
REMARK    6  A    between atoms: C10_21  and  C11_22 
REMARK    7  A    between atoms: C13_24  and  C14_25 
REMARK    8  A    between atoms: N4_26  and  C15_28 
ROOT
HETATM    1  O1  UNL     1      -0.631  23.389  10.636  1.00  0.00    -0.267 OA
HETATM    2  C1  UNL     1      -1.611  24.129  10.336  1.00  0.00     0.258 A 
HETATM    3  N1  UNL     1      -1.662  25.420  10.776  1.00  0.00    -0.303 N 
ATOM      4  H1  UNL     1      -0.893  25.766  11.349  1.00  0.00     0.171 HD
HETATM    5  C2  UNL     1      -2.671  26.254  10.494  1.00  0.00     0.148 A 
HETATM    6  N3  UNL     1      -3.679  25.784   9.738  1.00  0.00    -0.317 N 
ATOM      7  H3  UNL     1      -4.459  26.399   9.508  1.00  0.00     0.170 HD
HETATM    8  C8  UNL     1      -3.678  24.521   9.279  1.00  0.00     0.154 A 
HETATM    9  C9  UNL     1      -2.633  23.636   9.564  1.00  0.00     0.066 A 
ENDROOT
BRANCH   9  10
HETATM   10  C10 UNL     1      -2.665  22.252   9.033  1.00  0.00     0.106 C 
BRANCH  10  11
HETATM   11  C11 UNL     1      -2.045  22.286   7.658  1.00  0.00     0.014 A 
HETATM   12  C12 UNL     1      -1.006  21.475   7.282  1.00  0.00     0.039 A 
HETATM   13  C13 UNL     1      -0.710  21.809   5.950  1.00  0.00    -0.004 A 
HETATM   14  C20 UNL     1      -1.574  22.802   5.571  1.00  0.00     0.101 A 
HETATM   15  N5  UNL     1      -2.364  23.063   6.632  1.00  0.00    -0.368 N 
ATOM     16  H5  UNL     1      -3.106  23.762   6.644  1.00  0.00     0.165 HD
BRANCH  13  17
HETATM   17  C14 UNL     1       0.333  21.174   5.180  1.00  0.00     0.096 C 
HETATM   18  N4  UNL     1       0.174  20.358   4.280  1.00  0.00    -0.393 N 
ATOM     19  H4  UNL     1       1.091  20.087   3.925  1.00  0.00     0.159 HD
BRANCH  18  20
HETATM   20  C15 UNL     1      -0.789  19.669   3.568  1.00  0.00     0.081 C 
HETATM   21  C16 UNL     1      -1.346  20.550   2.436  1.00  0.00     0.025 C 
HETATM   22  C17 UNL     1      -0.055  20.832   1.667  1.00  0.00     0.002 C 
HETATM   23  C18 UNL     1       0.803  19.584   1.842  1.00  0.00     0.002 C 
HETATM   24  C19 UNL     1      -0.054  18.631   2.676  1.00  0.00     0.025 C 
ENDBRANCH  18  20
ENDBRANCH  13  17
ENDBRANCH  10  11
ENDBRANCH   9  10
BRANCH   8  25
HETATM   25  O2  UNL     1      -4.711  24.013   8.495  1.00  0.00    -0.345 OA
ATOM     26  H2  UNL     1      -5.443  24.549   8.210  1.00  0.00     0.219 HD
ENDBRANCH   8  25
BRANCH   5  27
HETATM   27  S1  UNL     1      -2.707  27.945  11.088  1.00  0.00    -0.093 SA
BRANCH  27  28
HETATM   28  C3  UNL     1      -1.937  29.076   9.934  1.00  0.00     0.088 C 
BRANCH  28  29
HETATM   29  C4  UNL     1      -1.169  30.178  10.630  1.00  0.00     0.022 C 
HETATM   30  C5  UNL     1      -0.812  31.295   9.657  1.00  0.00     0.034 C 
HETATM   31  C6  UNL     1       0.327  31.957  10.406  1.00  0.00     0.232 C 
HETATM   32  N2  UNL     1       0.948  30.925  11.196  1.00  0.00    -0.075 N 
HETATM   33  C7  UNL     1       0.219  29.708  11.023  1.00  0.00     0.237 C 
ATOM     34  H22 UNL     1       1.940  30.817  10.985  1.00  0.00     0.277 HD
ATOM     35  H21 UNL     1       1.040  31.188  12.178  1.00  0.00     0.277 HD
ENDBRANCH  28  29
ENDBRANCH  27  28
ENDBRANCH   5  27
TORSDOF 8
ENDMDL
