MODEL 1
REMARK VINA RESULT: -7.756281625      0.000      0.000
REMARK  8 active torsions:
REMARK  status: ('A' for Active; 'I' for Inactive)
REMARK    1  A    between atoms: C2_2  and  C3_3 
REMARK    2  A    between atoms: C4_4  and  S1_5 
REMARK    3  A    between atoms: S1_5  and  C5_6 
REMARK    4  A    between atoms: C9_12  and  S2_13 
REMARK    5  A    between atoms: S2_13  and  C10_14 
REMARK    6  A    between atoms: C10_14  and  C11_15 
REMARK    7  A    between atoms: C11_15  and  N2_16 
REMARK       I    between atoms: N2_16  and  C12_18 
REMARK       I    between atoms: C12_18  and  N4_22 
REMARK    8  A    between atoms: N4_22  and  C13_24 
ROOT
HETATM    1  C3  UNL     1      -3.748  23.924   9.530  1.00  0.00     0.043 A 
HETATM    2  C4  UNL     1      -2.865  24.439   8.595  1.00  0.00     0.084 A 
HETATM    3  N1  UNL     1      -2.384  25.674   8.691  1.00  0.00    -0.331 N 
ATOM      4  H1  UNL     1      -1.737  26.011   7.978  1.00  0.00     0.168 HD
HETATM    5  C9  UNL     1      -2.733  26.505   9.719  1.00  0.00     0.147 A 
HETATM    6  N5  UNL     1      -3.597  26.023  10.646  1.00  0.00    -0.303 N 
ATOM      7  H5  UNL     1      -3.880  26.616  11.426  1.00  0.00     0.171 HD
HETATM    8  C17 UNL     1      -4.083  24.778  10.550  1.00  0.00     0.256 A 
HETATM    9  O2  UNL     1      -4.904  24.328  11.434  1.00  0.00    -0.267 OA
ENDROOT
BRANCH   5  10
HETATM   10  S2  UNL     1      -2.024  28.110   9.805  1.00  0.00    -0.092 SA
BRANCH  10  11
HETATM   11  C10 UNL     1      -0.808  28.435  11.042  1.00  0.00     0.102 C 
BRANCH  11  12
HETATM   12  C11 UNL     1      -0.041  29.688  10.947  1.00  0.00     0.148 C 
BRANCH  12  13
HETATM   13  N2  UNL     1      -0.541  30.886  11.529  1.00  0.00    -0.226 N 
HETATM   14  C12 UNL     1       0.382  32.034  11.638  1.00  0.00     0.667 C 
HETATM   15  N3  UNL     1       0.476  32.628  12.636  1.00  0.00    -0.235 N 
HETATM   16  N4  UNL     1       1.102  32.365  10.453  1.00  0.00    -0.220 N 
ATOM     17  H32 UNL     1      -0.039  32.391  13.484  1.00  0.00     0.174 HD
ATOM     18  H31 UNL     1       1.114  33.421  12.712  1.00  0.00     0.174 HD
ATOM     19  H4  UNL     1       1.304  31.606   9.802  1.00  0.00     0.178 HD
ATOM     20  H2  UNL     1      -1.504  30.950  11.859  1.00  0.00     0.177 HD
BRANCH  16  21
HETATM   21  C13 UNL     1       1.566  33.677  10.098  1.00  0.00     0.125 C 
HETATM   22  C14 UNL     1       3.053  33.824  10.087  1.00  0.00     0.054 C 
HETATM   23  C15 UNL     1       3.351  34.187   8.642  1.00  0.00     0.169 C 
HETATM   24  O1  UNL     1       2.222  33.818   7.928  1.00  0.00    -0.389 OA
HETATM   25  C16 UNL     1       1.139  34.110   8.722  1.00  0.00     0.193 C 
ENDBRANCH  16  21
ENDBRANCH  12  13
ENDBRANCH  11  12
ENDBRANCH  10  11
ENDBRANCH   5  10
BRANCH   2  26
HETATM   26  S1  UNL     1      -2.355  23.387   7.227  1.00  0.00    -0.103 SA
BRANCH  26  27
HETATM   27  C5  UNL     1      -1.036  22.285   7.727  1.00  0.00     0.003 C 
HETATM   28  C6  UNL     1      -1.442  21.171   8.657  1.00  0.00     0.026 C 
HETATM   29  C7  UNL     1       0.067  23.050   8.479  1.00  0.00     0.026 C 
HETATM   30  C8  UNL     1      -0.398  21.628   6.525  1.00  0.00     0.026 C 
ENDBRANCH  26  27
ENDBRANCH   2  26
BRANCH   1  31
HETATM   31  C2  UNL     1      -4.318  22.543   9.450  1.00  0.00     0.043 C 
HETATM   32  C1  UNL     1      -5.607  22.529   8.630  1.00  0.00     0.010 C 
ENDBRANCH   1  31
TORSDOF 8
ENDMDL
MODEL 2
REMARK VINA RESULT: -7.752671084      6.728     10.406
REMARK  8 active torsions:
REMARK  status: ('A' for Active; 'I' for Inactive)
REMARK    1  A    between atoms: C2_2  and  C3_3 
REMARK    2  A    between atoms: C4_4  and  S1_5 
REMARK    3  A    between atoms: S1_5  and  C5_6 
REMARK    4  A    between atoms: C9_12  and  S2_13 
REMARK    5  A    between atoms: S2_13  and  C10_14 
REMARK    6  A    between atoms: C10_14  and  C11_15 
REMARK    7  A    between atoms: C11_15  and  N2_16 
REMARK       I    between atoms: N2_16  and  C12_18 
REMARK       I    between atoms: C12_18  and  N4_22 
REMARK    8  A    between atoms: N4_22  and  C13_24 
ROOT
HETATM    1  C3  UNL     1      -3.760  23.365  10.237  1.00  0.00     0.043 A 
HETATM    2  C4  UNL     1      -4.074  22.939   8.958  1.00  0.00     0.084 A 
HETATM    3  N1  UNL     1      -3.140  22.521   8.108  1.00  0.00    -0.331 N 
ATOM      4  H1  UNL     1      -3.418  22.218   7.175  1.00  0.00     0.168 HD
HETATM    5  C9  UNL     1      -1.817  22.488   8.452  1.00  0.00     0.147 A 
HETATM    6  N5  UNL     1      -1.485  22.902   9.699  1.00  0.00    -0.303 N 
ATOM      7  H5  UNL     1      -0.507  22.892   9.989  1.00  0.00     0.171 HD
HETATM    8  C17 UNL     1      -2.425  23.324  10.556  1.00  0.00     0.256 A 
HETATM    9  O2  UNL     1      -2.102  23.716  11.739  1.00  0.00    -0.267 OA
ENDROOT
BRANCH   5  10
HETATM   10  S2  UNL     1      -0.644  21.884   7.293  1.00  0.00    -0.092 SA
BRANCH  10  11
HETATM   11  C10 UNL     1      -1.074  21.866   5.582  1.00  0.00     0.102 C 
BRANCH  11  12
HETATM   12  C11 UNL     1       0.012  21.743   4.595  1.00  0.00     0.148 C 
BRANCH  12  13
HETATM   13  N2  UNL     1       0.528  20.464   4.247  1.00  0.00    -0.226 N 
HETATM   14  C12 UNL     1      -0.248  19.647   3.292  1.00  0.00     0.667 C 
HETATM   15  N3  UNL     1      -0.469  18.524   3.513  1.00  0.00    -0.235 N 
HETATM   16  N4  UNL     1      -0.664  20.313   2.103  1.00  0.00    -0.220 N 
ATOM     17  H32 UNL     1      -0.171  18.047   4.365  1.00  0.00     0.174 HD
ATOM     18  H31 UNL     1      -1.006  17.959   2.854  1.00  0.00     0.174 HD
ATOM     19  H4  UNL     1      -0.822  21.318   2.161  1.00  0.00     0.178 HD
ATOM     20  H2  UNL     1       1.404  20.122   4.643  1.00  0.00     0.177 HD
BRANCH  16  21
HETATM   21  C13 UNL     1      -0.880  19.686   0.828  1.00  0.00     0.125 C 
HETATM   22  C14 UNL     1      -1.968  20.305   0.012  1.00  0.00     0.054 C 
HETATM   23  C15 UNL     1      -1.235  20.782  -1.231  1.00  0.00     0.169 C 
HETATM   24  O1  UNL     1       0.106  20.812  -0.880  1.00  0.00    -0.389 OA
HETATM   25  C16 UNL     1       0.327  19.725  -0.069  1.00  0.00     0.193 C 
ENDBRANCH  16  21
ENDBRANCH  12  13
ENDBRANCH  11  12
ENDBRANCH  10  11
ENDBRANCH   5  10
BRANCH   2  26
HETATM   26  S1  UNL     1      -5.800  22.943   8.452  1.00  0.00    -0.103 SA
BRANCH  26  27
HETATM   27  C5  UNL     1      -6.606  21.415   8.919  1.00  0.00     0.003 C 
HETATM   28  C6  UNL     1      -5.704  20.363   9.509  1.00  0.00     0.026 C 
HETATM   29  C7  UNL     1      -7.259  20.741   7.700  1.00  0.00     0.026 C 
HETATM   30  C8  UNL     1      -7.693  21.668   9.938  1.00  0.00     0.026 C 
ENDBRANCH  26  27
ENDBRANCH   2  26
BRANCH   1  31
HETATM   31  C2  UNL     1      -4.780  23.851  11.217  1.00  0.00     0.043 C 
HETATM   32  C1  UNL     1      -4.945  25.368  11.130  1.00  0.00     0.010 C 
ENDBRANCH   1  31
TORSDOF 8
ENDMDL
MODEL 3
REMARK VINA RESULT: -7.714168185      6.626     10.320
REMARK  8 active torsions:
REMARK  status: ('A' for Active; 'I' for Inactive)
REMARK    1  A    between atoms: C2_2  and  C3_3 
REMARK    2  A    between atoms: C4_4  and  S1_5 
REMARK    3  A    between atoms: S1_5  and  C5_6 
REMARK    4  A    between atoms: C9_12  and  S2_13 
REMARK    5  A    between atoms: S2_13  and  C10_14 
REMARK    6  A    between atoms: C10_14  and  C11_15 
REMARK    7  A    between atoms: C11_15  and  N2_16 
REMARK       I    between atoms: N2_16  and  C12_18 
REMARK       I    between atoms: C12_18  and  N4_22 
REMARK    8  A    between atoms: N4_22  and  C13_24 
ROOT
HETATM    1  C3  UNL     1      -3.441  23.397  10.037  1.00  0.00     0.043 A 
HETATM    2  C4  UNL     1      -4.151  23.218   8.862  1.00  0.00     0.084 A 
HETATM    3  N1  UNL     1      -3.542  22.981   7.704  1.00  0.00    -0.331 N 
ATOM      4  H1  UNL     1      -4.106  22.857   6.863  1.00  0.00     0.168 HD
HETATM    5  C9  UNL     1      -2.181  22.899   7.610  1.00  0.00     0.147 A 
HETATM    6  N5  UNL     1      -1.465  23.072   8.747  1.00  0.00    -0.303 N 
ATOM      7  H5  UNL     1      -0.446  23.018   8.714  1.00  0.00     0.171 HD
HETATM    8  C17 UNL     1      -2.077  23.312   9.915  1.00  0.00     0.256 A 
HETATM    9  O2  UNL     1      -1.390  23.476  10.991  1.00  0.00    -0.267 OA
ENDROOT
BRANCH   5  10
HETATM   10  S2  UNL     1      -1.447  22.540   6.054  1.00  0.00    -0.092 SA
BRANCH  10  11
HETATM   11  C10 UNL     1      -0.009  21.519   6.011  1.00  0.00     0.102 C 
BRANCH  11  12
HETATM   12  C11 UNL     1      -0.087  20.242   5.280  1.00  0.00     0.148 C 
BRANCH  12  13
HETATM   13  N2  UNL     1       0.670  20.043   4.093  1.00  0.00    -0.226 N 
HETATM   14  C12 UNL     1      -0.069  19.917   2.821  1.00  0.00     0.667 C 
HETATM   15  N3  UNL     1       0.177  19.058   2.073  1.00  0.00    -0.235 N 
HETATM   16  N4  UNL     1      -1.053  20.918   2.574  1.00  0.00    -0.220 N 
ATOM     17  H32 UNL     1       0.883  18.342   2.249  1.00  0.00     0.174 HD
ATOM     18  H31 UNL     1      -0.333  18.970   1.193  1.00  0.00     0.174 HD
ATOM     19  H4  UNL     1      -1.502  21.342   3.386  1.00  0.00     0.178 HD
ATOM     20  H2  UNL     1       1.688  19.990   4.120  1.00  0.00     0.177 HD
BRANCH  16  21
HETATM   21  C13 UNL     1      -1.467  21.381   1.278  1.00  0.00     0.125 C 
HETATM   22  C14 UNL     1      -0.449  21.194   0.202  1.00  0.00     0.054 C 
HETATM   23  C15 UNL     1      -1.150  20.265  -0.776  1.00  0.00     0.169 C 
HETATM   24  O1  UNL     1      -2.194  19.698  -0.062  1.00  0.00    -0.389 OA
HETATM   25  C16 UNL     1      -2.693  20.681   0.758  1.00  0.00     0.193 C 
ENDBRANCH  16  21
ENDBRANCH  12  13
ENDBRANCH  11  12
ENDBRANCH  10  11
ENDBRANCH   5  10
BRANCH   2  26
HETATM   26  S1  UNL     1      -5.947  23.298   8.924  1.00  0.00    -0.103 SA
BRANCH  26  27
HETATM   27  C5  UNL     1      -6.653  21.664   9.110  1.00  0.00     0.003 C 
HETATM   28  C6  UNL     1      -5.707  20.605   9.614  1.00  0.00     0.026 C 
HETATM   29  C7  UNL     1      -7.169  21.129   7.764  1.00  0.00     0.026 C 
HETATM   30  C8  UNL     1      -7.820  21.687  10.070  1.00  0.00     0.026 C 
ENDBRANCH  26  27
ENDBRANCH   2  26
BRANCH   1  31
HETATM   31  C2  UNL     1      -4.090  23.675  11.356  1.00  0.00     0.043 C 
HETATM   32  C1  UNL     1      -4.184  25.179  11.614  1.00  0.00     0.010 C 
ENDBRANCH   1  31
TORSDOF 8
ENDMDL
MODEL 4
REMARK VINA RESULT: -7.547259250      3.875      9.726
REMARK  8 active torsions:
REMARK  status: ('A' for Active; 'I' for Inactive)
REMARK    1  A    between atoms: C2_2  and  C3_3 
REMARK    2  A    between atoms: C4_4  and  S1_5 
REMARK    3  A    between atoms: S1_5  and  C5_6 
REMARK    4  A    between atoms: C9_12  and  S2_13 
REMARK    5  A    between atoms: S2_13  and  C10_14 
REMARK    6  A    between atoms: C10_14  and  C11_15 
REMARK    7  A    between atoms: C11_15  and  N2_16 
REMARK       I    between atoms: N2_16  and  C12_18 
REMARK       I    between atoms: C12_18  and  N4_22 
REMARK    8  A    between atoms: N4_22  and  C13_24 
ROOT
HETATM    1  C3  UNL     1      -2.102  28.716  11.217  1.00  0.00     0.043 A 
HETATM    2  C4  UNL     1      -2.613  27.795  12.116  1.00  0.00     0.084 A 
HETATM    3  N1  UNL     1      -2.785  26.518  11.790  1.00  0.00    -0.331 N 
ATOM      4  H1  UNL     1      -3.166  25.876  12.484  1.00  0.00     0.168 HD
HETATM    5  C9  UNL     1      -2.465  26.042  10.549  1.00  0.00     0.147 A 
HETATM    6  N5  UNL     1      -1.964  26.926   9.651  1.00  0.00    -0.303 N 
ATOM      7  H5  UNL     1      -1.715  26.606   8.715  1.00  0.00     0.171 HD
HETATM    8  C17 UNL     1      -1.791  28.214   9.978  1.00  0.00     0.256 A 
HETATM    9  O2  UNL     1      -1.315  29.047   9.120  1.00  0.00    -0.267 OA
ENDROOT
BRANCH   5  10
HETATM   10  S2  UNL     1      -2.679  24.333  10.202  1.00  0.00    -0.092 SA
BRANCH  10  11
HETATM   11  C10 UNL     1      -3.618  23.867   8.783  1.00  0.00     0.102 C 
BRANCH  11  12
HETATM   12  C11 UNL     1      -2.891  23.370   7.603  1.00  0.00     0.148 C 
BRANCH  12  13
HETATM   13  N2  UNL     1      -1.476  23.229   7.635  1.00  0.00    -0.226 N 
HETATM   14  C12 UNL     1      -0.868  22.208   6.757  1.00  0.00     0.667 C 
HETATM   15  N3  UNL     1      -0.071  21.465   7.172  1.00  0.00    -0.235 N 
HETATM   16  N4  UNL     1      -1.297  22.225   5.398  1.00  0.00    -0.220 N 
ATOM     17  H32 UNL     1       0.236  21.453   8.145  1.00  0.00     0.174 HD
ATOM     18  H31 UNL     1       0.348  20.760   6.566  1.00  0.00     0.174 HD
ATOM     19  H4  UNL     1      -2.240  22.565   5.210  1.00  0.00     0.178 HD
ATOM     20  H2  UNL     1      -0.901  23.812   8.242  1.00  0.00     0.177 HD
BRANCH  16  21
HETATM   21  C13 UNL     1      -0.513  21.804   4.270  1.00  0.00     0.125 C 
HETATM   22  C14 UNL     1       0.098  20.448   4.415  1.00  0.00     0.054 C 
HETATM   23  C15 UNL     1      -0.528  19.666   3.272  1.00  0.00     0.169 C 
HETATM   24  O1  UNL     1      -1.645  20.396   2.894  1.00  0.00    -0.389 OA
HETATM   25  C16 UNL     1      -1.302  21.722   2.991  1.00  0.00     0.193 C 
ENDBRANCH  16  21
ENDBRANCH  12  13
ENDBRANCH  11  12
ENDBRANCH  10  11
ENDBRANCH   5  10
BRANCH   2  26
HETATM   26  S1  UNL     1      -3.038  28.357  13.771  1.00  0.00    -0.103 SA
BRANCH  26  27
HETATM   27  C5  UNL     1      -4.711  28.990  13.821  1.00  0.00     0.003 C 
HETATM   28  C6  UNL     1      -5.609  28.533  12.701  1.00  0.00     0.026 C 
HETATM   29  C7  UNL     1      -4.723  30.526  13.739  1.00  0.00     0.026 C 
HETATM   30  C8  UNL     1      -5.398  28.596  15.108  1.00  0.00     0.026 C 
ENDBRANCH  26  27
ENDBRANCH   2  26
BRANCH   1  31
HETATM   31  C2  UNL     1      -1.903  30.163  11.543  1.00  0.00     0.043 C 
HETATM   32  C1  UNL     1      -0.438  30.455  11.864  1.00  0.00     0.010 C 
ENDBRANCH   1  31
TORSDOF 8
ENDMDL
MODEL 5
REMARK VINA RESULT: -7.513759820      5.484      9.985
REMARK  8 active torsions:
REMARK  status: ('A' for Active; 'I' for Inactive)
REMARK    1  A    between atoms: C2_2  and  C3_3 
REMARK    2  A    between atoms: C4_4  and  S1_5 
REMARK    3  A    between atoms: S1_5  and  C5_6 
REMARK    4  A    between atoms: C9_12  and  S2_13 
REMARK    5  A    between atoms: S2_13  and  C10_14 
REMARK    6  A    between atoms: C10_14  and  C11_15 
REMARK    7  A    between atoms: C11_15  and  N2_16 
REMARK       I    between atoms: N2_16  and  C12_18 
REMARK       I    between atoms: C12_18  and  N4_22 
REMARK    8  A    between atoms: N4_22  and  C13_24 
ROOT
HETATM    1  C3  UNL     1      -4.983  23.932   9.717  1.00  0.00     0.043 A 
HETATM    2  C4  UNL     1      -3.826  24.408  10.311  1.00  0.00     0.084 A 
HETATM    3  N1  UNL     1      -2.619  24.036   9.894  1.00  0.00    -0.331 N 
ATOM      4  H1  UNL     1      -1.795  24.411  10.363  1.00  0.00     0.168 HD
HETATM    5  C9  UNL     1      -2.454  23.163   8.855  1.00  0.00     0.147 A 
HETATM    6  N5  UNL     1      -3.572  22.683   8.258  1.00  0.00    -0.303 N 
ATOM      7  H5  UNL     1      -3.487  22.029   7.480  1.00  0.00     0.171 HD
HETATM    8  C17 UNL     1      -4.789  23.057   8.678  1.00  0.00     0.256 A 
HETATM    9  O2  UNL     1      -5.847  22.596   8.107  1.00  0.00    -0.267 OA
ENDROOT
BRANCH   5  10
HETATM   10  S2  UNL     1      -0.829  22.749   8.331  1.00  0.00    -0.092 SA
BRANCH  10  11
HETATM   11  C10 UNL     1      -0.617  21.406   7.207  1.00  0.00     0.102 C 
BRANCH  11  12
HETATM   12  C11 UNL     1      -0.609  21.703   5.765  1.00  0.00     0.148 C 
BRANCH  12  13
HETATM   13  N2  UNL     1       0.056  20.837   4.854  1.00  0.00    -0.226 N 
HETATM   14  C12 UNL     1      -0.616  20.540   3.573  1.00  0.00     0.667 C 
HETATM   15  N3  UNL     1      -0.701  19.443   3.186  1.00  0.00    -0.235 N 
HETATM   16  N4  UNL     1      -1.109  21.668   2.856  1.00  0.00    -0.220 N 
ATOM     17  H32 UNL     1      -0.347  18.635   3.700  1.00  0.00     0.174 HD
ATOM     18  H31 UNL     1      -1.166  19.238   2.302  1.00  0.00     0.174 HD
ATOM     19  H4  UNL     1      -1.387  22.484   3.401  1.00  0.00     0.178 HD
ATOM     20  H2  UNL     1       0.967  20.435   5.077  1.00  0.00     0.177 HD
BRANCH  16  21
HETATM   21  C13 UNL     1      -1.249  21.754   1.428  1.00  0.00     0.125 C 
HETATM   22  C14 UNL     1      -0.255  20.945   0.661  1.00  0.00     0.054 C 
HETATM   23  C15 UNL     1      -1.129  19.963  -0.103  1.00  0.00     0.169 C 
HETATM   24  O1  UNL     1      -2.353  19.976   0.548  1.00  0.00    -0.389 OA
HETATM   25  C16 UNL     1      -2.585  21.275   0.929  1.00  0.00     0.193 C 
ENDBRANCH  16  21
ENDBRANCH  12  13
ENDBRANCH  11  12
ENDBRANCH  10  11
ENDBRANCH   5  10
BRANCH   2  26
HETATM   26  S1  UNL     1      -3.978  25.573  11.673  1.00  0.00    -0.103 SA
BRANCH  26  27
HETATM   27  C5  UNL     1      -3.781  27.257  11.099  1.00  0.00     0.003 C 
HETATM   28  C6  UNL     1      -3.648  27.419   9.607  1.00  0.00     0.026 C 
HETATM   29  C7  UNL     1      -2.510  27.895  11.685  1.00  0.00     0.026 C 
HETATM   30  C8  UNL     1      -4.956  28.110  11.519  1.00  0.00     0.026 C 
ENDBRANCH  26  27
ENDBRANCH   2  26
BRANCH   1  31
HETATM   31  C2  UNL     1      -6.357  24.320  10.164  1.00  0.00     0.043 C 
HETATM   32  C1  UNL     1      -6.840  25.568   9.426  1.00  0.00     0.010 C 
ENDBRANCH   1  31
TORSDOF 8
ENDMDL
