MODEL 1
REMARK VINA RESULT: -8.689498773      0.000      0.000
REMARK  9 active torsions:
REMARK  status: ('A' for Active; 'I' for Inactive)
REMARK    1  A    between atoms: C2_2  and  N1_3 
REMARK    2  A    between atoms: N1_3  and  C3_4 
REMARK    3  A    between atoms: N1_3  and  C15_29 
REMARK    4  A    between atoms: C3_4  and  C4_5 
REMARK    5  A    between atoms: C4_5  and  N2_6 
REMARK    6  A    between atoms: N2_6  and  C5_9 
REMARK    7  A    between atoms: C5_9  and  C7_12 
REMARK    8  A    between atoms: C5_9  and  C9_14 
REMARK    9  A    between atoms: C12_19  and  N5_20 
ROOT
HETATM    1  C5  UNL     1      -2.213  23.873   8.295  1.00  0.00     0.245 C 
HETATM    2  C6  UNL     1      -3.245  22.948   8.891  1.00  0.00     0.104 C 
HETATM    3  N3  UNL     1      -4.063  22.246   9.364  1.00  0.00    -0.194 NA
ENDROOT
BRANCH   1   4
HETATM    4  N2  UNL     1      -2.929  25.095   8.009  1.00  0.00    -0.047 N 
ATOM      5  H22 UNL     1      -3.944  25.005   8.073  1.00  0.00     0.279 HD
ATOM      6  H21 UNL     1      -2.899  25.373   7.027  1.00  0.00     0.279 HD
BRANCH   4   7
HETATM    7  C4  UNL     1      -2.356  26.095   8.932  1.00  0.00     0.265 C 
BRANCH   7   8
HETATM    8  C3  UNL     1      -3.357  27.124   9.244  1.00  0.00     0.300 C 
BRANCH   8   9
HETATM    9  N1  UNL     1      -2.925  28.092  10.276  1.00  0.00     0.094 N 
BRANCH   9  10
HETATM   10  C2  UNL     1      -2.783  27.308  11.458  1.00  0.00     0.268 C 
HETATM   11  C1  UNL     1      -3.707  27.554  12.608  1.00  0.00     0.037 C 
ENDBRANCH   9  10
BRANCH   9  12
HETATM   12  C15 UNL     1      -1.808  28.858   9.917  1.00  0.00     0.223 C 
HETATM   13  C16 UNL     1      -0.639  28.644  10.840  1.00  0.00     0.036 C 
HETATM   14  C17 UNL     1       0.086  29.977  11.137  1.00  0.00     0.002 C 
HETATM   15  C18 UNL     1      -0.797  30.901  11.913  1.00  0.00     0.000 C 
HETATM   16  C19 UNL     1      -2.201  30.836  11.365  1.00  0.00     0.002 C 
HETATM   17  C20 UNL     1      -2.081  30.357   9.927  1.00  0.00     0.036 C 
ENDBRANCH   9  12
ENDBRANCH   8   9
ENDBRANCH   7   8
ENDBRANCH   4   7
ENDBRANCH   1   4
BRANCH   1  18
HETATM   18  C7  UNL     1      -1.135  23.968   9.311  1.00  0.00     0.056 C 
HETATM   19  C8  UNL     1      -1.480  22.953  10.410  1.00  0.00     0.009 C 
ENDBRANCH   1  18
BRANCH   1  20
HETATM   20  C9  UNL     1      -1.814  23.117   7.054  1.00  0.00     0.036 A 
HETATM   21  C10 UNL     1      -2.149  23.350   5.746  1.00  0.00     0.050 A 
HETATM   22  C11 UNL     1      -1.585  22.566   4.814  1.00  0.00     0.073 A 
HETATM   23  N4  UNL     1      -1.740  22.640   3.451  1.00  0.00    -0.191 N 
HETATM   24  C14 UNL     1      -0.726  21.596   5.235  1.00  0.00     0.101 A 
HETATM   25  C12 UNL     1      -1.096  21.823   2.618  1.00  0.00     0.679 A 
ATOM     26  H4  UNL     1      -2.369  23.343   3.064  1.00  0.00     0.184 HD
HETATM   27  N6  UNL     1      -0.244  20.860   3.015  1.00  0.00    -0.155 N 
HETATM   28  C13 UNL     1      -0.060  20.746   4.335  1.00  0.00     0.279 A 
ATOM     29  H6  UNL     1       0.233  20.252   2.348  1.00  0.00     0.187 HD
HETATM   30  O1  UNL     1       0.703  19.890   4.836  1.00  0.00    -0.266 OA
HETATM   31  S1  UNL     1      -0.721  21.796   6.931  1.00  0.00    -0.083 SA
BRANCH  25  32
HETATM   32  N5  UNL     1      -1.274  21.984   1.323  1.00  0.00    -0.234 N 
ATOM     33  H52 UNL     1      -1.648  22.878   1.005  1.00  0.00     0.174 HD
ATOM     34  H51 UNL     1      -1.055  21.203   0.703  1.00  0.00     0.174 HD
ENDBRANCH  25  32
ENDBRANCH   1  20
TORSDOF 9
ENDMDL
MODEL 2
REMARK VINA RESULT: -8.688424156      3.179      6.660
REMARK  9 active torsions:
REMARK  status: ('A' for Active; 'I' for Inactive)
REMARK    1  A    between atoms: C2_2  and  N1_3 
REMARK    2  A    between atoms: N1_3  and  C3_4 
REMARK    3  A    between atoms: N1_3  and  C15_29 
REMARK    4  A    between atoms: C3_4  and  C4_5 
REMARK    5  A    between atoms: C4_5  and  N2_6 
REMARK    6  A    between atoms: N2_6  and  C5_9 
REMARK    7  A    between atoms: C5_9  and  C7_12 
REMARK    8  A    between atoms: C5_9  and  C9_14 
REMARK    9  A    between atoms: C12_19  and  N5_20 
ROOT
HETATM    1  C5  UNL     1      -2.733  24.413   8.972  1.00  0.00     0.245 C 
HETATM    2  C6  UNL     1      -2.058  23.693  10.113  1.00  0.00     0.104 C 
HETATM    3  N3  UNL     1      -1.552  23.136  11.017  1.00  0.00    -0.194 NA
ENDROOT
BRANCH   1   4
HETATM    4  N2  UNL     1      -4.149  24.254   9.217  1.00  0.00    -0.047 N 
ATOM      5  H22 UNL     1      -4.741  24.794   8.584  1.00  0.00     0.279 HD
ATOM      6  H21 UNL     1      -4.472  24.692  10.080  1.00  0.00     0.279 HD
BRANCH   4   7
HETATM    7  C4  UNL     1      -4.381  22.798   9.160  1.00  0.00     0.265 C 
BRANCH   7   8
HETATM    8  C3  UNL     1      -5.698  22.521   8.570  1.00  0.00     0.300 C 
BRANCH   8   9
HETATM    9  N1  UNL     1      -6.455  21.453   9.261  1.00  0.00     0.094 N 
BRANCH   9  10
HETATM   10  C2  UNL     1      -7.821  21.754   8.986  1.00  0.00     0.268 C 
HETATM   11  C1  UNL     1      -8.667  22.341  10.071  1.00  0.00     0.037 C 
ENDBRANCH   9  10
BRANCH   9  12
HETATM   12  C15 UNL     1      -6.042  20.153   8.940  1.00  0.00     0.223 C 
HETATM   13  C16 UNL     1      -6.927  19.503   7.911  1.00  0.00     0.036 C 
HETATM   14  C17 UNL     1      -7.173  18.014   8.251  1.00  0.00     0.002 C 
HETATM   15  C18 UNL     1      -7.962  17.881   9.514  1.00  0.00     0.000 C 
HETATM   16  C19 UNL     1      -7.465  18.881  10.528  1.00  0.00     0.002 C 
HETATM   17  C20 UNL     1      -6.033  19.214  10.139  1.00  0.00     0.036 C 
ENDBRANCH   9  12
ENDBRANCH   8   9
ENDBRANCH   7   8
ENDBRANCH   4   7
ENDBRANCH   1   4
BRANCH   1  18
HETATM   18  C7  UNL     1      -2.213  25.803   9.020  1.00  0.00     0.056 C 
HETATM   19  C8  UNL     1      -3.435  26.730   8.944  1.00  0.00     0.009 C 
ENDBRANCH   1  18
BRANCH   1  20
HETATM   20  C9  UNL     1      -2.244  23.621   7.787  1.00  0.00     0.036 A 
HETATM   21  C10 UNL     1      -2.554  23.760   6.459  1.00  0.00     0.050 A 
HETATM   22  C11 UNL     1      -1.909  22.969   5.588  1.00  0.00     0.073 A 
HETATM   23  N4  UNL     1      -2.026  22.959   4.219  1.00  0.00    -0.191 N 
HETATM   24  C14 UNL     1      -0.999  22.086   6.086  1.00  0.00     0.101 A 
HETATM   25  C12 UNL     1      -1.302  22.146   3.451  1.00  0.00     0.679 A 
ATOM     26  H4  UNL     1      -2.689  23.595   3.776  1.00  0.00     0.184 HD
HETATM   27  N6  UNL     1      -0.399  21.266   3.924  1.00  0.00    -0.155 N 
HETATM   28  C13 UNL     1      -0.249  21.236   5.253  1.00  0.00     0.279 A 
ATOM     29  H6  UNL     1       0.140  20.659   3.306  1.00  0.00     0.187 HD
HETATM   30  O1  UNL     1       0.554  20.464   5.822  1.00  0.00    -0.266 OA
HETATM   31  S1  UNL     1      -1.061  22.376   7.768  1.00  0.00    -0.083 SA
BRANCH  25  32
HETATM   32  N5  UNL     1      -1.449  22.224   2.145  1.00  0.00    -0.234 N 
ATOM     33  H52 UNL     1      -2.126  22.897   1.786  1.00  0.00     0.174 HD
ATOM     34  H51 UNL     1      -0.902  21.594   1.557  1.00  0.00     0.174 HD
ENDBRANCH  25  32
ENDBRANCH   1  20
TORSDOF 9
ENDMDL
MODEL 3
REMARK VINA RESULT: -8.679219962      1.471      1.868
REMARK  9 active torsions:
REMARK  status: ('A' for Active; 'I' for Inactive)
REMARK    1  A    between atoms: C2_2  and  N1_3 
REMARK    2  A    between atoms: N1_3  and  C3_4 
REMARK    3  A    between atoms: N1_3  and  C15_29 
REMARK    4  A    between atoms: C3_4  and  C4_5 
REMARK    5  A    between atoms: C4_5  and  N2_6 
REMARK    6  A    between atoms: N2_6  and  C5_9 
REMARK    7  A    between atoms: C5_9  and  C7_12 
REMARK    8  A    between atoms: C5_9  and  C9_14 
REMARK    9  A    between atoms: C12_19  and  N5_20 
ROOT
HETATM    1  C5  UNL     1      -2.160  23.747   8.033  1.00  0.00     0.245 C 
HETATM    2  C6  UNL     1      -3.232  22.845   8.592  1.00  0.00     0.104 C 
HETATM    3  N3  UNL     1      -4.080  22.162   9.036  1.00  0.00    -0.194 NA
ENDROOT
BRANCH   1   4
HETATM    4  N2  UNL     1      -2.825  25.005   7.782  1.00  0.00    -0.047 N 
ATOM      5  H22 UNL     1      -3.833  24.921   7.647  1.00  0.00     0.279 HD
ATOM      6  H21 UNL     1      -2.619  25.407   6.867  1.00  0.00     0.279 HD
BRANCH   4   7
HETATM    7  C4  UNL     1      -2.442  25.870   8.915  1.00  0.00     0.265 C 
BRANCH   7   8
HETATM    8  C3  UNL     1      -3.484  26.878   9.154  1.00  0.00     0.300 C 
BRANCH   8   9
HETATM    9  N1  UNL     1      -3.908  26.983  10.568  1.00  0.00     0.094 N 
BRANCH   9  10
HETATM   10  C2  UNL     1      -3.453  25.772  11.165  1.00  0.00     0.268 C 
HETATM   11  C1  UNL     1      -4.457  24.738  11.565  1.00  0.00     0.037 C 
ENDBRANCH   9  10
BRANCH   9  12
HETATM   12  C15 UNL     1      -3.504  28.164  11.205  1.00  0.00     0.223 C 
HETATM   13  C16 UNL     1      -2.595  27.907  12.376  1.00  0.00     0.036 C 
HETATM   14  C17 UNL     1      -2.933  28.846  13.558  1.00  0.00     0.002 C 
HETATM   15  C18 UNL     1      -4.291  28.544  14.106  1.00  0.00     0.000 C 
HETATM   16  C19 UNL     1      -5.247  28.281  12.968  1.00  0.00     0.002 C 
HETATM   17  C20 UNL     1      -4.669  28.981  11.749  1.00  0.00     0.036 C 
ENDBRANCH   9  12
ENDBRANCH   8   9
ENDBRANCH   7   8
ENDBRANCH   4   7
ENDBRANCH   1   4
BRANCH   1  18
HETATM   18  C7  UNL     1      -1.087  23.768   9.060  1.00  0.00     0.056 C 
HETATM   19  C8  UNL     1      -1.398  22.625  10.038  1.00  0.00     0.009 C 
ENDBRANCH   1  18
BRANCH   1  20
HETATM   20  C9  UNL     1      -1.780  23.016   6.772  1.00  0.00     0.036 A 
HETATM   21  C10 UNL     1      -2.134  23.275   5.474  1.00  0.00     0.050 A 
HETATM   22  C11 UNL     1      -1.585  22.511   4.518  1.00  0.00     0.073 A 
HETATM   23  N4  UNL     1      -1.760  22.612   3.159  1.00  0.00    -0.191 N 
HETATM   24  C14 UNL     1      -0.721  21.532   4.907  1.00  0.00     0.101 A 
HETATM   25  C12 UNL     1      -1.129  21.811   2.301  1.00  0.00     0.679 A 
ATOM     26  H4  UNL     1      -2.394  23.324   2.796  1.00  0.00     0.184 HD
HETATM   27  N6  UNL     1      -0.272  20.839   2.666  1.00  0.00    -0.155 N 
HETATM   28  C13 UNL     1      -0.069  20.698   3.980  1.00  0.00     0.279 A 
ATOM     29  H6  UNL     1       0.194  20.245   1.980  1.00  0.00     0.187 HD
HETATM   30  O1  UNL     1       0.700  19.832   4.453  1.00  0.00    -0.266 OA
HETATM   31  S1  UNL     1      -0.690  21.697   6.607  1.00  0.00    -0.083 SA
BRANCH  25  32
HETATM   32  N5  UNL     1      -1.325  21.998   1.012  1.00  0.00    -0.234 N 
ATOM     33  H52 UNL     1      -0.530  22.308   0.453  1.00  0.00     0.174 HD
ATOM     34  H51 UNL     1      -2.263  21.851   0.638  1.00  0.00     0.174 HD
ENDBRANCH  25  32
ENDBRANCH   1  20
TORSDOF 9
ENDMDL
MODEL 4
REMARK VINA RESULT: -8.360474615      0.903      1.948
REMARK  9 active torsions:
REMARK  status: ('A' for Active; 'I' for Inactive)
REMARK    1  A    between atoms: C2_2  and  N1_3 
REMARK    2  A    between atoms: N1_3  and  C3_4 
REMARK    3  A    between atoms: N1_3  and  C15_29 
REMARK    4  A    between atoms: C3_4  and  C4_5 
REMARK    5  A    between atoms: C4_5  and  N2_6 
REMARK    6  A    between atoms: N2_6  and  C5_9 
REMARK    7  A    between atoms: C5_9  and  C7_12 
REMARK    8  A    between atoms: C5_9  and  C9_14 
REMARK    9  A    between atoms: C12_19  and  N5_20 
ROOT
HETATM    1  C5  UNL     1      -2.228  23.857   8.292  1.00  0.00     0.245 C 
HETATM    2  C6  UNL     1      -3.274  22.939   8.874  1.00  0.00     0.104 C 
HETATM    3  N3  UNL     1      -4.102  22.242   9.336  1.00  0.00    -0.194 NA
ENDROOT
BRANCH   1   4
HETATM    4  N2  UNL     1      -2.931  25.087   8.005  1.00  0.00    -0.047 N 
ATOM      5  H22 UNL     1      -3.946  25.014   8.089  1.00  0.00     0.279 HD
ATOM      6  H21 UNL     1      -2.916  25.353   7.020  1.00  0.00     0.279 HD
BRANCH   4   7
HETATM    7  C4  UNL     1      -2.326  26.088   8.905  1.00  0.00     0.265 C 
BRANCH   7   8
HETATM    8  C3  UNL     1      -3.356  27.019   9.388  1.00  0.00     0.300 C 
BRANCH   8   9
HETATM    9  N1  UNL     1      -2.962  27.781  10.593  1.00  0.00     0.094 N 
BRANCH   9  10
HETATM   10  C2  UNL     1      -2.012  28.730  10.117  1.00  0.00     0.268 C 
HETATM   11  C1  UNL     1      -0.652  28.770  10.738  1.00  0.00     0.037 C 
ENDBRANCH   9  10
BRANCH   9  12
HETATM   12  C15 UNL     1      -4.038  28.309  11.319  1.00  0.00     0.223 C 
HETATM   13  C16 UNL     1      -3.929  29.797  11.513  1.00  0.00     0.036 C 
HETATM   14  C17 UNL     1      -4.370  30.205  12.939  1.00  0.00     0.002 C 
HETATM   15  C18 UNL     1      -3.430  29.657  13.964  1.00  0.00     0.000 C 
HETATM   16  C19 UNL     1      -3.052  28.243  13.596  1.00  0.00     0.002 C 
HETATM   17  C20 UNL     1      -4.170  27.712  12.715  1.00  0.00     0.036 C 
ENDBRANCH   9  12
ENDBRANCH   8   9
ENDBRANCH   7   8
ENDBRANCH   4   7
ENDBRANCH   1   4
BRANCH   1  18
HETATM   18  C7  UNL     1      -1.159  23.939   9.319  1.00  0.00     0.056 C 
HETATM   19  C8  UNL     1      -1.501  22.891  10.388  1.00  0.00     0.009 C 
ENDBRANCH   1  18
BRANCH   1  20
HETATM   20  C9  UNL     1      -1.824  23.103   7.051  1.00  0.00     0.036 A 
HETATM   21  C10 UNL     1      -2.158  23.336   5.743  1.00  0.00     0.050 A 
HETATM   22  C11 UNL     1      -1.590  22.555   4.811  1.00  0.00     0.073 A 
HETATM   23  N4  UNL     1      -1.743  22.629   3.448  1.00  0.00    -0.191 N 
HETATM   24  C14 UNL     1      -0.727  21.589   5.233  1.00  0.00     0.101 A 
HETATM   25  C12 UNL     1      -1.094  21.815   2.616  1.00  0.00     0.679 A 
ATOM     26  H4  UNL     1      -2.375  23.330   3.060  1.00  0.00     0.184 HD
HETATM   27  N6  UNL     1      -0.238  20.855   3.013  1.00  0.00    -0.155 N 
HETATM   28  C13 UNL     1      -0.055  20.742   4.333  1.00  0.00     0.279 A 
ATOM     29  H6  UNL     1       0.243  20.250   2.347  1.00  0.00     0.187 HD
HETATM   30  O1  UNL     1       0.710  19.889   4.836  1.00  0.00    -0.266 OA
HETATM   31  S1  UNL     1      -0.725  21.788   6.929  1.00  0.00    -0.083 SA
BRANCH  25  32
HETATM   32  N5  UNL     1      -1.270  21.976   1.320  1.00  0.00    -0.234 N 
ATOM     33  H52 UNL     1      -2.229  22.047   0.980  1.00  0.00     0.174 HD
ATOM     34  H51 UNL     1      -0.447  21.995   0.718  1.00  0.00     0.174 HD
ENDBRANCH  25  32
ENDBRANCH   1  20
TORSDOF 9
ENDMDL
MODEL 5
REMARK VINA RESULT: -8.350360115      1.984      3.310
REMARK  9 active torsions:
REMARK  status: ('A' for Active; 'I' for Inactive)
REMARK    1  A    between atoms: C2_2  and  N1_3 
REMARK    2  A    between atoms: N1_3  and  C3_4 
REMARK    3  A    between atoms: N1_3  and  C15_29 
REMARK    4  A    between atoms: C3_4  and  C4_5 
REMARK    5  A    between atoms: C4_5  and  N2_6 
REMARK    6  A    between atoms: N2_6  and  C5_9 
REMARK    7  A    between atoms: C5_9  and  C7_12 
REMARK    8  A    between atoms: C5_9  and  C9_14 
REMARK    9  A    between atoms: C12_19  and  N5_20 
ROOT
HETATM    1  C5  UNL     1      -2.228  23.832   8.280  1.00  0.00     0.245 C 
HETATM    2  C6  UNL     1      -3.242  22.880   8.865  1.00  0.00     0.104 C 
HETATM    3  N3  UNL     1      -4.046  22.158   9.330  1.00  0.00    -0.194 NA
ENDROOT
BRANCH   1   4
HETATM    4  N2  UNL     1      -2.960  25.055   8.040  1.00  0.00    -0.047 N 
ATOM      5  H22 UNL     1      -3.959  24.985   8.237  1.00  0.00     0.279 HD
ATOM      6  H21 UNL     1      -3.053  25.295   7.053  1.00  0.00     0.279 HD
BRANCH   4   7
HETATM    7  C4  UNL     1      -2.261  26.078   8.842  1.00  0.00     0.265 C 
BRANCH   7   8
HETATM    8  C3  UNL     1      -3.221  27.074   9.335  1.00  0.00     0.300 C 
BRANCH   8   9
HETATM    9  N1  UNL     1      -4.438  26.489   9.941  1.00  0.00     0.094 N 
BRANCH   9  10
HETATM   10  C2  UNL     1      -4.072  26.237  11.295  1.00  0.00     0.268 C 
HETATM   11  C1  UNL     1      -4.071  24.828  11.796  1.00  0.00     0.037 C 
ENDBRANCH   9  10
BRANCH   9  12
HETATM   12  C15 UNL     1      -5.598  27.253   9.757  1.00  0.00     0.223 C 
HETATM   13  C16 UNL     1      -6.240  27.652  11.058  1.00  0.00     0.036 C 
HETATM   14  C17 UNL     1      -7.781  27.548  10.972  1.00  0.00     0.002 C 
HETATM   15  C18 UNL     1      -8.209  26.126  10.801  1.00  0.00     0.000 C 
HETATM   16  C19 UNL     1      -7.286  25.434   9.829  1.00  0.00     0.002 C 
HETATM   17  C20 UNL     1      -6.675  26.524   8.964  1.00  0.00     0.036 C 
ENDBRANCH   9  12
ENDBRANCH   8   9
ENDBRANCH   7   8
ENDBRANCH   4   7
ENDBRANCH   1   4
BRANCH   1  18
HETATM   18  C7  UNL     1      -1.135  23.908   9.282  1.00  0.00     0.056 C 
HETATM   19  C8  UNL     1      -1.365  22.752  10.266  1.00  0.00     0.009 C 
ENDBRANCH   1  18
BRANCH   1  20
HETATM   20  C9  UNL     1      -1.841  23.115   7.011  1.00  0.00     0.036 A 
HETATM   21  C10 UNL     1      -2.208  23.376   5.717  1.00  0.00     0.050 A 
HETATM   22  C11 UNL     1      -1.650  22.627   4.754  1.00  0.00     0.073 A 
HETATM   23  N4  UNL     1      -1.833  22.734   3.397  1.00  0.00    -0.191 N 
HETATM   24  C14 UNL     1      -0.765  21.662   5.132  1.00  0.00     0.101 A 
HETATM   25  C12 UNL     1      -1.193  21.950   2.530  1.00  0.00     0.679 A 
ATOM     26  H4  UNL     1      -2.482  23.435   3.041  1.00  0.00     0.184 HD
HETATM   27  N6  UNL     1      -0.316  20.992   2.884  1.00  0.00    -0.155 N 
HETATM   28  C13 UNL     1      -0.103  20.847   4.196  1.00  0.00     0.279 A 
ATOM     29  H6  UNL     1       0.158  20.410   2.192  1.00  0.00     0.187 HD
HETATM   30  O1  UNL     1       0.685  19.993   4.660  1.00  0.00    -0.266 OA
HETATM   31  S1  UNL     1      -0.728  21.818   6.832  1.00  0.00    -0.083 SA
BRANCH  25  32
HETATM   32  N5  UNL     1      -1.399  22.141   1.243  1.00  0.00    -0.234 N 
ATOM     33  H52 UNL     1      -2.237  21.729   0.833  1.00  0.00     0.174 HD
ATOM     34  H51 UNL     1      -0.703  22.667   0.713  1.00  0.00     0.174 HD
ENDBRANCH  25  32
ENDBRANCH   1  20
TORSDOF 9
ENDMDL
