MODEL 1
REMARK VINA RESULT: -9.228241038      0.000      0.000
REMARK  14 active torsions:
REMARK  status: ('A' for Active; 'I' for Inactive)
REMARK    1  A    between atoms: C2_2  and  C3_3 
REMARK    2  A    between atoms: C3_3  and  C4_4 
REMARK    3  A    between atoms: C4_4  and  C5_5 
REMARK    4  A    between atoms: C5_5  and  C6_6 
REMARK    5  A    between atoms: C6_6  and  C7_7 
REMARK    6  A    between atoms: C7_7  and  N1_8 
REMARK    7  A    between atoms: N1_8  and  C8_9 
REMARK    8  A    between atoms: N1_8  and  C15_16 
REMARK    9  A    between atoms: C8_9  and  C9_10 
REMARK   10  A    between atoms: N5_27  and  C20_28 
REMARK   11  A    between atoms: C22_30  and  O1_31 
REMARK   12  A    between atoms: C24_34  and  O2_35 
REMARK   13  A    between atoms: O2_35  and  C25_36 
REMARK   14  A    between atoms: C25_36  and  C26_37 
ROOT
HETATM    1  C15 UNL     1      63.152  86.258  60.161  1.00  0.00     0.135 A 
HETATM    2  N2  UNL     1      63.537  87.455  60.608  1.00  0.00    -0.337 N 
ATOM      3  H2  UNL     1      63.497  88.258  59.981  1.00  0.00     0.168 HD
HETATM    4  C16 UNL     1      63.980  87.625  61.882  1.00  0.00     0.183 A 
HETATM    5  N3  UNL     1      64.034  86.574  62.712  1.00  0.00    -0.336 N 
ATOM      6  H3  UNL     1      64.367  86.709  63.666  1.00  0.00     0.168 HD
HETATM    7  C17 UNL     1      63.660  85.349  62.317  1.00  0.00     0.141 A 
HETATM    8  C18 UNL     1      63.208  85.180  61.013  1.00  0.00     0.122 A 
HETATM    9  N4  UNL     1      62.910  83.897  60.859  1.00  0.00    -0.346 N 
ATOM     10  H4  UNL     1      62.554  83.457  60.011  1.00  0.00     0.167 HD
HETATM   11  C19 UNL     1      63.167  83.276  62.041  1.00  0.00     0.185 A 
HETATM   12  N5  UNL     1      63.621  84.133  62.935  1.00  0.00    -0.320 N 
ENDROOT
BRANCH   1  13
HETATM   13  N1  UNL     1      62.666  86.170  58.805  1.00  0.00    -0.365 N 
BRANCH  13  14
HETATM   14  C7  UNL     1      61.272  86.218  58.506  1.00  0.00     0.124 C 
BRANCH  14  15
HETATM   15  C6  UNL     1      60.997  86.833  57.142  1.00  0.00     0.020 C 
BRANCH  15  16
HETATM   16  C5  UNL     1      60.398  85.838  56.177  1.00  0.00     0.002 C 
BRANCH  16  17
HETATM   17  C4  UNL     1      61.230  85.645  54.942  1.00  0.00     0.000 C 
BRANCH  17  18
HETATM   18  C3  UNL     1      60.533  84.747  53.933  1.00  0.00    -0.000 C 
BRANCH  18  19
HETATM   19  C2  UNL     1      61.338  84.639  52.669  1.00  0.00    -0.005 C 
HETATM   20  C1  UNL     1      60.478  84.411  51.456  1.00  0.00     0.005 C 
ENDBRANCH  18  19
ENDBRANCH  17  18
ENDBRANCH  16  17
ENDBRANCH  15  16
ENDBRANCH  14  15
ENDBRANCH  13  14
BRANCH  13  21
HETATM   21  C8  UNL     1      63.668  85.997  57.798  1.00  0.00     0.129 C 
BRANCH  21  22
HETATM   22  C9  UNL     1      64.222  84.627  57.642  1.00  0.00     0.004 C 
HETATM   23  C10 UNL     1      63.199  83.625  57.262  1.00  0.00     0.006 C 
HETATM   24  C11 UNL     1      63.820  82.698  56.201  1.00  0.00     0.000 C 
HETATM   25  C12 UNL     1      64.121  83.447  54.935  1.00  0.00     0.000 C 
HETATM   26  C13 UNL     1      64.908  84.718  55.236  1.00  0.00     0.000 C 
HETATM   27  C14 UNL     1      65.402  84.638  56.667  1.00  0.00     0.006 C 
ENDBRANCH  21  22
ENDBRANCH  13  21
ENDBRANCH   1  13
BRANCH  12  28
HETATM   28  C20 UNL     1      64.022  83.987  64.306  1.00  0.00     0.123 C 
HETATM   29  C21 UNL     1      65.549  83.795  64.384  1.00  0.00     0.060 C 
HETATM   30  C22 UNL     1      65.771  82.967  65.646  1.00  0.00     0.122 C 
HETATM   31  C23 UNL     1      64.419  82.925  66.324  1.00  0.00     0.065 C 
HETATM   32  C24 UNL     1      63.522  82.826  65.050  1.00  0.00     0.147 C 
BRANCH  30  33
HETATM   33  O1  UNL     1      66.684  83.683  66.453  1.00  0.00    -0.395 OA
ATOM     34  H1  UNL     1      66.180  84.089  67.149  1.00  0.00     0.210 HD
ENDBRANCH  30  33
BRANCH  32  35
HETATM   35  O2  UNL     1      62.218  82.783  65.427  1.00  0.00    -0.379 OA
BRANCH  35  36
HETATM   36  C25 UNL     1      61.503  83.938  65.460  1.00  0.00     0.206 C 
BRANCH  36  37
HETATM   37  C26 UNL     1      60.557  84.137  64.335  1.00  0.00    -0.035 A 
HETATM   38  C27 UNL     1      60.612  85.331  63.652  1.00  0.00     0.009 A 
HETATM   39  C28 UNL     1      59.793  85.638  62.589  1.00  0.00     0.001 A 
HETATM   40  C29 UNL     1      58.873  84.700  62.191  1.00  0.00     0.000 A 
HETATM   41  C30 UNL     1      58.803  83.498  62.864  1.00  0.00     0.001 A 
HETATM   42  C31 UNL     1      59.641  83.198  63.941  1.00  0.00     0.009 A 
ENDBRANCH  36  37
ENDBRANCH  35  36
ENDBRANCH  32  35
ENDBRANCH  12  28
TORSDOF 14
ENDMDL
MODEL 2
REMARK VINA RESULT: -9.084267837      1.731      2.348
REMARK  14 active torsions:
REMARK  status: ('A' for Active; 'I' for Inactive)
REMARK    1  A    between atoms: C2_2  and  C3_3 
REMARK    2  A    between atoms: C3_3  and  C4_4 
REMARK    3  A    between atoms: C4_4  and  C5_5 
REMARK    4  A    between atoms: C5_5  and  C6_6 
REMARK    5  A    between atoms: C6_6  and  C7_7 
REMARK    6  A    between atoms: C7_7  and  N1_8 
REMARK    7  A    between atoms: N1_8  and  C8_9 
REMARK    8  A    between atoms: N1_8  and  C15_16 
REMARK    9  A    between atoms: C8_9  and  C9_10 
REMARK   10  A    between atoms: N5_27  and  C20_28 
REMARK   11  A    between atoms: C22_30  and  O1_31 
REMARK   12  A    between atoms: C24_34  and  O2_35 
REMARK   13  A    between atoms: O2_35  and  C25_36 
REMARK   14  A    between atoms: C25_36  and  C26_37 
ROOT
HETATM    1  C15 UNL     1      62.680  86.229  59.902  1.00  0.00     0.135 A 
HETATM    2  N2  UNL     1      63.280  87.276  60.472  1.00  0.00    -0.337 N 
ATOM      3  H2  UNL     1      63.545  88.074  59.895  1.00  0.00     0.168 HD
HETATM    4  C16 UNL     1      63.546  87.300  61.805  1.00  0.00     0.183 A 
HETATM    5  N3  UNL     1      63.200  86.254  62.570  1.00  0.00    -0.336 N 
ATOM      6  H3  UNL     1      63.402  86.279  63.569  1.00  0.00     0.168 HD
HETATM    7  C17 UNL     1      62.594  85.177  62.051  1.00  0.00     0.141 A 
HETATM    8  C18 UNL     1      62.326  85.157  60.686  1.00  0.00     0.122 A 
HETATM    9  N4  UNL     1      61.740  83.998  60.414  1.00  0.00    -0.346 N 
ATOM     10  H4  UNL     1      61.422  83.683  59.498  1.00  0.00     0.167 HD
HETATM   11  C19 UNL     1      61.642  83.308  61.581  1.00  0.00     0.185 A 
HETATM   12  N5  UNL     1      62.151  84.000  62.582  1.00  0.00    -0.320 N 
ENDROOT
BRANCH   1  13
HETATM   13  N1  UNL     1      62.408  86.298  58.486  1.00  0.00    -0.365 N 
BRANCH  13  14
HETATM   14  C7  UNL     1      61.087  86.505  57.989  1.00  0.00     0.124 C 
BRANCH  14  15
HETATM   15  C6  UNL     1      61.054  86.611  56.471  1.00  0.00     0.020 C 
BRANCH  15  16
HETATM   16  C5  UNL     1      59.650  86.508  55.922  1.00  0.00     0.002 C 
BRANCH  16  17
HETATM   17  C4  UNL     1      59.555  85.613  54.721  1.00  0.00     0.000 C 
BRANCH  17  18
HETATM   18  C3  UNL     1      60.865  84.888  54.458  1.00  0.00    -0.000 C 
BRANCH  18  19
HETATM   19  C2  UNL     1      61.157  84.830  52.985  1.00  0.00    -0.005 C 
HETATM   20  C1  UNL     1      60.166  85.617  52.170  1.00  0.00     0.005 C 
ENDBRANCH  18  19
ENDBRANCH  17  18
ENDBRANCH  16  17
ENDBRANCH  15  16
ENDBRANCH  14  15
ENDBRANCH  13  14
BRANCH  13  21
HETATM   21  C8  UNL     1      63.537  86.108  57.628  1.00  0.00     0.129 C 
BRANCH  21  22
HETATM   22  C9  UNL     1      64.127  84.746  57.601  1.00  0.00     0.004 C 
HETATM   23  C10 UNL     1      63.150  83.694  57.233  1.00  0.00     0.006 C 
HETATM   24  C11 UNL     1      63.853  82.713  56.277  1.00  0.00     0.000 C 
HETATM   25  C12 UNL     1      64.214  83.381  54.981  1.00  0.00     0.000 C 
HETATM   26  C13 UNL     1      64.954  84.689  55.238  1.00  0.00     0.000 C 
HETATM   27  C14 UNL     1      65.363  84.719  56.697  1.00  0.00     0.006 C 
ENDBRANCH  21  22
ENDBRANCH  13  21
ENDBRANCH   1  13
BRANCH  12  28
HETATM   28  C20 UNL     1      62.282  83.728  63.986  1.00  0.00     0.123 C 
HETATM   29  C21 UNL     1      63.611  82.996  64.253  1.00  0.00     0.060 C 
HETATM   30  C22 UNL     1      63.345  82.152  65.496  1.00  0.00     0.122 C 
HETATM   31  C23 UNL     1      61.989  82.607  65.991  1.00  0.00     0.065 C 
HETATM   32  C24 UNL     1      61.300  82.832  64.607  1.00  0.00     0.147 C 
BRANCH  30  33
HETATM   33  O1  UNL     1      64.335  82.494  66.446  1.00  0.00    -0.395 OA
ATOM     34  H1  UNL     1      64.507  83.422  66.345  1.00  0.00     0.210 HD
ENDBRANCH  30  33
BRANCH  32  35
HETATM   35  O2  UNL     1      60.030  83.266  64.809  1.00  0.00    -0.379 OA
BRANCH  35  36
HETATM   36  C25 UNL     1      59.079  82.978  63.882  1.00  0.00     0.206 C 
BRANCH  36  37
HETATM   37  C26 UNL     1      58.637  81.562  63.839  1.00  0.00    -0.035 A 
HETATM   38  C27 UNL     1      57.422  81.250  64.405  1.00  0.00     0.009 A 
HETATM   39  C28 UNL     1      56.897  79.977  64.427  1.00  0.00     0.001 A 
HETATM   40  C29 UNL     1      57.629  78.967  63.853  1.00  0.00     0.000 A 
HETATM   41  C30 UNL     1      58.850  79.262  63.281  1.00  0.00     0.001 A 
HETATM   42  C31 UNL     1      59.370  80.558  63.264  1.00  0.00     0.009 A 
ENDBRANCH  36  37
ENDBRANCH  35  36
ENDBRANCH  32  35
ENDBRANCH  12  28
TORSDOF 14
ENDMDL
MODEL 3
REMARK VINA RESULT: -9.047659580      1.677      3.395
REMARK  14 active torsions:
REMARK  status: ('A' for Active; 'I' for Inactive)
REMARK    1  A    between atoms: C2_2  and  C3_3 
REMARK    2  A    between atoms: C3_3  and  C4_4 
REMARK    3  A    between atoms: C4_4  and  C5_5 
REMARK    4  A    between atoms: C5_5  and  C6_6 
REMARK    5  A    between atoms: C6_6  and  C7_7 
REMARK    6  A    between atoms: C7_7  and  N1_8 
REMARK    7  A    between atoms: N1_8  and  C8_9 
REMARK    8  A    between atoms: N1_8  and  C15_16 
REMARK    9  A    between atoms: C8_9  and  C9_10 
REMARK   10  A    between atoms: N5_27  and  C20_28 
REMARK   11  A    between atoms: C22_30  and  O1_31 
REMARK   12  A    between atoms: C24_34  and  O2_35 
REMARK   13  A    between atoms: O2_35  and  C25_36 
REMARK   14  A    between atoms: C25_36  and  C26_37 
ROOT
HETATM    1  C15 UNL     1      62.482  86.179  59.793  1.00  0.00     0.135 A 
HETATM    2  N2  UNL     1      63.003  87.228  60.431  1.00  0.00    -0.337 N 
ATOM      3  H2  UNL     1      63.287  88.048  59.896  1.00  0.00     0.168 HD
HETATM    4  C16 UNL     1      63.165  87.226  61.782  1.00  0.00     0.183 A 
HETATM    5  N3  UNL     1      62.794  86.151  62.493  1.00  0.00    -0.336 N 
ATOM      6  H3  UNL     1      62.918  86.157  63.505  1.00  0.00     0.168 HD
HETATM    7  C17 UNL     1      62.264  85.070  61.904  1.00  0.00     0.141 A 
HETATM    8  C18 UNL     1      62.102  85.077  60.522  1.00  0.00     0.122 A 
HETATM    9  N4  UNL     1      61.575  83.909  60.179  1.00  0.00    -0.346 N 
ATOM     10  H4  UNL     1      61.338  83.609  59.233  1.00  0.00     0.167 HD
HETATM   11  C19 UNL     1      61.409  83.187  61.318  1.00  0.00     0.185 A 
HETATM   12  N5  UNL     1      61.818  83.868  62.371  1.00  0.00    -0.320 N 
ENDROOT
BRANCH   1  13
HETATM   13  N1  UNL     1      62.317  86.276  58.362  1.00  0.00    -0.365 N 
BRANCH  13  14
HETATM   14  C7  UNL     1      61.035  86.475  57.770  1.00  0.00     0.124 C 
BRANCH  14  15
HETATM   15  C6  UNL     1      61.098  86.476  56.249  1.00  0.00     0.020 C 
BRANCH  15  16
HETATM   16  C5  UNL     1      59.776  86.100  55.623  1.00  0.00     0.002 C 
BRANCH  16  17
HETATM   17  C4  UNL     1      59.893  84.976  54.636  1.00  0.00     0.000 C 
BRANCH  17  18
HETATM   18  C3  UNL     1      61.247  84.975  53.947  1.00  0.00    -0.000 C 
BRANCH  18  19
HETATM   19  C2  UNL     1      61.106  84.618  52.494  1.00  0.00    -0.005 C 
HETATM   20  C1  UNL     1      60.285  85.621  51.730  1.00  0.00     0.005 C 
ENDBRANCH  18  19
ENDBRANCH  17  18
ENDBRANCH  16  17
ENDBRANCH  15  16
ENDBRANCH  14  15
ENDBRANCH  13  14
BRANCH  13  21
HETATM   21  C8  UNL     1      63.512  86.122  57.590  1.00  0.00     0.129 C 
BRANCH  21  22
HETATM   22  C9  UNL     1      64.144  84.778  57.608  1.00  0.00     0.004 C 
HETATM   23  C10 UNL     1      63.221  83.693  57.201  1.00  0.00     0.006 C 
HETATM   24  C11 UNL     1      64.003  82.726  56.294  1.00  0.00     0.000 C 
HETATM   25  C12 UNL     1      64.410  83.393  55.011  1.00  0.00     0.000 C 
HETATM   26  C13 UNL     1      65.095  84.725  55.292  1.00  0.00     0.000 C 
HETATM   27  C14 UNL     1      65.426  84.782  56.770  1.00  0.00     0.006 C 
ENDBRANCH  21  22
ENDBRANCH  13  21
ENDBRANCH   1  13
BRANCH  12  28
HETATM   28  C20 UNL     1      61.849  83.563  63.775  1.00  0.00     0.123 C 
HETATM   29  C21 UNL     1      60.525  83.998  64.431  1.00  0.00     0.060 C 
HETATM   30  C22 UNL     1      60.896  84.319  65.875  1.00  0.00     0.122 C 
HETATM   31  C23 UNL     1      62.326  83.847  66.022  1.00  0.00     0.065 C 
HETATM   32  C24 UNL     1      62.849  84.244  64.605  1.00  0.00     0.147 C 
BRANCH  30  33
HETATM   33  O1  UNL     1      60.053  83.540  66.700  1.00  0.00    -0.395 OA
ATOM     34  H1  UNL     1      60.452  83.518  67.562  1.00  0.00     0.210 HD
ENDBRANCH  30  33
BRANCH  32  35
HETATM   35  O2  UNL     1      64.157  83.895  64.500  1.00  0.00    -0.379 OA
BRANCH  35  36
HETATM   36  C25 UNL     1      64.581  82.745  65.087  1.00  0.00     0.206 C 
BRANCH  36  37
HETATM   37  C26 UNL     1      64.843  81.614  64.164  1.00  0.00    -0.035 A 
HETATM   38  C27 UNL     1      63.997  80.529  64.220  1.00  0.00     0.009 A 
HETATM   39  C28 UNL     1      64.129  79.419  63.416  1.00  0.00     0.001 A 
HETATM   40  C29 UNL     1      65.160  79.397  62.511  1.00  0.00     0.000 A 
HETATM   41  C30 UNL     1      66.017  80.476  62.440  1.00  0.00     0.001 A 
HETATM   42  C31 UNL     1      65.872  81.596  63.261  1.00  0.00     0.009 A 
ENDBRANCH  36  37
ENDBRANCH  35  36
ENDBRANCH  32  35
ENDBRANCH  12  28
TORSDOF 14
ENDMDL
MODEL 4
REMARK VINA RESULT: -8.835875581      2.828      5.657
REMARK  14 active torsions:
REMARK  status: ('A' for Active; 'I' for Inactive)
REMARK    1  A    between atoms: C2_2  and  C3_3 
REMARK    2  A    between atoms: C3_3  and  C4_4 
REMARK    3  A    between atoms: C4_4  and  C5_5 
REMARK    4  A    between atoms: C5_5  and  C6_6 
REMARK    5  A    between atoms: C6_6  and  C7_7 
REMARK    6  A    between atoms: C7_7  and  N1_8 
REMARK    7  A    between atoms: N1_8  and  C8_9 
REMARK    8  A    between atoms: N1_8  and  C15_16 
REMARK    9  A    between atoms: C8_9  and  C9_10 
REMARK   10  A    between atoms: N5_27  and  C20_28 
REMARK   11  A    between atoms: C22_30  and  O1_31 
REMARK   12  A    between atoms: C24_34  and  O2_35 
REMARK   13  A    between atoms: O2_35  and  C25_36 
REMARK   14  A    between atoms: C25_36  and  C26_37 
ROOT
HETATM    1  C15 UNL     1      61.394  84.877  60.956  1.00  0.00     0.135 A 
HETATM    2  N2  UNL     1      60.248  85.561  60.945  1.00  0.00    -0.337 N 
ATOM      3  H2  UNL     1      60.092  86.262  60.222  1.00  0.00     0.168 HD
HETATM    4  C16 UNL     1      59.284  85.341  61.878  1.00  0.00     0.183 A 
HETATM    5  N3  UNL     1      59.482  84.419  62.832  1.00  0.00    -0.336 N 
ATOM      6  H3  UNL     1      58.754  84.259  63.528  1.00  0.00     0.168 HD
HETATM    7  C17 UNL     1      60.613  83.703  62.891  1.00  0.00     0.141 A 
HETATM    8  C18 UNL     1      61.596  83.933  61.935  1.00  0.00     0.122 A 
HETATM    9  N4  UNL     1      62.610  83.121  62.205  1.00  0.00    -0.346 N 
ATOM     10  H4  UNL     1      63.484  83.052  61.684  1.00  0.00     0.167 HD
HETATM   11  C19 UNL     1      62.270  82.398  63.304  1.00  0.00     0.185 A 
HETATM   12  N5  UNL     1      61.069  82.733  63.735  1.00  0.00    -0.320 N 
ENDROOT
BRANCH   1  13
HETATM   13  N1  UNL     1      62.352  85.151  59.911  1.00  0.00    -0.365 N 
BRANCH  13  14
HETATM   14  C7  UNL     1      63.514  85.943  60.152  1.00  0.00     0.124 C 
BRANCH  14  15
HETATM   15  C6  UNL     1      63.204  87.183  60.979  1.00  0.00     0.020 C 
BRANCH  15  16
HETATM   16  C5  UNL     1      64.139  87.333  62.155  1.00  0.00     0.002 C 
BRANCH  16  17
HETATM   17  C4  UNL     1      64.588  86.016  62.719  1.00  0.00     0.000 C 
BRANCH  17  18
HETATM   18  C3  UNL     1      63.946  85.738  64.068  1.00  0.00    -0.000 C 
BRANCH  18  19
HETATM   19  C2  UNL     1      64.643  84.605  64.767  1.00  0.00    -0.005 C 
HETATM   20  C1  UNL     1      65.737  83.998  63.931  1.00  0.00     0.005 C 
ENDBRANCH  18  19
ENDBRANCH  17  18
ENDBRANCH  16  17
ENDBRANCH  15  16
ENDBRANCH  14  15
ENDBRANCH  13  14
BRANCH  13  21
HETATM   21  C8  UNL     1      62.037  84.610  58.625  1.00  0.00     0.129 C 
BRANCH  21  22
HETATM   22  C9  UNL     1      63.000  84.897  57.531  1.00  0.00     0.004 C 
HETATM   23  C10 UNL     1      63.255  83.728  56.657  1.00  0.00     0.006 C 
HETATM   24  C11 UNL     1      63.300  84.229  55.202  1.00  0.00     0.000 C 
HETATM   25  C12 UNL     1      61.962  84.756  54.768  1.00  0.00     0.000 C 
HETATM   26  C13 UNL     1      61.419  85.752  55.787  1.00  0.00     0.000 C 
HETATM   27  C14 UNL     1      62.547  86.121  56.730  1.00  0.00     0.006 C 
ENDBRANCH  21  22
ENDBRANCH  13  21
ENDBRANCH   1  13
BRANCH  12  28
HETATM   28  C20 UNL     1      60.264  82.269  64.832  1.00  0.00     0.123 C 
HETATM   29  C21 UNL     1      60.694  82.980  66.129  1.00  0.00     0.060 C 
HETATM   30  C22 UNL     1      60.367  81.987  67.240  1.00  0.00     0.122 C 
HETATM   31  C23 UNL     1      59.583  80.887  66.558  1.00  0.00     0.065 C 
HETATM   32  C24 UNL     1      60.358  80.854  65.203  1.00  0.00     0.147 C 
BRANCH  30  33
HETATM   33  O1  UNL     1      59.535  82.660  68.163  1.00  0.00    -0.395 OA
ATOM     34  H1  UNL     1      59.541  83.579  67.924  1.00  0.00     0.210 HD
ENDBRANCH  30  33
BRANCH  32  35
HETATM   35  O2  UNL     1      59.804  79.911  64.398  1.00  0.00    -0.379 OA
BRANCH  35  36
HETATM   36  C25 UNL     1      59.007  80.307  63.371  1.00  0.00     0.206 C 
BRANCH  36  37
HETATM   37  C26 UNL     1      57.667  79.673  63.320  1.00  0.00    -0.035 A 
HETATM   38  C27 UNL     1      56.716  80.106  64.215  1.00  0.00     0.009 A 
HETATM   39  C28 UNL     1      55.436  79.603  64.269  1.00  0.00     0.001 A 
HETATM   40  C29 UNL     1      55.093  78.615  63.380  1.00  0.00     0.000 A 
HETATM   41  C30 UNL     1      56.034  78.168  62.475  1.00  0.00     0.001 A 
HETATM   42  C31 UNL     1      57.329  78.688  62.430  1.00  0.00     0.009 A 
ENDBRANCH  36  37
ENDBRANCH  35  36
ENDBRANCH  32  35
ENDBRANCH  12  28
TORSDOF 14
ENDMDL
MODEL 5
REMARK VINA RESULT: -8.826394335      4.544      9.804
REMARK  14 active torsions:
REMARK  status: ('A' for Active; 'I' for Inactive)
REMARK    1  A    between atoms: C2_2  and  C3_3 
REMARK    2  A    between atoms: C3_3  and  C4_4 
REMARK    3  A    between atoms: C4_4  and  C5_5 
REMARK    4  A    between atoms: C5_5  and  C6_6 
REMARK    5  A    between atoms: C6_6  and  C7_7 
REMARK    6  A    between atoms: C7_7  and  N1_8 
REMARK    7  A    between atoms: N1_8  and  C8_9 
REMARK    8  A    between atoms: N1_8  and  C15_16 
REMARK    9  A    between atoms: C8_9  and  C9_10 
REMARK   10  A    between atoms: N5_27  and  C20_28 
REMARK   11  A    between atoms: C22_30  and  O1_31 
REMARK   12  A    between atoms: C24_34  and  O2_35 
REMARK   13  A    between atoms: O2_35  and  C25_36 
REMARK   14  A    between atoms: C25_36  and  C26_37 
ROOT
HETATM    1  C15 UNL     1      59.723  81.369  63.725  1.00  0.00     0.135 A 
HETATM    2  N2  UNL     1      60.843  80.649  63.821  1.00  0.00    -0.337 N 
ATOM      3  H2  UNL     1      60.805  79.721  64.242  1.00  0.00     0.168 HD
HETATM    4  C16 UNL     1      62.033  81.128  63.370  1.00  0.00     0.183 A 
HETATM    5  N3  UNL     1      62.090  82.347  62.815  1.00  0.00    -0.336 N 
ATOM      6  H3  UNL     1      62.986  82.699  62.479  1.00  0.00     0.168 HD
HETATM    7  C17 UNL     1      60.998  83.113  62.692  1.00  0.00     0.141 A 
HETATM    8  C18 UNL     1      59.783  82.619  63.156  1.00  0.00     0.122 A 
HETATM    9  N4  UNL     1      58.865  83.551  62.935  1.00  0.00    -0.346 N 
ATOM     10  H4  UNL     1      57.874  83.488  63.166  1.00  0.00     0.167 HD
HETATM   11  C19 UNL     1      59.489  84.604  62.345  1.00  0.00     0.185 A 
HETATM   12  N5  UNL     1      60.777  84.362  62.189  1.00  0.00    -0.320 N 
ENDROOT
BRANCH   1  13
HETATM   13  N1  UNL     1      58.497  80.773  64.201  1.00  0.00    -0.365 N 
BRANCH  13  14
HETATM   14  C7  UNL     1      58.183  80.723  65.591  1.00  0.00     0.124 C 
BRANCH  14  15
HETATM   15  C6  UNL     1      56.687  80.844  65.847  1.00  0.00     0.020 C 
BRANCH  15  16
HETATM   16  C5  UNL     1      56.234  79.981  67.000  1.00  0.00     0.002 C 
BRANCH  16  17
HETATM   17  C4  UNL     1      54.817  80.254  67.414  1.00  0.00     0.000 C 
BRANCH  17  18
HETATM   18  C3  UNL     1      53.935  79.030  67.229  1.00  0.00    -0.000 C 
BRANCH  18  19
HETATM   19  C2  UNL     1      53.422  78.535  68.552  1.00  0.00    -0.005 C 
HETATM   20  C1  UNL     1      52.737  79.616  69.344  1.00  0.00     0.005 C 
ENDBRANCH  18  19
ENDBRANCH  17  18
ENDBRANCH  16  17
ENDBRANCH  15  16
ENDBRANCH  14  15
ENDBRANCH  13  14
BRANCH  13  21
HETATM   21  C8  UNL     1      57.649  80.213  63.194  1.00  0.00     0.129 C 
BRANCH  21  22
HETATM   22  C9  UNL     1      57.699  78.737  63.032  1.00  0.00     0.004 C 
HETATM   23  C10 UNL     1      58.090  78.028  64.273  1.00  0.00     0.006 C 
HETATM   24  C11 UNL     1      57.199  76.779  64.402  1.00  0.00     0.000 C 
HETATM   25  C12 UNL     1      55.759  77.157  64.605  1.00  0.00     0.000 C 
HETATM   26  C13 UNL     1      55.317  78.173  63.558  1.00  0.00     0.000 C 
HETATM   27  C14 UNL     1      56.372  78.218  62.472  1.00  0.00     0.006 C 
ENDBRANCH  21  22
ENDBRANCH  13  21
ENDBRANCH   1  13
BRANCH  12  28
HETATM   28  C20 UNL     1      61.850  85.131  61.623  1.00  0.00     0.123 C 
HETATM   29  C21 UNL     1      62.480  86.023  62.709  1.00  0.00     0.060 C 
HETATM   30  C22 UNL     1      63.023  87.230  61.951  1.00  0.00     0.122 C 
HETATM   31  C23 UNL     1      62.880  86.866  60.489  1.00  0.00     0.065 C 
HETATM   32  C24 UNL     1      61.521  86.100  60.572  1.00  0.00     0.147 C 
BRANCH  30  33
HETATM   33  O1  UNL     1      64.394  87.340  62.279  1.00  0.00    -0.395 OA
ATOM     34  H1  UNL     1      64.486  88.108  62.830  1.00  0.00     0.210 HD
ENDBRANCH  30  33
BRANCH  32  35
HETATM   35  O2  UNL     1      61.184  85.658  59.333  1.00  0.00    -0.379 OA
BRANCH  35  36
HETATM   36  C25 UNL     1      61.717  86.274  58.246  1.00  0.00     0.206 C 
BRANCH  36  37
HETATM   37  C26 UNL     1      62.342  85.376  57.244  1.00  0.00    -0.035 A 
HETATM   38  C27 UNL     1      63.145  84.357  57.705  1.00  0.00     0.009 A 
HETATM   39  C28 UNL     1      63.779  83.454  56.881  1.00  0.00     0.001 A 
HETATM   40  C29 UNL     1      63.598  83.581  55.527  1.00  0.00     0.000 A 
HETATM   41  C30 UNL     1      62.797  84.596  55.046  1.00  0.00     0.001 A 
HETATM   42  C31 UNL     1      62.159  85.505  55.893  1.00  0.00     0.009 A 
ENDBRANCH  36  37
ENDBRANCH  35  36
ENDBRANCH  32  35
ENDBRANCH  12  28
TORSDOF 14
ENDMDL
