MODEL 1
REMARK VINA RESULT: -9.540553567      0.000      0.000
REMARK  13 active torsions:
REMARK  status: ('A' for Active; 'I' for Inactive)
REMARK    1  A    between atoms: C2_3  and  S1_4 
REMARK    2  A    between atoms: S1_4  and  C3_5 
REMARK    3  A    between atoms: C3_5  and  C4_6 
REMARK    4  A    between atoms: C4_6  and  S2_7 
REMARK    5  A    between atoms: S2_7  and  S3_8 
REMARK    6  A    between atoms: S3_8  and  C5_9 
REMARK    7  A    between atoms: C5_9  and  C6_10 
REMARK    8  A    between atoms: C6_10  and  C7_11 
REMARK    9  A    between atoms: C7_11  and  N2_12 
REMARK       I    between atoms: N2_12  and  C8_14 
REMARK   10  A    between atoms: C8_14  and  C9_16 
REMARK   11  A    between atoms: C12_19  and  O2_20 
REMARK   12  A    between atoms: O2_20  and  C13_21 
REMARK   13  A    between atoms: C13_21  and  C14_22 
ROOT
HETATM    1  C7  UNL     1      64.195  85.717  63.299  1.00  0.00     0.123 C 
ENDROOT
BRANCH   1   2
HETATM    2  C6  UNL     1      64.206  84.398  63.963  1.00  0.00     0.031 C 
BRANCH   2   3
HETATM    3  C5  UNL     1      65.539  83.955  64.465  1.00  0.00     0.088 C 
BRANCH   3   4
HETATM    4  S3  UNL     1      65.431  82.519  65.520  1.00  0.00    -0.098 SA
BRANCH   4   5
HETATM    5  S2  UNL     1      63.805  81.281  65.022  1.00  0.00    -0.097 SA
BRANCH   5   6
HETATM    6  C4  UNL     1      63.055  80.713  66.599  1.00  0.00     0.097 C 
BRANCH   6   7
HETATM    7  C3  UNL     1      63.036  81.910  67.522  1.00  0.00     0.093 C 
BRANCH   7   8
HETATM    8  S1  UNL     1      61.377  82.571  67.745  1.00  0.00    -0.093 SA
BRANCH   8   9
HETATM    9  C2  UNL     1      60.830  83.251  66.185  1.00  0.00     0.147 A 
HETATM   10  N1  UNL     1      60.034  82.624  65.285  1.00  0.00    -0.330 N 
HETATM   11  C1  UNL     1      59.509  81.291  65.487  1.00  0.00     0.158 C 
HETATM   12  C27 UNL     1      59.853  83.453  64.240  1.00  0.00     0.063 A 
HETATM   13  C22 UNL     1      60.535  84.621  64.468  1.00  0.00     0.061 A 
HETATM   14  C26 UNL     1      59.129  83.297  63.062  1.00  0.00     0.032 A 
HETATM   15  N3  UNL     1      61.124  84.466  65.667  1.00  0.00    -0.335 N 
HETATM   16  C23 UNL     1      60.485  85.603  63.531  1.00  0.00     0.032 A 
ATOM     17  H3  UNL     1      61.709  85.167  66.122  1.00  0.00     0.168 HD
HETATM   18  C24 UNL     1      59.781  85.497  62.344  1.00  0.00     0.002 A 
HETATM   19  C25 UNL     1      59.101  84.316  62.131  1.00  0.00     0.002 A 
ENDBRANCH   8   9
ENDBRANCH   7   8
ENDBRANCH   6   7
ENDBRANCH   5   6
ENDBRANCH   4   5
ENDBRANCH   3   4
ENDBRANCH   2   3
ENDBRANCH   1   2
BRANCH   1  20
HETATM   20  N2  UNL     1      63.766  85.630  61.908  1.00  0.00    -0.357 N 
HETATM   21  C8  UNL     1      63.256  86.745  61.203  1.00  0.00     0.251 C 
HETATM   22  O1  UNL     1      63.159  87.874  61.784  1.00  0.00    -0.268 OA
ATOM     23  H2  UNL     1      63.835  84.734  61.427  1.00  0.00     0.162 HD
BRANCH  21  24
HETATM   24  C9  UNL     1      62.842  86.604  59.812  1.00  0.00     0.032 A 
HETATM   25  C10 UNL     1      61.611  86.160  59.400  1.00  0.00     0.020 A 
HETATM   26  C11 UNL     1      61.302  86.066  58.060  1.00  0.00     0.038 A 
HETATM   27  C12 UNL     1      62.207  86.406  57.067  1.00  0.00     0.069 A 
HETATM   28  C20 UNL     1      63.440  86.849  57.468  1.00  0.00     0.038 A 
HETATM   29  C21 UNL     1      63.750  86.946  58.804  1.00  0.00     0.020 A 
BRANCH  27  30
HETATM   30  O2  UNL     1      61.827  86.284  55.721  1.00  0.00    -0.347 OA
BRANCH  30  31
HETATM   31  C13 UNL     1      62.061  85.190  54.908  1.00  0.00     0.214 C 
BRANCH  31  32
HETATM   32  C14 UNL     1      61.039  84.931  53.872  1.00  0.00    -0.034 A 
HETATM   33  C15 UNL     1      59.709  85.030  54.253  1.00  0.00     0.009 A 
HETATM   34  C16 UNL     1      58.723  84.810  53.318  1.00  0.00     0.001 A 
HETATM   35  C17 UNL     1      59.017  84.498  52.030  1.00  0.00     0.000 A 
HETATM   36  C18 UNL     1      60.319  84.398  51.642  1.00  0.00     0.001 A 
HETATM   37  C19 UNL     1      61.324  84.614  52.561  1.00  0.00     0.009 A 
ENDBRANCH  31  32
ENDBRANCH  30  31
ENDBRANCH  27  30
ENDBRANCH  21  24
ENDBRANCH   1  20
TORSDOF 13
ENDMDL
MODEL 2
REMARK VINA RESULT: -9.431455843      2.510      4.731
REMARK  13 active torsions:
REMARK  status: ('A' for Active; 'I' for Inactive)
REMARK    1  A    between atoms: C2_3  and  S1_4 
REMARK    2  A    between atoms: S1_4  and  C3_5 
REMARK    3  A    between atoms: C3_5  and  C4_6 
REMARK    4  A    between atoms: C4_6  and  S2_7 
REMARK    5  A    between atoms: S2_7  and  S3_8 
REMARK    6  A    between atoms: S3_8  and  C5_9 
REMARK    7  A    between atoms: C5_9  and  C6_10 
REMARK    8  A    between atoms: C6_10  and  C7_11 
REMARK    9  A    between atoms: C7_11  and  N2_12 
REMARK       I    between atoms: N2_12  and  C8_14 
REMARK   10  A    between atoms: C8_14  and  C9_16 
REMARK   11  A    between atoms: C12_19  and  O2_20 
REMARK   12  A    between atoms: O2_20  and  C13_21 
REMARK   13  A    between atoms: C13_21  and  C14_22 
ROOT
HETATM    1  C7  UNL     1      60.495  84.228  65.420  1.00  0.00     0.123 C 
ENDROOT
BRANCH   1   2
HETATM    2  C6  UNL     1      61.455  83.472  66.248  1.00  0.00     0.031 C 
BRANCH   2   3
HETATM    3  C5  UNL     1      61.263  81.992  66.246  1.00  0.00     0.088 C 
BRANCH   3   4
HETATM    4  S3  UNL     1      59.654  81.511  65.639  1.00  0.00    -0.098 SA
BRANCH   4   5
HETATM    5  S2  UNL     1      59.708  80.904  63.626  1.00  0.00    -0.097 SA
BRANCH   5   6
HETATM    6  C4  UNL     1      59.999  79.091  63.615  1.00  0.00     0.097 C 
BRANCH   6   7
HETATM    7  C3  UNL     1      61.204  78.854  62.734  1.00  0.00     0.093 C 
BRANCH   7   8
HETATM    8  S1  UNL     1      62.713  78.634  63.689  1.00  0.00    -0.093 SA
BRANCH   8   9
HETATM    9  C2  UNL     1      63.488  80.233  63.890  1.00  0.00     0.147 A 
HETATM   10  N1  UNL     1      64.308  80.591  64.908  1.00  0.00    -0.330 N 
HETATM   11  C1  UNL     1      64.674  79.693  65.982  1.00  0.00     0.158 C 
HETATM   12  C27 UNL     1      64.682  81.869  64.712  1.00  0.00     0.063 A 
HETATM   13  C22 UNL     1      64.098  82.337  63.563  1.00  0.00     0.061 A 
HETATM   14  C26 UNL     1      65.508  82.706  65.456  1.00  0.00     0.032 A 
HETATM   15  N3  UNL     1      63.373  81.312  63.082  1.00  0.00    -0.335 N 
HETATM   16  C23 UNL     1      64.346  83.616  63.176  1.00  0.00     0.032 A 
ATOM     17  H3  UNL     1      62.815  81.344  62.229  1.00  0.00     0.168 HD
HETATM   18  C24 UNL     1      65.158  84.488  63.880  1.00  0.00     0.002 A 
HETATM   19  C25 UNL     1      65.736  84.000  65.033  1.00  0.00     0.002 A 
ENDBRANCH   8   9
ENDBRANCH   7   8
ENDBRANCH   6   7
ENDBRANCH   5   6
ENDBRANCH   4   5
ENDBRANCH   3   4
ENDBRANCH   2   3
ENDBRANCH   1   2
BRANCH   1  20
HETATM   20  N2  UNL     1      61.119  84.798  64.232  1.00  0.00    -0.357 N 
HETATM   21  C8  UNL     1      60.394  85.056  63.045  1.00  0.00     0.251 C 
HETATM   22  O1  UNL     1      59.151  84.787  62.990  1.00  0.00    -0.268 OA
ATOM     23  H2  UNL     1      62.115  85.018  64.257  1.00  0.00     0.162 HD
BRANCH  21  24
HETATM   24  C9  UNL     1      61.068  85.628  61.886  1.00  0.00     0.032 A 
HETATM   25  C10 UNL     1      60.656  85.482  60.586  1.00  0.00     0.020 A 
HETATM   26  C11 UNL     1      61.353  86.068  59.550  1.00  0.00     0.038 A 
HETATM   27  C12 UNL     1      62.495  86.825  59.762  1.00  0.00     0.069 A 
HETATM   28  C20 UNL     1      62.915  86.976  61.057  1.00  0.00     0.038 A 
HETATM   29  C21 UNL     1      62.222  86.395  62.092  1.00  0.00     0.020 A 
BRANCH  27  30
HETATM   30  O2  UNL     1      63.156  87.391  58.661  1.00  0.00    -0.347 OA
BRANCH  30  31
HETATM   31  C13 UNL     1      62.836  87.190  57.330  1.00  0.00     0.214 C 
BRANCH  31  32
HETATM   32  C14 UNL     1      63.382  85.961  56.718  1.00  0.00    -0.034 A 
HETATM   33  C15 UNL     1      62.640  85.370  55.707  1.00  0.00     0.009 A 
HETATM   34  C16 UNL     1      63.117  84.231  55.098  1.00  0.00     0.001 A 
HETATM   35  C17 UNL     1      64.297  83.667  55.463  1.00  0.00     0.000 A 
HETATM   36  C18 UNL     1      65.036  84.237  56.455  1.00  0.00     0.001 A 
HETATM   37  C19 UNL     1      64.579  85.379  57.079  1.00  0.00     0.009 A 
ENDBRANCH  31  32
ENDBRANCH  30  31
ENDBRANCH  27  30
ENDBRANCH  21  24
ENDBRANCH   1  20
TORSDOF 13
ENDMDL
MODEL 3
REMARK VINA RESULT: -9.280420165      2.337      3.459
REMARK  13 active torsions:
REMARK  status: ('A' for Active; 'I' for Inactive)
REMARK    1  A    between atoms: C2_3  and  S1_4 
REMARK    2  A    between atoms: S1_4  and  C3_5 
REMARK    3  A    between atoms: C3_5  and  C4_6 
REMARK    4  A    between atoms: C4_6  and  S2_7 
REMARK    5  A    between atoms: S2_7  and  S3_8 
REMARK    6  A    between atoms: S3_8  and  C5_9 
REMARK    7  A    between atoms: C5_9  and  C6_10 
REMARK    8  A    between atoms: C6_10  and  C7_11 
REMARK    9  A    between atoms: C7_11  and  N2_12 
REMARK       I    between atoms: N2_12  and  C8_14 
REMARK   10  A    between atoms: C8_14  and  C9_16 
REMARK   11  A    between atoms: C12_19  and  O2_20 
REMARK   12  A    between atoms: O2_20  and  C13_21 
REMARK   13  A    between atoms: C13_21  and  C14_22 
ROOT
HETATM    1  C7  UNL     1      64.517  82.689  64.551  1.00  0.00     0.123 C 
ENDROOT
BRANCH   1   2
HETATM    2  C6  UNL     1      65.500  81.633  64.241  1.00  0.00     0.031 C 
BRANCH   2   3
HETATM    3  C5  UNL     1      65.331  80.985  62.907  1.00  0.00     0.088 C 
BRANCH   3   4
HETATM    4  S3  UNL     1      64.768  79.296  63.032  1.00  0.00    -0.098 SA
BRANCH   4   5
HETATM    5  S2  UNL     1      63.163  79.085  64.375  1.00  0.00    -0.097 SA
BRANCH   5   6
HETATM    6  C4  UNL     1      61.617  79.214  63.394  1.00  0.00     0.097 C 
BRANCH   6   7
HETATM    7  C3  UNL     1      60.563  78.433  64.147  1.00  0.00     0.093 C 
BRANCH   7   8
HETATM    8  S1  UNL     1      59.540  79.493  65.181  1.00  0.00    -0.093 SA
BRANCH   8   9
HETATM    9  C2  UNL     1      59.644  81.162  64.548  1.00  0.00     0.147 A 
HETATM   10  N1  UNL     1      60.390  82.162  65.077  1.00  0.00    -0.330 N 
HETATM   11  C1  UNL     1      61.225  81.993  66.247  1.00  0.00     0.158 C 
HETATM   12  C27 UNL     1      60.200  83.265  64.328  1.00  0.00     0.063 A 
HETATM   13  C22 UNL     1      59.326  82.973  63.312  1.00  0.00     0.061 A 
HETATM   14  C26 UNL     1      60.724  84.549  64.438  1.00  0.00     0.032 A 
HETATM   15  N3  UNL     1      59.003  81.678  63.474  1.00  0.00    -0.335 N 
HETATM   16  C23 UNL     1      58.994  83.953  62.432  1.00  0.00     0.032 A 
ATOM     17  H3  UNL     1      58.365  81.158  62.872  1.00  0.00     0.168 HD
HETATM   18  C24 UNL     1      59.487  85.245  62.498  1.00  0.00     0.002 A 
HETATM   19  C25 UNL     1      60.364  85.520  63.526  1.00  0.00     0.002 A 
ENDBRANCH   8   9
ENDBRANCH   7   8
ENDBRANCH   6   7
ENDBRANCH   5   6
ENDBRANCH   4   5
ENDBRANCH   3   4
ENDBRANCH   2   3
ENDBRANCH   1   2
BRANCH   1  20
HETATM   20  N2  UNL     1      63.834  83.176  63.358  1.00  0.00    -0.357 N 
HETATM   21  C8  UNL     1      63.978  84.503  62.891  1.00  0.00     0.251 C 
HETATM   22  O1  UNL     1      64.725  85.320  63.521  1.00  0.00    -0.268 OA
ATOM     23  H2  UNL     1      63.231  82.536  62.841  1.00  0.00     0.162 HD
BRANCH  21  24
HETATM   24  C9  UNL     1      63.273  84.937  61.691  1.00  0.00     0.032 A 
HETATM   25  C10 UNL     1      62.559  84.113  60.858  1.00  0.00     0.020 A 
HETATM   26  C11 UNL     1      61.915  84.613  59.746  1.00  0.00     0.038 A 
HETATM   27  C12 UNL     1      61.953  85.957  59.411  1.00  0.00     0.069 A 
HETATM   28  C20 UNL     1      62.665  86.788  60.236  1.00  0.00     0.038 A 
HETATM   29  C21 UNL     1      63.307  86.293  61.346  1.00  0.00     0.020 A 
BRANCH  27  30
HETATM   30  O2  UNL     1      61.276  86.397  58.264  1.00  0.00    -0.347 OA
BRANCH  30  31
HETATM   31  C13 UNL     1      61.861  86.741  57.058  1.00  0.00     0.214 C 
BRANCH  31  32
HETATM   32  C14 UNL     1      62.876  85.796  56.546  1.00  0.00    -0.034 A 
HETATM   33  C15 UNL     1      62.495  84.951  55.515  1.00  0.00     0.009 A 
HETATM   34  C16 UNL     1      63.411  84.063  54.998  1.00  0.00     0.001 A 
HETATM   35  C17 UNL     1      64.682  83.993  55.471  1.00  0.00     0.000 A 
HETATM   36  C18 UNL     1      65.070  84.818  56.483  1.00  0.00     0.001 A 
HETATM   37  C19 UNL     1      64.169  85.715  57.017  1.00  0.00     0.009 A 
ENDBRANCH  31  32
ENDBRANCH  30  31
ENDBRANCH  27  30
ENDBRANCH  21  24
ENDBRANCH   1  20
TORSDOF 13
ENDMDL
MODEL 4
REMARK VINA RESULT: -9.246882409      2.448      4.531
REMARK  13 active torsions:
REMARK  status: ('A' for Active; 'I' for Inactive)
REMARK    1  A    between atoms: C2_3  and  S1_4 
REMARK    2  A    between atoms: S1_4  and  C3_5 
REMARK    3  A    between atoms: C3_5  and  C4_6 
REMARK    4  A    between atoms: C4_6  and  S2_7 
REMARK    5  A    between atoms: S2_7  and  S3_8 
REMARK    6  A    between atoms: S3_8  and  C5_9 
REMARK    7  A    between atoms: C5_9  and  C6_10 
REMARK    8  A    between atoms: C6_10  and  C7_11 
REMARK    9  A    between atoms: C7_11  and  N2_12 
REMARK       I    between atoms: N2_12  and  C8_14 
REMARK   10  A    between atoms: C8_14  and  C9_16 
REMARK   11  A    between atoms: C12_19  and  O2_20 
REMARK   12  A    between atoms: O2_20  and  C13_21 
REMARK   13  A    between atoms: C13_21  and  C14_22 
ROOT
HETATM    1  C7  UNL     1      58.815  82.275  63.916  1.00  0.00     0.123 C 
ENDROOT
BRANCH   1   2
HETATM    2  C6  UNL     1      58.400  80.904  63.559  1.00  0.00     0.031 C 
BRANCH   2   3
HETATM    3  C5  UNL     1      57.068  80.489  64.089  1.00  0.00     0.088 C 
BRANCH   3   4
HETATM    4  S3  UNL     1      57.146  78.975  65.030  1.00  0.00    -0.098 SA
BRANCH   4   5
HETATM    5  S2  UNL     1      58.941  78.797  66.112  1.00  0.00    -0.097 SA
BRANCH   5   6
HETATM    6  C4  UNL     1      60.133  77.903  65.040  1.00  0.00     0.097 C 
BRANCH   6   7
HETATM    7  C3  UNL     1      61.319  78.822  64.855  1.00  0.00     0.093 C 
BRANCH   7   8
HETATM    8  S1  UNL     1      61.339  80.157  66.061  1.00  0.00    -0.093 SA
BRANCH   8   9
HETATM    9  C2  UNL     1      62.215  81.544  65.349  1.00  0.00     0.147 A 
HETATM   10  N1  UNL     1      62.049  82.844  65.693  1.00  0.00    -0.330 N 
HETATM   11  C1  UNL     1      61.123  83.280  66.715  1.00  0.00     0.158 C 
HETATM   12  C27 UNL     1      62.877  83.585  64.933  1.00  0.00     0.063 A 
HETATM   13  C22 UNL     1      63.579  82.758  64.094  1.00  0.00     0.061 A 
HETATM   14  C26 UNL     1      63.096  84.958  64.888  1.00  0.00     0.032 A 
HETATM   15  N3  UNL     1      63.152  81.514  64.373  1.00  0.00    -0.335 N 
HETATM   16  C23 UNL     1      64.478  83.305  63.236  1.00  0.00     0.032 A 
ATOM     17  H3  UNL     1      63.486  80.667  63.913  1.00  0.00     0.168 HD
HETATM   18  C24 UNL     1      64.732  84.663  63.151  1.00  0.00     0.002 A 
HETATM   19  C25 UNL     1      64.017  85.479  64.002  1.00  0.00     0.002 A 
ENDBRANCH   8   9
ENDBRANCH   7   8
ENDBRANCH   6   7
ENDBRANCH   5   6
ENDBRANCH   4   5
ENDBRANCH   3   4
ENDBRANCH   2   3
ENDBRANCH   1   2
BRANCH   1  20
HETATM   20  N2  UNL     1      59.699  82.861  62.917  1.00  0.00    -0.357 N 
HETATM   21  C8  UNL     1      60.050  84.232  62.926  1.00  0.00     0.251 C 
HETATM   22  O1  UNL     1      59.587  84.999  63.831  1.00  0.00    -0.268 OA
ATOM     23  H2  UNL     1      60.079  82.262  62.184  1.00  0.00     0.162 HD
BRANCH  21  24
HETATM   24  C9  UNL     1      60.940  84.766  61.902  1.00  0.00     0.032 A 
HETATM   25  C10 UNL     1      61.206  86.098  61.710  1.00  0.00     0.020 A 
HETATM   26  C11 UNL     1      62.071  86.513  60.719  1.00  0.00     0.038 A 
HETATM   27  C12 UNL     1      62.708  85.621  59.872  1.00  0.00     0.069 A 
HETATM   28  C20 UNL     1      62.448  84.288  60.055  1.00  0.00     0.038 A 
HETATM   29  C21 UNL     1      61.588  83.871  61.043  1.00  0.00     0.020 A 
BRANCH  27  30
HETATM   30  O2  UNL     1      63.574  86.113  58.884  1.00  0.00    -0.347 OA
BRANCH  30  31
HETATM   31  C13 UNL     1      63.222  86.947  57.838  1.00  0.00     0.214 C 
BRANCH  31  32
HETATM   32  C14 UNL     1      62.386  86.336  56.784  1.00  0.00    -0.034 A 
HETATM   33  C15 UNL     1      61.042  86.676  56.761  1.00  0.00     0.009 A 
HETATM   34  C16 UNL     1      60.228  86.141  55.789  1.00  0.00     0.001 A 
HETATM   35  C17 UNL     1      60.706  85.285  54.849  1.00  0.00     0.000 A 
HETATM   36  C18 UNL     1      62.024  84.943  54.859  1.00  0.00     0.001 A 
HETATM   37  C19 UNL     1      62.859  85.467  55.823  1.00  0.00     0.009 A 
ENDBRANCH  31  32
ENDBRANCH  30  31
ENDBRANCH  27  30
ENDBRANCH  21  24
ENDBRANCH   1  20
TORSDOF 13
ENDMDL
MODEL 5
REMARK VINA RESULT: -9.159550220      2.631      4.572
REMARK  13 active torsions:
REMARK  status: ('A' for Active; 'I' for Inactive)
REMARK    1  A    between atoms: C2_3  and  S1_4 
REMARK    2  A    between atoms: S1_4  and  C3_5 
REMARK    3  A    between atoms: C3_5  and  C4_6 
REMARK    4  A    between atoms: C4_6  and  S2_7 
REMARK    5  A    between atoms: S2_7  and  S3_8 
REMARK    6  A    between atoms: S3_8  and  C5_9 
REMARK    7  A    between atoms: C5_9  and  C6_10 
REMARK    8  A    between atoms: C6_10  and  C7_11 
REMARK    9  A    between atoms: C7_11  and  N2_12 
REMARK       I    between atoms: N2_12  and  C8_14 
REMARK   10  A    between atoms: C8_14  and  C9_16 
REMARK   11  A    between atoms: C12_19  and  O2_20 
REMARK   12  A    between atoms: O2_20  and  C13_21 
REMARK   13  A    between atoms: C13_21  and  C14_22 
ROOT
HETATM    1  C7  UNL     1      59.232  82.354  64.194  1.00  0.00     0.123 C 
ENDROOT
BRANCH   1   2
HETATM    2  C6  UNL     1      58.275  81.388  63.619  1.00  0.00     0.031 C 
BRANCH   2   3
HETATM    3  C5  UNL     1      57.635  80.469  64.604  1.00  0.00     0.088 C 
BRANCH   3   4
HETATM    4  S3  UNL     1      58.138  78.771  64.384  1.00  0.00    -0.098 SA
BRANCH   4   5
HETATM    5  S2  UNL     1      59.365  78.512  62.696  1.00  0.00    -0.097 SA
BRANCH   5   6
HETATM    6  C4  UNL     1      61.097  78.788  63.239  1.00  0.00     0.097 C 
BRANCH   6   7
HETATM    7  C3  UNL     1      61.130  78.519  64.726  1.00  0.00     0.093 C 
BRANCH   7   8
HETATM    8  S1  UNL     1      62.698  78.995  65.469  1.00  0.00    -0.093 SA
BRANCH   8   9
HETATM    9  C2  UNL     1      63.059  80.679  64.988  1.00  0.00     0.147 A 
HETATM   10  N1  UNL     1      63.923  81.054  64.014  1.00  0.00    -0.330 N 
HETATM   11  C1  UNL     1      64.674  80.110  63.216  1.00  0.00     0.158 C 
HETATM   12  C27 UNL     1      63.926  82.399  63.955  1.00  0.00     0.063 A 
HETATM   13  C22 UNL     1      63.060  82.893  64.897  1.00  0.00     0.061 A 
HETATM   14  C26 UNL     1      64.630  83.279  63.139  1.00  0.00     0.032 A 
HETATM   15  N3  UNL     1      62.544  81.815  65.514  1.00  0.00    -0.335 N 
HETATM   16  C23 UNL     1      62.910  84.239  65.008  1.00  0.00     0.032 A 
ATOM     17  H3  UNL     1      61.862  81.849  66.271  1.00  0.00     0.168 HD
HETATM   18  C24 UNL     1      63.586  85.155  64.221  1.00  0.00     0.002 A 
HETATM   19  C25 UNL     1      64.453  84.641  63.280  1.00  0.00     0.002 A 
ENDBRANCH   8   9
ENDBRANCH   7   8
ENDBRANCH   6   7
ENDBRANCH   5   6
ENDBRANCH   4   5
ENDBRANCH   3   4
ENDBRANCH   2   3
ENDBRANCH   1   2
BRANCH   1  20
HETATM   20  N2  UNL     1      60.116  82.924  63.185  1.00  0.00    -0.357 N 
HETATM   21  C8  UNL     1      59.989  84.258  62.734  1.00  0.00     0.251 C 
HETATM   22  O1  UNL     1      59.077  85.006  63.212  1.00  0.00    -0.268 OA
ATOM     23  H2  UNL     1      60.852  82.339  62.789  1.00  0.00     0.162 HD
BRANCH  21  24
HETATM   24  C9  UNL     1      60.902  84.778  61.722  1.00  0.00     0.032 A 
HETATM   25  C10 UNL     1      61.145  86.108  61.493  1.00  0.00     0.020 A 
HETATM   26  C11 UNL     1      62.034  86.510  60.518  1.00  0.00     0.038 A 
HETATM   27  C12 UNL     1      62.719  85.604  59.724  1.00  0.00     0.069 A 
HETATM   28  C20 UNL     1      62.482  84.273  59.944  1.00  0.00     0.038 A 
HETATM   29  C21 UNL     1      61.598  83.869  60.917  1.00  0.00     0.020 A 
BRANCH  27  30
HETATM   30  O2  UNL     1      63.607  86.082  58.748  1.00  0.00    -0.347 OA
BRANCH  30  31
HETATM   31  C13 UNL     1      63.277  86.891  57.676  1.00  0.00     0.214 C 
BRANCH  31  32
HETATM   32  C14 UNL     1      62.399  86.279  56.657  1.00  0.00    -0.034 A 
HETATM   33  C15 UNL     1      61.061  86.644  56.669  1.00  0.00     0.009 A 
HETATM   34  C16 UNL     1      60.208  86.109  55.730  1.00  0.00     0.001 A 
HETATM   35  C17 UNL     1      60.642  85.230  54.790  1.00  0.00     0.000 A 
HETATM   36  C18 UNL     1      61.954  84.863  54.768  1.00  0.00     0.001 A 
HETATM   37  C19 UNL     1      62.827  85.386  55.698  1.00  0.00     0.009 A 
ENDBRANCH  31  32
ENDBRANCH  30  31
ENDBRANCH  27  30
ENDBRANCH  21  24
ENDBRANCH   1  20
TORSDOF 13
ENDMDL
