MODEL 1
REMARK VINA RESULT: -10.092164579      0.000      0.000
REMARK  14 active torsions:
REMARK  status: ('A' for Active; 'I' for Inactive)
REMARK    1  A    between atoms: C2_2  and  C3_3 
REMARK    2  A    between atoms: C3_3  and  N1_4 
REMARK    3  A    between atoms: N1_4  and  C4_5 
REMARK       I    between atoms: N1_4  and  C10_13 
REMARK    4  A    between atoms: C4_5  and  C5_6 
REMARK    5  A    between atoms: C10_13  and  C11_15 
REMARK    6  A    between atoms: C11_15  and  C12_16 
REMARK    7  A    between atoms: C12_16  and  C13_17 
REMARK    8  A    between atoms: C13_17  and  C14_18 
REMARK    9  A    between atoms: C14_18  and  C15_19 
REMARK   10  A    between atoms: C15_19  and  N3_20 
REMARK   11  A    between atoms: C16_21  and  S1_22 
REMARK   12  A    between atoms: S1_22  and  C17_23 
REMARK   13  A    between atoms: C17_23  and  C18_24 
REMARK   14  A    between atoms: N5_38  and  O2_40 
ROOT
HETATM    1  C13 UNL     1      59.518  85.336  61.396  1.00  0.00     0.002 C 
ENDROOT
BRANCH   1   2
HETATM    2  C12 UNL     1      60.878  85.775  61.000  1.00  0.00     0.009 C 
BRANCH   2   3
HETATM    3  C11 UNL     1      61.017  85.943  59.491  1.00  0.00     0.103 C 
BRANCH   3   4
HETATM    4  C10 UNL     1      62.380  85.582  59.042  1.00  0.00     0.220 C 
HETATM    5  N1  UNL     1      62.969  86.071  57.862  1.00  0.00    -0.343 N 
HETATM    6  O1  UNL     1      63.054  84.782  59.764  1.00  0.00    -0.273 OA
BRANCH   5   7
HETATM    7  C3  UNL     1      64.313  85.640  57.497  1.00  0.00     0.180 C 
BRANCH   7   8
HETATM    8  C2  UNL     1      64.360  84.481  56.595  1.00  0.00     0.024 C 
HETATM    9  C1  UNL     1      65.057  84.529  55.286  1.00  0.00     0.067 C 
HETATM   10  N5  UNL     1      63.786  83.363  56.918  1.00  0.00    -0.276 N 
ATOM     11  H5  UNL     1      63.299  83.297  57.812  1.00  0.00     0.193 HD
BRANCH  10  12
HETATM   12  O2  UNL     1      63.815  82.279  56.104  1.00  0.00    -0.290 OA
ATOM     13  H2  UNL     1      63.456  81.441  56.370  1.00  0.00     0.244 HD
ENDBRANCH  10  12
ENDBRANCH   7   8
ENDBRANCH   5   7
BRANCH   5  14
HETATM   14  C4  UNL     1      62.321  86.969  56.949  1.00  0.00     0.166 C 
BRANCH  14  15
HETATM   15  C5  UNL     1      61.236  86.395  56.143  1.00  0.00    -0.025 A 
HETATM   16  C6  UNL     1      61.505  85.371  55.217  1.00  0.00     0.011 A 
HETATM   17  C7  UNL     1      60.528  84.808  54.452  1.00  0.00     0.018 A 
HETATM   18  C8  UNL     1      59.205  85.239  54.564  1.00  0.00     0.087 A 
HETATM   19  N2  UNL     1      58.945  86.220  55.451  1.00  0.00    -0.375 N 
HETATM   20  C9  UNL     1      59.911  86.772  56.203  1.00  0.00     0.096 A 
ATOM     21  H2  UNL     1      57.987  86.554  55.554  1.00  0.00     0.164 HD
ENDBRANCH  14  15
ENDBRANCH   5  14
ENDBRANCH   3   4
ENDBRANCH   2   3
ENDBRANCH   1   2
BRANCH   1  22
HETATM   22  C14 UNL     1      59.392  84.293  62.419  1.00  0.00     0.020 C 
BRANCH  22  23
HETATM   23  C15 UNL     1      60.052  84.411  63.728  1.00  0.00     0.131 C 
BRANCH  23  24
HETATM   24  N3  UNL     1      61.197  83.594  63.975  1.00  0.00    -0.326 N 
HETATM   25  C16 UNL     1      61.115  82.281  64.341  1.00  0.00     0.147 A 
HETATM   26  N4  UNL     1      62.355  81.831  64.450  1.00  0.00    -0.335 N 
HETATM   27  C24 UNL     1      63.243  82.787  64.172  1.00  0.00     0.061 A 
ATOM     28  H4  UNL     1      62.600  80.876  64.714  1.00  0.00     0.168 HD
HETATM   29  C25 UNL     1      64.614  82.874  64.118  1.00  0.00     0.032 A 
HETATM   30  C29 UNL     1      62.479  83.909  63.869  1.00  0.00     0.063 A 
HETATM   31  C26 UNL     1      65.292  84.027  63.773  1.00  0.00     0.002 A 
HETATM   32  C27 UNL     1      64.542  85.146  63.468  1.00  0.00     0.002 A 
HETATM   33  C28 UNL     1      63.178  85.071  63.520  1.00  0.00     0.032 A 
BRANCH  25  34
HETATM   34  S1  UNL     1      59.574  81.370  64.614  1.00  0.00    -0.089 SA
BRANCH  34  35
HETATM   35  C17 UNL     1      59.326  80.190  63.231  1.00  0.00     0.121 C 
BRANCH  35  36
HETATM   36  C18 UNL     1      57.930  79.685  63.256  1.00  0.00    -0.049 A 
HETATM   37  C19 UNL     1      57.037  80.188  64.178  1.00  0.00     0.008 A 
HETATM   38  C20 UNL     1      55.719  79.727  64.218  1.00  0.00     0.001 A 
HETATM   39  C21 UNL     1      55.267  78.759  63.344  1.00  0.00     0.000 A 
HETATM   40  C22 UNL     1      56.171  78.263  62.425  1.00  0.00     0.001 A 
HETATM   41  C23 UNL     1      57.472  78.719  62.385  1.00  0.00     0.008 A 
ENDBRANCH  35  36
ENDBRANCH  34  35
ENDBRANCH  25  34
ENDBRANCH  23  24
ENDBRANCH  22  23
ENDBRANCH   1  22
TORSDOF 14
ENDMDL
MODEL 2
REMARK VINA RESULT: -10.023904539      0.491      1.116
REMARK  14 active torsions:
REMARK  status: ('A' for Active; 'I' for Inactive)
REMARK    1  A    between atoms: C2_2  and  C3_3 
REMARK    2  A    between atoms: C3_3  and  N1_4 
REMARK    3  A    between atoms: N1_4  and  C4_5 
REMARK       I    between atoms: N1_4  and  C10_13 
REMARK    4  A    between atoms: C4_5  and  C5_6 
REMARK    5  A    between atoms: C10_13  and  C11_15 
REMARK    6  A    between atoms: C11_15  and  C12_16 
REMARK    7  A    between atoms: C12_16  and  C13_17 
REMARK    8  A    between atoms: C13_17  and  C14_18 
REMARK    9  A    between atoms: C14_18  and  C15_19 
REMARK   10  A    between atoms: C15_19  and  N3_20 
REMARK   11  A    between atoms: C16_21  and  S1_22 
REMARK   12  A    between atoms: S1_22  and  C17_23 
REMARK   13  A    between atoms: C17_23  and  C18_24 
REMARK   14  A    between atoms: N5_38  and  O2_40 
ROOT
HETATM    1  C13 UNL     1      59.578  85.263  61.460  1.00  0.00     0.002 C 
ENDROOT
BRANCH   1   2
HETATM    2  C12 UNL     1      60.729  84.819  60.637  1.00  0.00     0.009 C 
BRANCH   2   3
HETATM    3  C11 UNL     1      61.218  85.907  59.686  1.00  0.00     0.103 C 
BRANCH   3   4
HETATM    4  C10 UNL     1      62.555  85.577  59.146  1.00  0.00     0.220 C 
HETATM    5  N1  UNL     1      63.059  86.093  57.938  1.00  0.00    -0.343 N 
HETATM    6  O1  UNL     1      63.287  84.779  59.811  1.00  0.00    -0.273 OA
BRANCH   5   7
HETATM    7  C3  UNL     1      64.384  85.692  57.483  1.00  0.00     0.180 C 
BRANCH   7   8
HETATM    8  C2  UNL     1      64.396  84.523  56.594  1.00  0.00     0.024 C 
HETATM    9  C1  UNL     1      65.057  84.549  55.265  1.00  0.00     0.067 C 
HETATM   10  N5  UNL     1      63.823  83.413  56.946  1.00  0.00    -0.276 N 
ATOM     11  H5  UNL     1      63.361  83.361  57.854  1.00  0.00     0.193 HD
BRANCH  10  12
HETATM   12  O2  UNL     1      63.820  82.320  56.144  1.00  0.00    -0.290 OA
ATOM     13  H2  UNL     1      63.617  81.453  56.476  1.00  0.00     0.244 HD
ENDBRANCH  10  12
ENDBRANCH   7   8
ENDBRANCH   5   7
BRANCH   5  14
HETATM   14  C4  UNL     1      62.339  86.993  57.083  1.00  0.00     0.166 C 
BRANCH  14  15
HETATM   15  C5  UNL     1      61.297  86.387  56.243  1.00  0.00    -0.025 A 
HETATM   16  C6  UNL     1      59.964  86.823  56.340  1.00  0.00     0.011 A 
HETATM   17  C7  UNL     1      58.968  86.291  55.578  1.00  0.00     0.018 A 
HETATM   18  C8  UNL     1      59.244  85.275  54.661  1.00  0.00     0.087 A 
HETATM   19  N2  UNL     1      60.522  84.856  54.567  1.00  0.00    -0.375 N 
HETATM   20  C9  UNL     1      61.500  85.383  55.320  1.00  0.00     0.096 A 
ATOM     21  H2  UNL     1      60.752  84.115  53.904  1.00  0.00     0.164 HD
ENDBRANCH  14  15
ENDBRANCH   5  14
ENDBRANCH   3   4
ENDBRANCH   2   3
ENDBRANCH   1   2
BRANCH   1  22
HETATM   22  C14 UNL     1      59.194  84.449  62.617  1.00  0.00     0.020 C 
BRANCH  22  23
HETATM   23  C15 UNL     1      59.943  84.500  63.881  1.00  0.00     0.131 C 
BRANCH  23  24
HETATM   24  N3  UNL     1      61.100  83.672  64.006  1.00  0.00    -0.326 N 
HETATM   25  C16 UNL     1      61.039  82.340  64.298  1.00  0.00     0.147 A 
HETATM   26  N4  UNL     1      62.283  81.887  64.302  1.00  0.00    -0.335 N 
HETATM   27  C24 UNL     1      63.153  82.859  64.025  1.00  0.00     0.061 A 
ATOM     28  H4  UNL     1      62.542  80.918  64.492  1.00  0.00     0.168 HD
HETATM   29  C25 UNL     1      64.518  82.951  63.889  1.00  0.00     0.032 A 
HETATM   30  C29 UNL     1      62.374  83.995  63.838  1.00  0.00     0.063 A 
HETATM   31  C26 UNL     1      65.175  84.124  63.570  1.00  0.00     0.002 A 
HETATM   32  C27 UNL     1      64.409  85.258  63.381  1.00  0.00     0.002 A 
HETATM   33  C28 UNL     1      63.051  85.177  63.515  1.00  0.00     0.032 A 
BRANCH  25  34
HETATM   34  S1  UNL     1      59.517  81.411  64.613  1.00  0.00    -0.089 SA
BRANCH  34  35
HETATM   35  C17 UNL     1      59.257  80.212  63.251  1.00  0.00     0.121 C 
BRANCH  35  36
HETATM   36  C18 UNL     1      57.862  79.704  63.297  1.00  0.00    -0.049 A 
HETATM   37  C19 UNL     1      57.454  78.742  62.398  1.00  0.00     0.008 A 
HETATM   38  C20 UNL     1      56.147  78.250  62.423  1.00  0.00     0.001 A 
HETATM   39  C21 UNL     1      55.224  78.707  63.341  1.00  0.00     0.000 A 
HETATM   40  C22 UNL     1      55.643  79.672  64.237  1.00  0.00     0.001 A 
HETATM   41  C23 UNL     1      56.935  80.156  64.212  1.00  0.00     0.008 A 
ENDBRANCH  35  36
ENDBRANCH  34  35
ENDBRANCH  25  34
ENDBRANCH  23  24
ENDBRANCH  22  23
ENDBRANCH   1  22
TORSDOF 14
ENDMDL
MODEL 3
REMARK VINA RESULT: -9.895094990      3.550      9.087
REMARK  14 active torsions:
REMARK  status: ('A' for Active; 'I' for Inactive)
REMARK    1  A    between atoms: C2_2  and  C3_3 
REMARK    2  A    between atoms: C3_3  and  N1_4 
REMARK    3  A    between atoms: N1_4  and  C4_5 
REMARK       I    between atoms: N1_4  and  C10_13 
REMARK    4  A    between atoms: C4_5  and  C5_6 
REMARK    5  A    between atoms: C10_13  and  C11_15 
REMARK    6  A    between atoms: C11_15  and  C12_16 
REMARK    7  A    between atoms: C12_16  and  C13_17 
REMARK    8  A    between atoms: C13_17  and  C14_18 
REMARK    9  A    between atoms: C14_18  and  C15_19 
REMARK   10  A    between atoms: C15_19  and  N3_20 
REMARK   11  A    between atoms: C16_21  and  S1_22 
REMARK   12  A    between atoms: S1_22  and  C17_23 
REMARK   13  A    between atoms: C17_23  and  C18_24 
REMARK   14  A    between atoms: N5_38  and  O2_40 
ROOT
HETATM    1  C13 UNL     1      64.727  85.102  64.269  1.00  0.00     0.002 C 
ENDROOT
BRANCH   1   2
HETATM    2  C12 UNL     1      65.418  83.855  64.680  1.00  0.00     0.009 C 
BRANCH   2   3
HETATM    3  C11 UNL     1      65.157  82.702  63.716  1.00  0.00     0.103 C 
BRANCH   3   4
HETATM    4  C10 UNL     1      64.051  81.848  64.201  1.00  0.00     0.220 C 
HETATM    5  N1  UNL     1      63.826  80.533  63.755  1.00  0.00    -0.343 N 
HETATM    6  O1  UNL     1      63.258  82.332  65.068  1.00  0.00    -0.273 OA
BRANCH   5   7
HETATM    7  C3  UNL     1      62.697  79.778  64.282  1.00  0.00     0.180 C 
BRANCH   7   8
HETATM    8  C2  UNL     1      61.578  79.616  63.343  1.00  0.00     0.024 C 
HETATM    9  C1  UNL     1      60.770  80.768  62.873  1.00  0.00     0.067 C 
HETATM   10  N5  UNL     1      61.256  78.444  62.887  1.00  0.00    -0.276 N 
ATOM     11  H5  UNL     1      61.793  77.631  63.190  1.00  0.00     0.193 HD
BRANCH  10  12
HETATM   12  O2  UNL     1      60.229  78.267  62.021  1.00  0.00    -0.290 OA
ATOM     13  H2  UNL     1      60.237  77.581  61.365  1.00  0.00     0.244 HD
ENDBRANCH  10  12
ENDBRANCH   7   8
ENDBRANCH   5   7
BRANCH   5  14
HETATM   14  C4  UNL     1      64.634  79.865  62.774  1.00  0.00     0.166 C 
BRANCH  14  15
HETATM   15  C5  UNL     1      65.301  78.634  63.220  1.00  0.00    -0.025 A 
HETATM   16  C6  UNL     1      64.807  77.378  62.829  1.00  0.00     0.011 A 
HETATM   17  C7  UNL     1      65.397  76.213  63.216  1.00  0.00     0.018 A 
HETATM   18  C8  UNL     1      66.531  76.230  64.030  1.00  0.00     0.087 A 
HETATM   19  N2  UNL     1      67.006  77.434  64.406  1.00  0.00    -0.375 N 
HETATM   20  C9  UNL     1      66.421  78.580  64.022  1.00  0.00     0.096 A 
ATOM     21  H2  UNL     1      67.834  77.477  65.000  1.00  0.00     0.164 HD
ENDBRANCH  14  15
ENDBRANCH   5  14
ENDBRANCH   3   4
ENDBRANCH   2   3
ENDBRANCH   1   2
BRANCH   1  22
HETATM   22  C14 UNL     1      64.551  85.360  62.836  1.00  0.00     0.020 C 
BRANCH  22  23
HETATM   23  C15 UNL     1      63.699  86.454  62.347  1.00  0.00     0.131 C 
BRANCH  23  24
HETATM   24  N3  UNL     1      62.443  86.111  61.761  1.00  0.00    -0.326 N 
HETATM   25  C16 UNL     1      62.133  86.358  60.455  1.00  0.00     0.147 A 
HETATM   26  N4  UNL     1      60.914  85.884  60.249  1.00  0.00    -0.335 N 
HETATM   27  C24 UNL     1      60.414  85.336  61.358  1.00  0.00     0.061 A 
ATOM     28  H4  UNL     1      60.421  85.930  59.357  1.00  0.00     0.168 HD
HETATM   29  C25 UNL     1      59.242  84.706  61.704  1.00  0.00     0.032 A 
HETATM   30  C29 UNL     1      61.410  85.492  62.315  1.00  0.00     0.063 A 
HETATM   31  C26 UNL     1      58.990  84.206  62.968  1.00  0.00     0.002 A 
HETATM   32  C27 UNL     1      59.975  84.355  63.925  1.00  0.00     0.002 A 
HETATM   33  C28 UNL     1      61.143  84.981  63.591  1.00  0.00     0.032 A 
BRANCH  25  34
HETATM   34  S1  UNL     1      63.219  87.185  59.265  1.00  0.00    -0.089 SA
BRANCH  34  35
HETATM   35  C17 UNL     1      62.495  87.028  57.588  1.00  0.00     0.121 C 
BRANCH  35  36
HETATM   36  C18 UNL     1      63.191  85.944  56.848  1.00  0.00    -0.049 A 
HETATM   37  C19 UNL     1      62.570  85.341  55.775  1.00  0.00     0.008 A 
HETATM   38  C20 UNL     1      63.206  84.319  55.065  1.00  0.00     0.001 A 
HETATM   39  C21 UNL     1      64.468  83.880  55.410  1.00  0.00     0.000 A 
HETATM   40  C22 UNL     1      65.080  84.491  56.486  1.00  0.00     0.001 A 
HETATM   41  C23 UNL     1      64.452  85.501  57.187  1.00  0.00     0.008 A 
ENDBRANCH  35  36
ENDBRANCH  34  35
ENDBRANCH  25  34
ENDBRANCH  23  24
ENDBRANCH  22  23
ENDBRANCH   1  22
TORSDOF 14
ENDMDL
MODEL 4
REMARK VINA RESULT: -9.715506235      3.179      6.093
REMARK  14 active torsions:
REMARK  status: ('A' for Active; 'I' for Inactive)
REMARK    1  A    between atoms: C2_2  and  C3_3 
REMARK    2  A    between atoms: C3_3  and  N1_4 
REMARK    3  A    between atoms: N1_4  and  C4_5 
REMARK       I    between atoms: N1_4  and  C10_13 
REMARK    4  A    between atoms: C4_5  and  C5_6 
REMARK    5  A    between atoms: C10_13  and  C11_15 
REMARK    6  A    between atoms: C11_15  and  C12_16 
REMARK    7  A    between atoms: C12_16  and  C13_17 
REMARK    8  A    between atoms: C13_17  and  C14_18 
REMARK    9  A    between atoms: C14_18  and  C15_19 
REMARK   10  A    between atoms: C15_19  and  N3_20 
REMARK   11  A    between atoms: C16_21  and  S1_22 
REMARK   12  A    between atoms: S1_22  and  C17_23 
REMARK   13  A    between atoms: C17_23  and  C18_24 
REMARK   14  A    between atoms: N5_38  and  O2_40 
ROOT
HETATM    1  C13 UNL     1      62.885  86.546  58.768  1.00  0.00     0.002 C 
ENDROOT
BRANCH   1   2
HETATM    2  C12 UNL     1      61.526  86.455  58.181  1.00  0.00     0.009 C 
BRANCH   2   3
HETATM    3  C11 UNL     1      61.487  86.931  56.732  1.00  0.00     0.103 C 
BRANCH   3   4
HETATM    4  C10 UNL     1      60.288  86.413  56.037  1.00  0.00     0.220 C 
HETATM    5  N1  UNL     1      60.341  85.566  54.916  1.00  0.00    -0.343 N 
HETATM    6  O1  UNL     1      59.147  86.757  56.478  1.00  0.00    -0.273 OA
BRANCH   5   7
HETATM    7  C3  UNL     1      59.101  85.123  54.291  1.00  0.00     0.180 C 
BRANCH   7   8
HETATM    8  C2  UNL     1      58.488  86.105  53.386  1.00  0.00     0.024 C 
HETATM    9  C1  UNL     1      58.965  86.299  51.994  1.00  0.00     0.067 C 
HETATM   10  N5  UNL     1      57.496  86.844  53.779  1.00  0.00    -0.276 N 
ATOM     11  H5  UNL     1      57.144  86.734  54.730  1.00  0.00     0.193 HD
BRANCH  10  12
HETATM   12  O2  UNL     1      56.913  87.757  52.964  1.00  0.00    -0.290 OA
ATOM     13  H2  UNL     1      56.729  88.643  53.252  1.00  0.00     0.244 HD
ENDBRANCH  10  12
ENDBRANCH   7   8
ENDBRANCH   5   7
BRANCH   5  14
HETATM   14  C4  UNL     1      61.557  85.108  54.307  1.00  0.00     0.166 C 
BRANCH  14  15
HETATM   15  C5  UNL     1      62.554  84.530  55.218  1.00  0.00    -0.025 A 
HETATM   16  C6  UNL     1      63.878  85.002  55.213  1.00  0.00     0.011 A 
HETATM   17  C7  UNL     1      64.833  84.498  56.044  1.00  0.00     0.018 A 
HETATM   18  C8  UNL     1      64.522  83.475  56.941  1.00  0.00     0.087 A 
HETATM   19  N2  UNL     1      63.252  83.021  56.948  1.00  0.00    -0.375 N 
HETATM   20  C9  UNL     1      62.315  83.522  56.128  1.00  0.00     0.096 A 
ATOM     21  H2  UNL     1      62.997  82.275  57.594  1.00  0.00     0.164 HD
ENDBRANCH  14  15
ENDBRANCH   5  14
ENDBRANCH   3   4
ENDBRANCH   2   3
ENDBRANCH   1   2
BRANCH   1  22
HETATM   22  C14 UNL     1      63.276  85.553  59.774  1.00  0.00     0.020 C 
BRANCH  22  23
HETATM   23  C15 UNL     1      63.479  85.918  61.184  1.00  0.00     0.131 C 
BRANCH  23  24
HETATM   24  N3  UNL     1      62.732  85.205  62.171  1.00  0.00    -0.326 N 
HETATM   25  C16 UNL     1      63.302  84.635  63.273  1.00  0.00     0.147 A 
HETATM   26  N4  UNL     1      62.323  84.094  63.980  1.00  0.00    -0.335 N 
HETATM   27  C24 UNL     1      61.140  84.284  63.393  1.00  0.00     0.061 A 
ATOM     28  H4  UNL     1      62.455  83.595  64.861  1.00  0.00     0.168 HD
HETATM   29  C25 UNL     1      59.834  83.962  63.679  1.00  0.00     0.032 A 
HETATM   30  C29 UNL     1      61.425  84.999  62.235  1.00  0.00     0.063 A 
HETATM   31  C26 UNL     1      58.768  84.312  62.872  1.00  0.00     0.002 A 
HETATM   32  C27 UNL     1      59.042  85.024  61.721  1.00  0.00     0.002 A 
HETATM   33  C28 UNL     1      60.337  85.349  61.427  1.00  0.00     0.032 A 
BRANCH  25  34
HETATM   34  S1  UNL     1      65.073  84.644  63.653  1.00  0.00    -0.089 SA
BRANCH  34  35
HETATM   35  C17 UNL     1      65.633  82.919  63.924  1.00  0.00     0.121 C 
BRANCH  35  36
HETATM   36  C18 UNL     1      65.381  82.534  65.336  1.00  0.00    -0.049 A 
HETATM   37  C19 UNL     1      64.251  81.812  65.657  1.00  0.00     0.008 A 
HETATM   38  C20 UNL     1      63.995  81.438  66.978  1.00  0.00     0.001 A 
HETATM   39  C21 UNL     1      64.857  81.776  68.002  1.00  0.00     0.000 A 
HETATM   40  C22 UNL     1      65.986  82.498  67.669  1.00  0.00     0.001 A 
HETATM   41  C23 UNL     1      66.239  82.866  66.364  1.00  0.00     0.008 A 
ENDBRANCH  35  36
ENDBRANCH  34  35
ENDBRANCH  25  34
ENDBRANCH  23  24
ENDBRANCH  22  23
ENDBRANCH   1  22
TORSDOF 14
ENDMDL
MODEL 5
REMARK VINA RESULT: -9.698711934      1.411      5.047
REMARK  14 active torsions:
REMARK  status: ('A' for Active; 'I' for Inactive)
REMARK    1  A    between atoms: C2_2  and  C3_3 
REMARK    2  A    between atoms: C3_3  and  N1_4 
REMARK    3  A    between atoms: N1_4  and  C4_5 
REMARK       I    between atoms: N1_4  and  C10_13 
REMARK    4  A    between atoms: C4_5  and  C5_6 
REMARK    5  A    between atoms: C10_13  and  C11_15 
REMARK    6  A    between atoms: C11_15  and  C12_16 
REMARK    7  A    between atoms: C12_16  and  C13_17 
REMARK    8  A    between atoms: C13_17  and  C14_18 
REMARK    9  A    between atoms: C14_18  and  C15_19 
REMARK   10  A    between atoms: C15_19  and  N3_20 
REMARK   11  A    between atoms: C16_21  and  S1_22 
REMARK   12  A    between atoms: S1_22  and  C17_23 
REMARK   13  A    between atoms: C17_23  and  C18_24 
REMARK   14  A    between atoms: N5_38  and  O2_40 
ROOT
HETATM    1  C13 UNL     1      59.752  85.096  61.427  1.00  0.00     0.002 C 
ENDROOT
BRANCH   1   2
HETATM    2  C12 UNL     1      60.993  85.807  61.035  1.00  0.00     0.009 C 
BRANCH   2   3
HETATM    3  C11 UNL     1      61.100  85.998  59.525  1.00  0.00     0.103 C 
BRANCH   3   4
HETATM    4  C10 UNL     1      62.444  85.615  59.038  1.00  0.00     0.220 C 
HETATM    5  N1  UNL     1      63.017  86.114  57.854  1.00  0.00    -0.343 N 
HETATM    6  O1  UNL     1      63.116  84.788  59.730  1.00  0.00    -0.273 OA
BRANCH   5   7
HETATM    7  C3  UNL     1      64.342  85.662  57.452  1.00  0.00     0.180 C 
BRANCH   7   8
HETATM    8  C2  UNL     1      64.345  84.485  56.571  1.00  0.00     0.024 C 
HETATM    9  C1  UNL     1      65.006  84.496  55.242  1.00  0.00     0.067 C 
HETATM   10  N5  UNL     1      63.763  83.383  56.932  1.00  0.00    -0.276 N 
ATOM     11  H5  UNL     1      63.301  83.342  57.841  1.00  0.00     0.193 HD
BRANCH  10  12
HETATM   12  O2  UNL     1      63.751  82.283  56.139  1.00  0.00    -0.290 OA
ATOM     13  H2  UNL     1      64.547  81.812  55.921  1.00  0.00     0.244 HD
ENDBRANCH  10  12
ENDBRANCH   7   8
ENDBRANCH   5   7
BRANCH   5  14
HETATM   14  C4  UNL     1      62.368  87.043  56.974  1.00  0.00     0.166 C 
BRANCH  14  15
HETATM   15  C5  UNL     1      61.224  86.520  56.216  1.00  0.00    -0.025 A 
HETATM   16  C6  UNL     1      61.403  85.480  55.288  1.00  0.00     0.011 A 
HETATM   17  C7  UNL     1      60.370  84.963  54.567  1.00  0.00     0.018 A 
HETATM   18  C8  UNL     1      59.075  85.460  54.729  1.00  0.00     0.087 A 
HETATM   19  N2  UNL     1      58.901  86.457  55.619  1.00  0.00    -0.375 N 
HETATM   20  C9  UNL     1      59.923  86.963  56.327  1.00  0.00     0.096 A 
ATOM     21  H2  UNL     1      57.966  86.839  55.758  1.00  0.00     0.164 HD
ENDBRANCH  14  15
ENDBRANCH   5  14
ENDBRANCH   3   4
ENDBRANCH   2   3
ENDBRANCH   1   2
BRANCH   1  22
HETATM   22  C14 UNL     1      59.427  84.997  62.853  1.00  0.00     0.020 C 
BRANCH  22  23
HETATM   23  C15 UNL     1      60.245  84.200  63.779  1.00  0.00     0.131 C 
BRANCH  23  24
HETATM   24  N3  UNL     1      60.386  82.804  63.514  1.00  0.00    -0.326 N 
HETATM   25  C16 UNL     1      61.560  82.233  63.113  1.00  0.00     0.147 A 
HETATM   26  N4  UNL     1      61.338  80.934  62.994  1.00  0.00    -0.335 N 
HETATM   27  C24 UNL     1      60.076  80.628  63.299  1.00  0.00     0.061 A 
ATOM     28  H4  UNL     1      62.042  80.253  62.706  1.00  0.00     0.168 HD
HETATM   29  C25 UNL     1      59.327  79.477  63.358  1.00  0.00     0.032 A 
HETATM   30  C29 UNL     1      59.483  81.842  63.630  1.00  0.00     0.063 A 
HETATM   31  C26 UNL     1      57.998  79.450  63.736  1.00  0.00     0.002 A 
HETATM   32  C27 UNL     1      57.401  80.651  64.068  1.00  0.00     0.002 A 
HETATM   33  C28 UNL     1      58.137  81.802  64.012  1.00  0.00     0.032 A 
BRANCH  25  34
HETATM   34  S1  UNL     1      63.105  83.129  62.813  1.00  0.00    -0.089 SA
BRANCH  34  35
HETATM   35  C17 UNL     1      64.516  81.988  63.078  1.00  0.00     0.121 C 
BRANCH  35  36
HETATM   36  C18 UNL     1      65.154  82.285  64.386  1.00  0.00    -0.049 A 
HETATM   37  C19 UNL     1      65.321  81.276  65.310  1.00  0.00     0.008 A 
HETATM   38  C20 UNL     1      65.919  81.533  66.546  1.00  0.00     0.001 A 
HETATM   39  C21 UNL     1      66.360  82.796  66.884  1.00  0.00     0.000 A 
HETATM   40  C22 UNL     1      66.187  83.799  65.951  1.00  0.00     0.001 A 
HETATM   41  C23 UNL     1      65.598  83.545  64.730  1.00  0.00     0.008 A 
ENDBRANCH  35  36
ENDBRANCH  34  35
ENDBRANCH  25  34
ENDBRANCH  23  24
ENDBRANCH  22  23
ENDBRANCH   1  22
TORSDOF 14
ENDMDL
