MODEL 1
REMARK VINA RESULT: -7.972097060      0.000      0.000
REMARK  2 active torsions:
REMARK  status: ('A' for Active; 'I' for Inactive)
REMARK       I    between atoms: C1_2  and  N2_4 
REMARK       I    between atoms: N2_4  and  C2_6 
REMARK       I    between atoms: C2_6  and  N3_8 
REMARK    1  A    between atoms: C7_13  and  C8_14 
REMARK       I    between atoms: C8_14  and  N4_16 
REMARK    2  A    between atoms: N4_16  and  N5_18 
ROOT
HETATM    1  N1  UNL     1       1.165  20.725  22.116  1.00  0.00    -0.040 NA
HETATM    2  C1  UNL     1       1.811  19.494  21.940  1.00  0.00     0.336 C 
HETATM    3  O1  UNL     1       1.855  18.966  20.810  1.00  0.00    -0.251 OA
HETATM    4  N2  UNL     1       2.417  18.849  23.048  1.00  0.00    -0.263 N 
ATOM      5  H2  UNL     1       2.887  17.954  22.913  1.00  0.00     0.174 HD
HETATM    6  C2  UNL     1       2.380  19.421  24.325  1.00  0.00     0.330 C 
HETATM    7  O2  UNL     1       1.733  20.527  24.465  1.00  0.00    -0.246 OA
HETATM    8  N3  UNL     1       2.979  18.887  25.449  1.00  0.00    -0.298 N 
HETATM    9  C3  UNL     1       2.650  19.559  26.759  1.00  0.00     0.134 C 
HETATM   10  C4  UNL     1       2.476  18.378  27.720  1.00  0.00     0.021 C 
HETATM   11  C5  UNL     1       1.942  17.198  26.968  1.00  0.00     0.008 C 
HETATM   12  C6  UNL     1       3.032  16.576  26.061  1.00  0.00     0.063 C 
HETATM   13  C7  UNL     1       3.860  17.759  25.569  1.00  0.00     0.085 C 
ENDROOT
BRANCH  13  14
HETATM   14  C8  UNL     1       4.836  17.510  24.575  1.00  0.00     0.282 C 
HETATM   15  O3  UNL     1       4.628  16.607  23.688  1.00  0.00    -0.265 OA
HETATM   16  N4  UNL     1       6.088  18.184  24.452  1.00  0.00    -0.263 N 
ATOM     17  H4  UNL     1       6.262  18.905  25.153  1.00  0.00     0.190 HD
BRANCH  16  18
HETATM   18  N5  UNL     1       7.069  18.014  23.552  1.00  0.00    -0.273 N 
HETATM   19  C9  UNL     1       7.309  18.296  22.376  1.00  0.00     0.215 C 
HETATM   20  N6  UNL     1       8.585  17.854  21.853  1.00  0.00    -0.065 NA
HETATM   21  N7  UNL     1       6.477  18.999  21.513  1.00  0.00    -0.065 NA
ATOM     22  H5  UNL     1       7.847  17.499  23.963  1.00  0.00     0.189 HD
ENDBRANCH  16  18
ENDBRANCH  13  14
TORSDOF 2
ENDMDL
MODEL 2
REMARK VINA RESULT: -7.410450110      2.125      5.629
REMARK  2 active torsions:
REMARK  status: ('A' for Active; 'I' for Inactive)
REMARK       I    between atoms: C1_2  and  N2_4 
REMARK       I    between atoms: N2_4  and  C2_6 
REMARK       I    between atoms: C2_6  and  N3_8 
REMARK    1  A    between atoms: C7_13  and  C8_14 
REMARK       I    between atoms: C8_14  and  N4_16 
REMARK    2  A    between atoms: N4_16  and  N5_18 
ROOT
HETATM    1  N1  UNL     1       7.468  17.555  21.998  1.00  0.00    -0.040 NA
HETATM    2  C1  UNL     1       6.322  16.989  22.574  1.00  0.00     0.336 C 
HETATM    3  O1  UNL     1       6.376  15.856  23.093  1.00  0.00    -0.251 OA
HETATM    4  N2  UNL     1       5.099  17.708  22.567  1.00  0.00    -0.263 N 
ATOM      5  H2  UNL     1       4.270  17.292  22.989  1.00  0.00     0.174 HD
HETATM    6  C2  UNL     1       5.013  18.981  21.990  1.00  0.00     0.330 C 
HETATM    7  O2  UNL     1       6.069  19.451  21.422  1.00  0.00    -0.246 OA
HETATM    8  N3  UNL     1       3.879  19.769  21.978  1.00  0.00    -0.298 N 
HETATM    9  C3  UNL     1       3.947  21.016  21.132  1.00  0.00     0.134 C 
HETATM   10  C4  UNL     1       2.567  21.059  20.466  1.00  0.00     0.021 C 
HETATM   11  C5  UNL     1       2.071  19.661  20.258  1.00  0.00     0.008 C 
HETATM   12  C6  UNL     1       1.639  19.019  21.600  1.00  0.00     0.063 C 
HETATM   13  C7  UNL     1       2.617  19.568  22.634  1.00  0.00     0.085 C 
ENDROOT
BRANCH  13  14
HETATM   14  C8  UNL     1       2.572  19.018  23.937  1.00  0.00     0.282 C 
HETATM   15  O3  UNL     1       2.734  17.757  24.104  1.00  0.00    -0.265 OA
HETATM   16  N4  UNL     1       2.353  19.752  25.141  1.00  0.00    -0.263 N 
ATOM     17  H4  UNL     1       2.224  20.757  25.019  1.00  0.00     0.190 HD
BRANCH  16  18
HETATM   18  N5  UNL     1       2.291  19.319  26.411  1.00  0.00    -0.273 N 
HETATM   19  C9  UNL     1       2.928  19.428  27.460  1.00  0.00     0.215 C 
HETATM   20  N6  UNL     1       2.406  18.719  28.610  1.00  0.00    -0.065 NA
HETATM   21  N7  UNL     1       4.089  20.169  27.645  1.00  0.00    -0.065 NA
ATOM     22  H5  UNL     1       1.474  18.724  26.547  1.00  0.00     0.189 HD
ENDBRANCH  16  18
ENDBRANCH  13  14
TORSDOF 2
ENDMDL
MODEL 3
REMARK VINA RESULT: -7.357884153      1.963      4.677
REMARK  2 active torsions:
REMARK  status: ('A' for Active; 'I' for Inactive)
REMARK       I    between atoms: C1_2  and  N2_4 
REMARK       I    between atoms: N2_4  and  C2_6 
REMARK       I    between atoms: C2_6  and  N3_8 
REMARK    1  A    between atoms: C7_13  and  C8_14 
REMARK       I    between atoms: C8_14  and  N4_16 
REMARK    2  A    between atoms: N4_16  and  N5_18 
ROOT
HETATM    1  N1  UNL     1       7.862  17.092  23.394  1.00  0.00    -0.040 NA
HETATM    2  C1  UNL     1       7.462  18.432  23.496  1.00  0.00     0.336 C 
HETATM    3  O1  UNL     1       8.249  19.346  23.176  1.00  0.00    -0.251 OA
HETATM    4  N2  UNL     1       6.161  18.748  23.963  1.00  0.00    -0.263 N 
ATOM      5  H2  UNL     1       5.876  19.724  24.034  1.00  0.00     0.174 HD
HETATM    6  C2  UNL     1       5.261  17.739  24.329  1.00  0.00     0.330 C 
HETATM    7  O2  UNL     1       5.675  16.521  24.274  1.00  0.00    -0.246 OA
HETATM    8  N3  UNL     1       3.963  17.952  24.751  1.00  0.00    -0.298 N 
HETATM    9  C3  UNL     1       3.232  16.746  25.284  1.00  0.00     0.134 C 
HETATM   10  C4  UNL     1       2.480  17.304  26.497  1.00  0.00     0.021 C 
HETATM   11  C5  UNL     1       3.273  18.419  27.105  1.00  0.00     0.008 C 
HETATM   12  C6  UNL     1       3.219  19.688  26.219  1.00  0.00     0.063 C 
HETATM   13  C7  UNL     1       3.199  19.168  24.784  1.00  0.00     0.085 C 
ENDROOT
BRANCH  13  14
HETATM   14  C8  UNL     1       3.322  20.116  23.740  1.00  0.00     0.282 C 
HETATM   15  O3  UNL     1       4.293  20.953  23.750  1.00  0.00    -0.265 OA
HETATM   16  N4  UNL     1       2.438  20.246  22.628  1.00  0.00    -0.263 N 
ATOM     17  H4  UNL     1       1.662  19.583  22.611  1.00  0.00     0.190 HD
BRANCH  16  18
HETATM   18  N5  UNL     1       2.473  21.110  21.601  1.00  0.00    -0.273 N 
HETATM   19  C9  UNL     1       3.050  21.242  20.519  1.00  0.00     0.215 C 
HETATM   20  N6  UNL     1       2.711  22.419  19.747  1.00  0.00    -0.065 NA
HETATM   21  N7  UNL     1       3.982  20.368  19.972  1.00  0.00    -0.065 NA
ATOM     22  H5  UNL     1       1.833  21.887  21.764  1.00  0.00     0.189 HD
ENDBRANCH  16  18
ENDBRANCH  13  14
TORSDOF 2
ENDMDL
MODEL 4
REMARK VINA RESULT: -7.247983700      2.600      4.823
REMARK  2 active torsions:
REMARK  status: ('A' for Active; 'I' for Inactive)
REMARK       I    between atoms: C1_2  and  N2_4 
REMARK       I    between atoms: N2_4  and  C2_6 
REMARK       I    between atoms: C2_6  and  N3_8 
REMARK    1  A    between atoms: C7_13  and  C8_14 
REMARK       I    between atoms: C8_14  and  N4_16 
REMARK    2  A    between atoms: N4_16  and  N5_18 
ROOT
HETATM    1  N1  UNL     1       8.716  17.590  22.390  1.00  0.00    -0.040 NA
HETATM    2  C1  UNL     1       7.892  18.607  21.887  1.00  0.00     0.336 C 
HETATM    3  O1  UNL     1       8.309  19.361  20.984  1.00  0.00    -0.251 OA
HETATM    4  N2  UNL     1       6.583  18.778  22.405  1.00  0.00    -0.263 N 
ATOM      5  H2  UNL     1       5.989  19.519  22.033  1.00  0.00     0.174 HD
HETATM    6  C2  UNL     1       6.094  17.945  23.418  1.00  0.00     0.330 C 
HETATM    7  O2  UNL     1       6.892  17.055  23.896  1.00  0.00    -0.246 OA
HETATM    8  N3  UNL     1       4.820  18.010  23.949  1.00  0.00    -0.298 N 
HETATM    9  C3  UNL     1       4.564  17.156  25.166  1.00  0.00     0.134 C 
HETATM   10  C4  UNL     1       3.723  18.071  26.061  1.00  0.00     0.021 C 
HETATM   11  C5  UNL     1       4.120  19.497  25.830  1.00  0.00     0.008 C 
HETATM   12  C6  UNL     1       3.601  20.003  24.461  1.00  0.00     0.063 C 
HETATM   13  C7  UNL     1       3.693  18.796  23.532  1.00  0.00     0.085 C 
ENDROOT
BRANCH  13  14
HETATM   14  C8  UNL     1       3.442  19.007  22.155  1.00  0.00     0.282 C 
HETATM   15  O3  UNL     1       2.752  18.151  21.494  1.00  0.00    -0.265 OA
HETATM   16  N4  UNL     1       3.899  20.119  21.388  1.00  0.00    -0.263 N 
ATOM     17  H4  UNL     1       4.449  20.806  21.906  1.00  0.00     0.190 HD
BRANCH  16  18
HETATM   18  N5  UNL     1       3.716  20.399  20.088  1.00  0.00    -0.273 N 
HETATM   19  C9  UNL     1       3.982  21.296  19.285  1.00  0.00     0.215 C 
HETATM   20  N6  UNL     1       3.531  21.097  17.923  1.00  0.00    -0.065 NA
HETATM   21  N7  UNL     1       4.676  22.468  19.561  1.00  0.00    -0.065 NA
ATOM     22  H5  UNL     1       3.205  19.645  19.628  1.00  0.00     0.189 HD
ENDBRANCH  16  18
ENDBRANCH  13  14
TORSDOF 2
ENDMDL
MODEL 5
REMARK VINA RESULT: -7.224109471      0.903      1.135
REMARK  2 active torsions:
REMARK  status: ('A' for Active; 'I' for Inactive)
REMARK       I    between atoms: C1_2  and  N2_4 
REMARK       I    between atoms: N2_4  and  C2_6 
REMARK       I    between atoms: C2_6  and  N3_8 
REMARK    1  A    between atoms: C7_13  and  C8_14 
REMARK       I    between atoms: C8_14  and  N4_16 
REMARK    2  A    between atoms: N4_16  and  N5_18 
ROOT
HETATM    1  N1  UNL     1       0.739  20.898  21.903  1.00  0.00    -0.040 NA
HETATM    2  C1  UNL     1       1.556  19.816  21.548  1.00  0.00     0.336 C 
HETATM    3  O1  UNL     1       1.574  19.404  20.370  1.00  0.00    -0.251 OA
HETATM    4  N2  UNL     1       2.365  19.189  22.530  1.00  0.00    -0.263 N 
ATOM      5  H2  UNL     1       2.958  18.403  22.265  1.00  0.00     0.174 HD
HETATM    6  C2  UNL     1       2.362  19.632  23.858  1.00  0.00     0.330 C 
HETATM    7  O2  UNL     1       1.562  20.594  24.164  1.00  0.00    -0.246 OA
HETATM    8  N3  UNL     1       3.149  19.112  24.868  1.00  0.00    -0.298 N 
HETATM    9  C3  UNL     1       2.845  19.600  26.262  1.00  0.00     0.134 C 
HETATM   10  C4  UNL     1       2.962  18.327  27.107  1.00  0.00     0.021 C 
HETATM   11  C5  UNL     1       2.554  17.143  26.285  1.00  0.00     0.008 C 
HETATM   12  C6  UNL     1       3.636  16.799  25.232  1.00  0.00     0.063 C 
HETATM   13  C7  UNL     1       4.208  18.145  24.797  1.00  0.00     0.085 C 
ENDROOT
BRANCH  13  14
HETATM   14  C8  UNL     1       5.109  18.155  23.705  1.00  0.00     0.282 C 
HETATM   15  O3  UNL     1       5.036  17.240  22.809  1.00  0.00    -0.265 OA
HETATM   16  N4  UNL     1       6.140  19.117  23.488  1.00  0.00    -0.263 N 
ATOM     17  H4  UNL     1       6.206  19.849  24.195  1.00  0.00     0.190 HD
BRANCH  16  18
HETATM   18  N5  UNL     1       7.037  19.203  22.492  1.00  0.00    -0.273 N 
HETATM   19  C9  UNL     1       8.052  18.620  22.105  1.00  0.00     0.215 C 
HETATM   20  N6  UNL     1       8.679  19.142  20.908  1.00  0.00    -0.065 NA
HETATM   21  N7  UNL     1       8.641  17.511  22.700  1.00  0.00    -0.065 NA
ATOM     22  H5  UNL     1       6.811  19.982  21.873  1.00  0.00     0.189 HD
ENDBRANCH  16  18
ENDBRANCH  13  14
TORSDOF 2
ENDMDL
