MODEL 1
REMARK VINA RESULT: -6.674007829      0.000      0.000
REMARK  7 active torsions:
REMARK  status: ('A' for Active; 'I' for Inactive)
REMARK    1  A    between atoms: C2_2  and  N1_4 
REMARK    2  A    between atoms: N1_4  and  C4_6 
REMARK    3  A    between atoms: C4_6  and  N2_8 
REMARK    4  A    between atoms: N2_8  and  N3_10 
REMARK       I    between atoms: N3_10  and  C5_11 
REMARK    5  A    between atoms: C5_11  and  C6_13 
REMARK       I    between atoms: C6_13  and  N4_15 
REMARK    6  A    between atoms: N4_15  and  C7_17 
REMARK    7  A    between atoms: C7_17  and  C8_18 
ROOT
HETATM    1  N3  UNL     1       5.021  16.808  24.421  1.00  0.00    -0.274 NA
HETATM    2  C5  UNL     1       6.156  16.691  23.777  1.00  0.00     0.403 C 
HETATM    3  O1  UNL     1       7.080  15.828  24.014  1.00  0.00    -0.244 OA
ENDROOT
BRANCH   1   4
HETATM    4  N2  UNL     1       3.856  16.903  25.109  1.00  0.00    -0.205 N 
ATOM      5  H2  UNL     1       3.074  16.330  24.794  1.00  0.00     0.204 HD
BRANCH   4   6
HETATM    6  C4  UNL     1       3.640  17.763  26.267  1.00  0.00     0.197 C 
HETATM    7  S1  UNL     1       3.938  19.345  26.282  1.00  0.00    -0.039 SA
BRANCH   6   8
HETATM    8  N1  UNL     1       3.115  17.150  27.492  1.00  0.00    -0.361 N 
ATOM      9  H1  UNL     1       3.739  17.031  28.289  1.00  0.00     0.162 HD
BRANCH   8  10
HETATM   10  C2  UNL     1       1.770  16.719  27.604  1.00  0.00     0.076 C 
HETATM   11  C1  UNL     1       1.161  16.986  28.912  1.00  0.00     0.032 C 
HETATM   12  C3  UNL     1       1.710  15.208  27.337  1.00  0.00     0.032 C 
ENDBRANCH   8  10
ENDBRANCH   6   8
ENDBRANCH   4   6
ENDBRANCH   1   4
BRANCH   2  13
HETATM   13  C6  UNL     1       6.620  17.555  22.613  1.00  0.00     0.330 C 
HETATM   14  O2  UNL     1       7.640  17.337  21.988  1.00  0.00    -0.261 OA
HETATM   15  N4  UNL     1       5.759  18.622  22.351  1.00  0.00    -0.323 N 
ATOM     16  H4  UNL     1       4.928  18.741  22.931  1.00  0.00     0.168 HD
BRANCH  15  17
HETATM   17  C7  UNL     1       6.010  19.573  21.271  1.00  0.00     0.162 C 
BRANCH  17  18
HETATM   18  C8  UNL     1       4.870  19.938  20.509  1.00  0.00     0.270 C 
HETATM   19  N5  UNL     1       3.521  19.776  20.957  1.00  0.00    -0.057 NA
HETATM   20  O3  UNL     1       4.993  20.444  19.335  1.00  0.00    -0.270 OA
ENDBRANCH  17  18
ENDBRANCH  15  17
ENDBRANCH   2  13
TORSDOF 7
ENDMDL
MODEL 2
REMARK VINA RESULT: -6.634192590      1.854      3.081
REMARK  7 active torsions:
REMARK  status: ('A' for Active; 'I' for Inactive)
REMARK    1  A    between atoms: C2_2  and  N1_4 
REMARK    2  A    between atoms: N1_4  and  C4_6 
REMARK    3  A    between atoms: C4_6  and  N2_8 
REMARK    4  A    between atoms: N2_8  and  N3_10 
REMARK       I    between atoms: N3_10  and  C5_11 
REMARK    5  A    between atoms: C5_11  and  C6_13 
REMARK       I    between atoms: C6_13  and  N4_15 
REMARK    6  A    between atoms: N4_15  and  C7_17 
REMARK    7  A    between atoms: C7_17  and  C8_18 
ROOT
HETATM    1  N3  UNL     1       2.930  18.673  23.797  1.00  0.00    -0.274 NA
HETATM    2  C5  UNL     1       3.441  19.128  22.679  1.00  0.00     0.403 C 
HETATM    3  O1  UNL     1       2.936  20.041  21.927  1.00  0.00    -0.244 OA
ENDROOT
BRANCH   1   4
HETATM    4  N2  UNL     1       2.372  18.225  24.949  1.00  0.00    -0.205 N 
ATOM      5  H2  UNL     1       1.435  17.824  24.895  1.00  0.00     0.204 HD
BRANCH   4   6
HETATM    6  C4  UNL     1       3.012  18.273  26.258  1.00  0.00     0.197 C 
HETATM    7  S1  UNL     1       3.824  19.546  26.818  1.00  0.00    -0.039 SA
BRANCH   6   8
HETATM    8  N1  UNL     1       2.906  17.092  27.120  1.00  0.00    -0.361 N 
ATOM      9  H1  UNL     1       3.756  16.707  27.534  1.00  0.00     0.162 HD
BRANCH   8  10
HETATM   10  C2  UNL     1       1.665  16.467  27.398  1.00  0.00     0.076 C 
HETATM   11  C1  UNL     1       1.172  16.692  28.762  1.00  0.00     0.032 C 
HETATM   12  C3  UNL     1       1.810  14.955  27.174  1.00  0.00     0.032 C 
ENDBRANCH   8  10
ENDBRANCH   6   8
ENDBRANCH   4   6
ENDBRANCH   1   4
BRANCH   2  13
HETATM   13  C6  UNL     1       4.741  18.667  22.035  1.00  0.00     0.330 C 
HETATM   14  O2  UNL     1       4.951  18.733  20.840  1.00  0.00    -0.261 OA
HETATM   15  N4  UNL     1       5.654  18.156  22.960  1.00  0.00    -0.323 N 
ATOM     16  H4  UNL     1       5.395  18.126  23.945  1.00  0.00     0.168 HD
BRANCH  15  17
HETATM   17  C7  UNL     1       6.969  17.664  22.558  1.00  0.00     0.162 C 
BRANCH  17  18
HETATM   18  C8  UNL     1       7.975  18.658  22.435  1.00  0.00     0.270 C 
HETATM   19  N5  UNL     1       8.682  18.938  21.224  1.00  0.00    -0.057 NA
HETATM   20  O3  UNL     1       8.320  19.378  23.442  1.00  0.00    -0.270 OA
ENDBRANCH  17  18
ENDBRANCH  15  17
ENDBRANCH   2  13
TORSDOF 7
ENDMDL
MODEL 3
REMARK VINA RESULT: -6.547930899      1.997      2.601
REMARK  7 active torsions:
REMARK  status: ('A' for Active; 'I' for Inactive)
REMARK    1  A    between atoms: C2_2  and  N1_4 
REMARK    2  A    between atoms: N1_4  and  C4_6 
REMARK    3  A    between atoms: C4_6  and  N2_8 
REMARK    4  A    between atoms: N2_8  and  N3_10 
REMARK       I    between atoms: N3_10  and  C5_11 
REMARK    5  A    between atoms: C5_11  and  C6_13 
REMARK       I    between atoms: C6_13  and  N4_15 
REMARK    6  A    between atoms: N4_15  and  C7_17 
REMARK    7  A    between atoms: C7_17  and  C8_18 
ROOT
HETATM    1  N3  UNL     1       3.272  17.773  24.359  1.00  0.00    -0.274 NA
HETATM    2  C5  UNL     1       4.018  17.557  23.303  1.00  0.00     0.403 C 
HETATM    3  O1  UNL     1       3.602  17.393  22.098  1.00  0.00    -0.244 OA
ENDROOT
BRANCH   1   4
HETATM    4  N2  UNL     1       2.469  17.995  25.429  1.00  0.00    -0.205 N 
ATOM      5  H2  UNL     1       1.463  17.905  25.292  1.00  0.00     0.204 HD
BRANCH   4   6
HETATM    6  C4  UNL     1       2.939  18.352  26.763  1.00  0.00     0.197 C 
HETATM    7  S1  UNL     1       3.741  19.706  27.103  1.00  0.00    -0.039 SA
BRANCH   6   8
HETATM    8  N1  UNL     1       2.662  17.422  27.862  1.00  0.00    -0.361 N 
ATOM      9  H1  UNL     1       3.398  17.229  28.541  1.00  0.00     0.162 HD
BRANCH   8  10
HETATM   10  C2  UNL     1       1.406  16.785  28.014  1.00  0.00     0.076 C 
HETATM   11  C1  UNL     1       0.849  16.870  29.369  1.00  0.00     0.032 C 
HETATM   12  C3  UNL     1       1.555  15.302  27.640  1.00  0.00     0.032 C 
ENDBRANCH   8  10
ENDBRANCH   6   8
ENDBRANCH   4   6
ENDBRANCH   1   4
BRANCH   2  13
HETATM   13  C6  UNL     1       5.536  17.453  23.286  1.00  0.00     0.330 C 
HETATM   14  O2  UNL     1       6.132  16.396  23.367  1.00  0.00    -0.261 OA
HETATM   15  N4  UNL     1       6.166  18.695  23.177  1.00  0.00    -0.323 N 
ATOM     16  H4  UNL     1       5.592  19.537  23.125  1.00  0.00     0.168 HD
BRANCH  15  17
HETATM   17  C7  UNL     1       7.620  18.826  23.135  1.00  0.00     0.162 C 
BRANCH  17  18
HETATM   18  C8  UNL     1       8.216  18.535  21.881  1.00  0.00     0.270 C 
HETATM   19  N5  UNL     1       8.333  19.476  20.810  1.00  0.00    -0.057 NA
HETATM   20  O3  UNL     1       8.694  17.369  21.630  1.00  0.00    -0.270 OA
ENDBRANCH  17  18
ENDBRANCH  15  17
ENDBRANCH   2  13
TORSDOF 7
ENDMDL
MODEL 4
REMARK VINA RESULT: -6.524692869      1.793      3.149
REMARK  7 active torsions:
REMARK  status: ('A' for Active; 'I' for Inactive)
REMARK    1  A    between atoms: C2_2  and  N1_4 
REMARK    2  A    between atoms: N1_4  and  C4_6 
REMARK    3  A    between atoms: C4_6  and  N2_8 
REMARK    4  A    between atoms: N2_8  and  N3_10 
REMARK       I    between atoms: N3_10  and  C5_11 
REMARK    5  A    between atoms: C5_11  and  C6_13 
REMARK       I    between atoms: C6_13  and  N4_15 
REMARK    6  A    between atoms: N4_15  and  C7_17 
REMARK    7  A    between atoms: C7_17  and  C8_18 
ROOT
HETATM    1  N3  UNL     1       2.614  18.295  23.620  1.00  0.00    -0.274 NA
HETATM    2  C5  UNL     1       3.061  18.470  22.401  1.00  0.00     0.403 C 
HETATM    3  O1  UNL     1       2.348  18.559  21.335  1.00  0.00    -0.244 OA
ENDROOT
BRANCH   1   4
HETATM    4  N2  UNL     1       2.117  18.112  24.869  1.00  0.00    -0.205 N 
ATOM      5  H2  UNL     1       1.121  17.910  24.956  1.00  0.00     0.204 HD
BRANCH   4   6
HETATM    6  C4  UNL     1       2.901  18.184  26.096  1.00  0.00     0.197 C 
HETATM    7  S1  UNL     1       3.819  19.441  26.507  1.00  0.00    -0.039 SA
BRANCH   6   8
HETATM    8  N1  UNL     1       2.847  17.043  27.015  1.00  0.00    -0.361 N 
ATOM      9  H1  UNL     1       3.714  16.708  27.436  1.00  0.00     0.162 HD
BRANCH   8  10
HETATM   10  C2  UNL     1       1.633  16.390  27.339  1.00  0.00     0.076 C 
HETATM   11  C1  UNL     1       1.166  16.632  28.709  1.00  0.00     0.032 C 
HETATM   12  C3  UNL     1       1.817  14.877  27.146  1.00  0.00     0.032 C 
ENDBRANCH   8  10
ENDBRANCH   6   8
ENDBRANCH   4   6
ENDBRANCH   1   4
BRANCH   2  13
HETATM   13  C6  UNL     1       4.521  18.603  21.992  1.00  0.00     0.330 C 
HETATM   14  O2  UNL     1       4.889  18.619  20.833  1.00  0.00    -0.261 OA
HETATM   15  N4  UNL     1       5.386  18.694  23.085  1.00  0.00    -0.323 N 
ATOM     16  H4  UNL     1       4.997  18.662  24.027  1.00  0.00     0.168 HD
BRANCH  15  17
HETATM   17  C7  UNL     1       6.830  18.834  22.920  1.00  0.00     0.162 C 
BRANCH  17  18
HETATM   18  C8  UNL     1       7.561  17.618  22.939  1.00  0.00     0.270 C 
HETATM   19  N5  UNL     1       7.144  16.442  23.638  1.00  0.00    -0.057 NA
HETATM   20  O3  UNL     1       8.678  17.509  22.314  1.00  0.00    -0.270 OA
ENDBRANCH  17  18
ENDBRANCH  15  17
ENDBRANCH   2  13
TORSDOF 7
ENDMDL
MODEL 5
REMARK VINA RESULT: -6.428358284      2.641      2.767
REMARK  7 active torsions:
REMARK  status: ('A' for Active; 'I' for Inactive)
REMARK    1  A    between atoms: C2_2  and  N1_4 
REMARK    2  A    between atoms: N1_4  and  C4_6 
REMARK    3  A    between atoms: C4_6  and  N2_8 
REMARK    4  A    between atoms: N2_8  and  N3_10 
REMARK       I    between atoms: N3_10  and  C5_11 
REMARK    5  A    between atoms: C5_11  and  C6_13 
REMARK       I    between atoms: C6_13  and  N4_15 
REMARK    6  A    between atoms: N4_15  and  C7_17 
REMARK    7  A    between atoms: C7_17  and  C8_18 
ROOT
HETATM    1  N3  UNL     1       4.856  17.173  24.422  1.00  0.00    -0.274 NA
HETATM    2  C5  UNL     1       4.984  17.050  23.124  1.00  0.00     0.403 C 
HETATM    3  O1  UNL     1       5.786  16.255  22.510  1.00  0.00    -0.244 OA
ENDROOT
BRANCH   1   4
HETATM    4  N2  UNL     1       4.750  17.276  25.770  1.00  0.00    -0.205 N 
ATOM      5  H2  UNL     1       5.475  16.834  26.336  1.00  0.00     0.204 HD
BRANCH   4   6
HETATM    6  C4  UNL     1       3.678  17.972  26.471  1.00  0.00     0.197 C 
HETATM    7  S1  UNL     1       3.092  19.405  26.028  1.00  0.00    -0.039 SA
BRANCH   6   8
HETATM    8  N1  UNL     1       3.093  17.325  27.650  1.00  0.00    -0.361 N 
ATOM      9  H1  UNL     1       3.664  17.220  28.488  1.00  0.00     0.162 HD
BRANCH   8  10
HETATM   10  C2  UNL     1       1.761  16.843  27.665  1.00  0.00     0.076 C 
HETATM   11  C1  UNL     1       1.102  16.936  28.973  1.00  0.00     0.032 C 
HETATM   12  C3  UNL     1       1.761  15.372  27.222  1.00  0.00     0.032 C 
ENDBRANCH   8  10
ENDBRANCH   6   8
ENDBRANCH   4   6
ENDBRANCH   1   4
BRANCH   2  13
HETATM   13  C6  UNL     1       4.208  17.826  22.069  1.00  0.00     0.330 C 
HETATM   14  O2  UNL     1       4.695  18.186  21.015  1.00  0.00    -0.261 OA
HETATM   15  N4  UNL     1       2.889  18.086  22.446  1.00  0.00    -0.323 N 
ATOM     16  H4  UNL     1       2.560  17.759  23.354  1.00  0.00     0.168 HD
BRANCH  15  17
HETATM   17  C7  UNL     1       1.965  18.813  21.579  1.00  0.00     0.162 C 
BRANCH  17  18
HETATM   18  C8  UNL     1       0.634  18.320  21.566  1.00  0.00     0.270 C 
HETATM   19  N5  UNL     1       0.007  17.731  20.423  1.00  0.00    -0.057 NA
HETATM   20  O3  UNL     1      -0.106  18.384  22.615  1.00  0.00    -0.270 OA
ENDBRANCH  17  18
ENDBRANCH  15  17
ENDBRANCH   2  13
TORSDOF 7
ENDMDL
