MODEL 1
REMARK VINA RESULT: -7.017356533      0.000      0.000
REMARK  3 active torsions:
REMARK  status: ('A' for Active; 'I' for Inactive)
REMARK       I    between atoms: C2_2  and  N1_4 
REMARK    1  A    between atoms: N1_4  and  S1_6 
REMARK    2  A    between atoms: S1_6  and  N2_9 
REMARK    3  A    between atoms: C5_12  and  N3_13 
REMARK       I    between atoms: N3_13  and  C6_15 
ROOT
HETATM    1  N2  UNL     1       3.514  18.788  23.798  1.00  0.00    -0.273 N 
HETATM    2  C3  UNL     1       2.725  19.567  24.656  1.00  0.00     0.144 C 
HETATM    3  C4  UNL     1       2.996  19.237  26.139  1.00  0.00     0.046 C 
HETATM    4  C5  UNL     1       2.686  17.760  26.260  1.00  0.00     0.090 C 
HETATM    5  C7  UNL     1       3.752  17.029  25.484  1.00  0.00     0.070 C 
HETATM    6  C8  UNL     1       3.615  17.414  24.030  1.00  0.00     0.079 C 
ENDROOT
BRANCH   1   7
HETATM    7  S1  UNL     1       4.167  19.470  22.418  1.00  0.00     0.327 S 
HETATM    8  O2  UNL     1       3.207  19.185  21.265  1.00  0.00    -0.182 OA
HETATM    9  O3  UNL     1       4.248  20.985  22.550  1.00  0.00    -0.182 OA
BRANCH   7  10
HETATM   10  N1  UNL     1       5.700  18.831  21.958  1.00  0.00    -0.237 N 
HETATM   11  C2  UNL     1       6.793  18.891  22.862  1.00  0.00     0.228 C 
HETATM   12  C1  UNL     1       8.122  18.326  22.445  1.00  0.00     0.118 C 
HETATM   13  O1  UNL     1       6.686  19.400  24.003  1.00  0.00    -0.273 OA
ATOM     14  H1  UNL     1       5.822  18.410  21.038  1.00  0.00     0.183 HD
ENDBRANCH   7  10
ENDBRANCH   1   7
BRANCH   4  15
HETATM   15  N3  UNL     1       2.611  17.333  27.640  1.00  0.00    -0.360 N 
HETATM   16  C6  UNL     1       1.486  16.677  28.197  1.00  0.00     0.182 C 
HETATM   17  N4  UNL     1       1.049  15.619  27.620  1.00  0.00    -0.374 N 
HETATM   18  N5  UNL     1       0.880  17.202  29.358  1.00  0.00    -0.064 NA
ATOM     19  H42 UNL     1       1.487  15.240  26.781  1.00  0.00     0.158 HD
ATOM     20  H41 UNL     1       0.238  15.146  28.021  1.00  0.00     0.158 HD
ATOM     21  H3  UNL     1       3.412  17.515  28.244  1.00  0.00     0.162 HD
ENDBRANCH   4  15
TORSDOF 3
ENDMDL
MODEL 2
REMARK VINA RESULT: -6.882367504      2.164      3.275
REMARK  3 active torsions:
REMARK  status: ('A' for Active; 'I' for Inactive)
REMARK       I    between atoms: C2_2  and  N1_4 
REMARK    1  A    between atoms: N1_4  and  S1_6 
REMARK    2  A    between atoms: S1_6  and  N2_9 
REMARK    3  A    between atoms: C5_12  and  N3_13 
REMARK       I    between atoms: N3_13  and  C6_15 
ROOT
HETATM    1  N2  UNL     1       5.915  18.565  23.867  1.00  0.00    -0.273 N 
HETATM    2  C3  UNL     1       5.617  17.340  24.481  1.00  0.00     0.144 C 
HETATM    3  C4  UNL     1       4.124  17.236  24.855  1.00  0.00     0.046 C 
HETATM    4  C5  UNL     1       3.883  18.412  25.779  1.00  0.00     0.090 C 
HETATM    5  C7  UNL     1       4.001  19.656  24.935  1.00  0.00     0.070 C 
HETATM    6  C8  UNL     1       5.423  19.743  24.433  1.00  0.00     0.079 C 
ENDROOT
BRANCH   1   7
HETATM    7  S1  UNL     1       6.994  18.616  22.591  1.00  0.00     0.327 S 
HETATM    8  O2  UNL     1       8.339  19.083  23.144  1.00  0.00    -0.182 OA
HETATM    9  O3  UNL     1       7.220  17.224  22.018  1.00  0.00    -0.182 OA
BRANCH   7  10
HETATM   10  N1  UNL     1       6.565  19.714  21.333  1.00  0.00    -0.237 N 
HETATM   11  C2  UNL     1       5.272  19.656  20.752  1.00  0.00     0.228 C 
HETATM   12  C1  UNL     1       4.915  20.623  19.658  1.00  0.00     0.118 C 
HETATM   13  O1  UNL     1       4.411  18.823  21.124  1.00  0.00    -0.273 OA
ATOM     14  H1  UNL     1       7.240  20.405  21.007  1.00  0.00     0.183 HD
ENDBRANCH   7  10
ENDBRANCH   1   7
BRANCH   4  15
HETATM   15  N3  UNL     1       2.609  18.318  26.455  1.00  0.00    -0.360 N 
HETATM   16  C6  UNL     1       2.422  18.639  27.822  1.00  0.00     0.182 C 
HETATM   17  N4  UNL     1       2.801  19.792  28.235  1.00  0.00    -0.374 N 
HETATM   18  N5  UNL     1       1.834  17.691  28.685  1.00  0.00    -0.064 NA
ATOM     19  H42 UNL     1       3.226  20.478  27.611  1.00  0.00     0.158 HD
ATOM     20  H41 UNL     1       2.666  20.024  29.220  1.00  0.00     0.158 HD
ATOM     21  H3  UNL     1       1.801  18.002  25.919  1.00  0.00     0.162 HD
ENDBRANCH   4  15
TORSDOF 3
ENDMDL
MODEL 3
REMARK VINA RESULT: -6.679608027      2.016      2.932
REMARK  3 active torsions:
REMARK  status: ('A' for Active; 'I' for Inactive)
REMARK       I    between atoms: C2_2  and  N1_4 
REMARK    1  A    between atoms: N1_4  and  S1_6 
REMARK    2  A    between atoms: S1_6  and  N2_9 
REMARK    3  A    between atoms: C5_12  and  N3_13 
REMARK       I    between atoms: N3_13  and  C6_15 
ROOT
HETATM    1  N2  UNL     1       3.141  18.318  23.144  1.00  0.00    -0.273 N 
HETATM    2  C3  UNL     1       1.946  18.453  23.865  1.00  0.00     0.144 C 
HETATM    3  C4  UNL     1       2.192  18.430  25.388  1.00  0.00     0.046 C 
HETATM    4  C5  UNL     1       2.866  17.099  25.643  1.00  0.00     0.090 C 
HETATM    5  C7  UNL     1       4.234  17.180  25.015  1.00  0.00     0.070 C 
HETATM    6  C8  UNL     1       4.054  17.332  23.523  1.00  0.00     0.079 C 
ENDROOT
BRANCH   1   7
HETATM    7  S1  UNL     1       3.373  19.204  21.744  1.00  0.00     0.327 S 
HETATM    8  O2  UNL     1       4.625  18.660  21.058  1.00  0.00    -0.182 OA
HETATM    9  O3  UNL     1       2.220  18.993  20.774  1.00  0.00    -0.182 OA
BRANCH   7  10
HETATM   10  N1  UNL     1       3.637  20.888  21.997  1.00  0.00    -0.237 N 
HETATM   11  C2  UNL     1       2.533  21.752  22.224  1.00  0.00     0.228 C 
HETATM   12  C1  UNL     1       2.782  23.218  22.445  1.00  0.00     0.118 C 
HETATM   13  O1  UNL     1       1.352  21.331  22.249  1.00  0.00    -0.273 OA
ATOM     14  H1  UNL     1       4.584  21.264  21.984  1.00  0.00     0.183 HD
ENDBRANCH   7  10
ENDBRANCH   1   7
BRANCH   4  15
HETATM   15  N3  UNL     1       2.918  16.778  27.051  1.00  0.00    -0.360 N 
HETATM   16  C6  UNL     1       1.770  16.519  27.838  1.00  0.00     0.182 C 
HETATM   17  N4  UNL     1       0.948  15.618  27.442  1.00  0.00    -0.374 N 
HETATM   18  N5  UNL     1       1.560  17.255  29.024  1.00  0.00    -0.064 NA
ATOM     19  H42 UNL     1       1.100  15.086  26.585  1.00  0.00     0.158 HD
ATOM     20  H41 UNL     1       0.121  15.431  28.010  1.00  0.00     0.158 HD
ATOM     21  H3  UNL     1       3.832  16.736  27.502  1.00  0.00     0.162 HD
ENDBRANCH   4  15
TORSDOF 3
ENDMDL
MODEL 4
REMARK VINA RESULT: -6.550844530      1.881      2.613
REMARK  3 active torsions:
REMARK  status: ('A' for Active; 'I' for Inactive)
REMARK       I    between atoms: C2_2  and  N1_4 
REMARK    1  A    between atoms: N1_4  and  S1_6 
REMARK    2  A    between atoms: S1_6  and  N2_9 
REMARK    3  A    between atoms: C5_12  and  N3_13 
REMARK       I    between atoms: N3_13  and  C6_15 
ROOT
HETATM    1  N2  UNL     1       4.241  18.466  24.489  1.00  0.00    -0.273 N 
HETATM    2  C3  UNL     1       3.825  19.502  25.337  1.00  0.00     0.144 C 
HETATM    3  C4  UNL     1       3.819  19.062  26.816  1.00  0.00     0.046 C 
HETATM    4  C5  UNL     1       2.876  17.878  26.855  1.00  0.00     0.090 C 
HETATM    5  C7  UNL     1       3.555  16.760  26.105  1.00  0.00     0.070 C 
HETATM    6  C8  UNL     1       3.703  17.190  24.664  1.00  0.00     0.079 C 
ENDROOT
BRANCH   1   7
HETATM    7  S1  UNL     1       5.221  18.807  23.177  1.00  0.00     0.327 S 
HETATM    8  O2  UNL     1       6.544  19.343  23.719  1.00  0.00    -0.182 OA
HETATM    9  O3  UNL     1       5.551  17.538  22.404  1.00  0.00    -0.182 OA
BRANCH   7  10
HETATM   10  N1  UNL     1       4.598  20.008  22.109  1.00  0.00    -0.237 N 
HETATM   11  C2  UNL     1       3.428  19.743  21.351  1.00  0.00     0.228 C 
HETATM   12  C1  UNL     1       2.898  20.803  20.425  1.00  0.00     0.118 C 
HETATM   13  O1  UNL     1       2.818  18.650  21.427  1.00  0.00    -0.273 OA
ATOM     14  H1  UNL     1       5.069  20.908  22.023  1.00  0.00     0.183 HD
ENDBRANCH   7  10
ENDBRANCH   1   7
BRANCH   4  15
HETATM   15  N3  UNL     1       2.526  17.508  28.207  1.00  0.00    -0.360 N 
HETATM   16  C6  UNL     1       1.269  16.966  28.570  1.00  0.00     0.182 C 
HETATM   17  N4  UNL     1       0.849  15.927  27.947  1.00  0.00    -0.374 N 
HETATM   18  N5  UNL     1       0.518  17.578  29.595  1.00  0.00    -0.064 NA
ATOM     19  H42 UNL     1       1.392  15.484  27.206  1.00  0.00     0.158 HD
ATOM     20  H41 UNL     1      -0.057  15.536  28.209  1.00  0.00     0.158 HD
ATOM     21  H3  UNL     1       3.222  17.645  28.940  1.00  0.00     0.162 HD
ENDBRANCH   4  15
TORSDOF 3
ENDMDL
MODEL 5
REMARK VINA RESULT: -6.424756182      0.818      1.392
REMARK  3 active torsions:
REMARK  status: ('A' for Active; 'I' for Inactive)
REMARK       I    between atoms: C2_2  and  N1_4 
REMARK    1  A    between atoms: N1_4  and  S1_6 
REMARK    2  A    between atoms: S1_6  and  N2_9 
REMARK    3  A    between atoms: C5_12  and  N3_13 
REMARK       I    between atoms: N3_13  and  C6_15 
ROOT
HETATM    1  N2  UNL     1       4.031  18.445  24.603  1.00  0.00    -0.273 N 
HETATM    2  C3  UNL     1       3.884  17.074  24.856  1.00  0.00     0.144 C 
HETATM    3  C4  UNL     1       2.850  16.806  25.970  1.00  0.00     0.046 C 
HETATM    4  C5  UNL     1       3.384  17.556  27.171  1.00  0.00     0.090 C 
HETATM    5  C7  UNL     1       3.262  19.025  26.853  1.00  0.00     0.070 C 
HETATM    6  C8  UNL     1       4.165  19.323  25.680  1.00  0.00     0.079 C 
ENDROOT
BRANCH   1   7
HETATM    7  S1  UNL     1       4.226  18.985  23.032  1.00  0.00     0.327 S 
HETATM    8  O2  UNL     1       3.036  18.480  22.220  1.00  0.00    -0.182 OA
HETATM    9  O3  UNL     1       4.178  20.505  22.973  1.00  0.00    -0.182 OA
BRANCH   7  10
HETATM   10  N1  UNL     1       5.646  18.404  22.246  1.00  0.00    -0.237 N 
HETATM   11  C2  UNL     1       6.924  18.676  22.800  1.00  0.00     0.228 C 
HETATM   12  C1  UNL     1       8.152  18.160  22.101  1.00  0.00     0.118 C 
HETATM   13  O1  UNL     1       7.066  19.335  23.857  1.00  0.00    -0.273 OA
ATOM     14  H1  UNL     1       5.568  17.865  21.384  1.00  0.00     0.183 HD
ENDBRANCH   7  10
ENDBRANCH   1   7
BRANCH   4  15
HETATM   15  N3  UNL     1       2.695  17.191  28.388  1.00  0.00    -0.360 N 
HETATM   16  C6  UNL     1       1.320  16.856  28.439  1.00  0.00     0.182 C 
HETATM   17  N4  UNL     1       0.887  15.933  27.661  1.00  0.00    -0.374 N 
HETATM   18  N5  UNL     1       0.470  17.542  29.332  1.00  0.00    -0.064 NA
ATOM     19  H42 UNL     1       1.502  15.437  27.015  1.00  0.00     0.158 HD
ATOM     20  H41 UNL     1      -0.104  15.691  27.698  1.00  0.00     0.158 HD
ATOM     21  H3  UNL     1       3.228  17.175  29.258  1.00  0.00     0.162 HD
ENDBRANCH   4  15
TORSDOF 3
ENDMDL
