MODEL 1
REMARK VINA RESULT: -8.673345731      0.000      0.000
REMARK  12 active torsions:
REMARK  status: ('A' for Active; 'I' for Inactive)
REMARK    1  A    between atoms: O1_2  and  C2_3 
REMARK    2  A    between atoms: C2_3  and  C3_5 
REMARK    3  A    between atoms: C3_5  and  C4_6 
REMARK    4  A    between atoms: C3_5  and  S1_23 
REMARK    5  A    between atoms: C4_6  and  O3_7 
REMARK    6  A    between atoms: C4_6  and  C5_9 
REMARK    7  A    between atoms: C5_9  and  O4_10 
REMARK    8  A    between atoms: C5_9  and  C6_12 
REMARK    9  A    between atoms: C6_12  and  O5_13 
REMARK   10  A    between atoms: C8_16  and  O6_17 
REMARK   11  A    between atoms: S1_23  and  O9_26 
REMARK   12  A    between atoms: O9_26  and  C10_27 
ROOT
HETATM    1  C4  UNL     1      21.416  42.543   8.330  1.00  0.00     0.182 C 
ENDROOT
BRANCH   1   2
HETATM    2  C3  UNL     1      21.975  43.489   9.322  1.00  0.00     0.267 C 
BRANCH   2   3
HETATM    3  C2  UNL     1      22.574  42.888  10.529  1.00  0.00     0.282 C 
HETATM    4  O2  UNL     1      23.831  42.846  10.649  1.00  0.00    -0.264 OA
BRANCH   3   5
HETATM    5  O1  UNL     1      21.830  42.351  11.563  1.00  0.00    -0.325 OA
HETATM    6  C1  UNL     1      22.089  42.607  12.932  1.00  0.00     0.213 C 
ENDBRANCH   3   5
ENDBRANCH   2   3
BRANCH   2   7
HETATM    7  S1  UNL     1      23.154  44.646   8.666  1.00  0.00     0.286 S 
HETATM    8  O7  UNL     1      24.352  43.983   8.064  1.00  0.00    -0.197 OA
HETATM    9  O8  UNL     1      23.699  45.380   9.894  1.00  0.00    -0.197 OA
BRANCH   7  10
HETATM   10  O9  UNL     1      22.454  45.828   7.701  1.00  0.00    -0.232 OA
BRANCH  10  11
HETATM   11  C10 UNL     1      23.084  46.987   7.285  1.00  0.00     0.089 A 
HETATM   12  C11 UNL     1      22.875  48.211   7.903  1.00  0.00     0.038 A 
HETATM   13  C12 UNL     1      23.508  49.368   7.481  1.00  0.00     0.003 A 
HETATM   14  C13 UNL     1      24.382  49.330   6.414  1.00  0.00     0.000 A 
HETATM   15  C14 UNL     1      24.595  48.115   5.793  1.00  0.00     0.003 A 
HETATM   16  C15 UNL     1      23.966  46.958   6.210  1.00  0.00     0.038 A 
ENDBRANCH  10  11
ENDBRANCH   7  10
ENDBRANCH   2   7
ENDBRANCH   1   2
BRANCH   1  17
HETATM   17  O3  UNL     1      21.849  42.780   7.029  1.00  0.00    -0.391 OA
ATOM     18  H3  UNL     1      22.761  43.041   6.974  1.00  0.00     0.210 HD
ENDBRANCH   1  17
BRANCH   1  19
HETATM   19  C5  UNL     1      21.531  41.085   8.669  1.00  0.00     0.212 C 
BRANCH  19  20
HETATM   20  O4  UNL     1      21.952  40.320   7.586  1.00  0.00    -0.388 OA
ATOM     21  H4  UNL     1      21.648  39.421   7.637  1.00  0.00     0.210 HD
ENDBRANCH  19  20
BRANCH  19  22
HETATM   22  C6  UNL     1      20.158  40.530   9.081  1.00  0.00     0.255 C 
HETATM   23  C7  UNL     1      20.197  39.026   9.173  1.00  0.00     0.105 C 
HETATM   24  C8  UNL     1      18.816  38.644   8.683  1.00  0.00     0.148 C 
HETATM   25  C9  UNL     1      18.618  39.673   7.563  1.00  0.00     0.267 C 
HETATM   26  N1  UNL     1      19.203  40.888   8.080  1.00  0.00    -0.038 N 
ATOM     27  H12 UNL     1      18.503  41.549   8.421  1.00  0.00     0.281 HD
ATOM     28  H11 UNL     1      19.601  41.476   7.347  1.00  0.00     0.281 HD
BRANCH  22  29
HETATM   29  O5  UNL     1      19.768  41.023  10.315  1.00  0.00    -0.363 OA
ATOM     30  H5  UNL     1      19.749  40.336  10.970  1.00  0.00     0.212 HD
ENDBRANCH  22  29
BRANCH  24  31
HETATM   31  O6  UNL     1      17.843  38.770   9.651  1.00  0.00    -0.394 OA
ATOM     32  H6  UNL     1      17.932  38.138  10.355  1.00  0.00     0.210 HD
ENDBRANCH  24  31
ENDBRANCH  19  22
ENDBRANCH   1  19
TORSDOF 12
ENDMDL
MODEL 2
REMARK VINA RESULT: -8.587555188      3.124      5.486
REMARK  12 active torsions:
REMARK  status: ('A' for Active; 'I' for Inactive)
REMARK    1  A    between atoms: O1_2  and  C2_3 
REMARK    2  A    between atoms: C2_3  and  C3_5 
REMARK    3  A    between atoms: C3_5  and  C4_6 
REMARK    4  A    between atoms: C3_5  and  S1_23 
REMARK    5  A    between atoms: C4_6  and  O3_7 
REMARK    6  A    between atoms: C4_6  and  C5_9 
REMARK    7  A    between atoms: C5_9  and  O4_10 
REMARK    8  A    between atoms: C5_9  and  C6_12 
REMARK    9  A    between atoms: C6_12  and  O5_13 
REMARK   10  A    between atoms: C8_16  and  O6_17 
REMARK   11  A    between atoms: S1_23  and  O9_26 
REMARK   12  A    between atoms: O9_26  and  C10_27 
ROOT
HETATM    1  C4  UNL     1      22.188  45.599   6.780  1.00  0.00     0.182 C 
ENDROOT
BRANCH   1   2
HETATM    2  C3  UNL     1      22.341  46.711   5.815  1.00  0.00     0.267 C 
BRANCH   2   3
HETATM    3  C2  UNL     1      21.091  47.272   5.266  1.00  0.00     0.282 C 
HETATM    4  O2  UNL     1      20.084  47.406   6.016  1.00  0.00    -0.264 OA
BRANCH   3   5
HETATM    5  O1  UNL     1      20.946  47.668   3.950  1.00  0.00    -0.325 OA
HETATM    6  C1  UNL     1      20.472  48.946   3.561  1.00  0.00     0.213 C 
ENDBRANCH   3   5
ENDBRANCH   2   3
BRANCH   2   7
HETATM    7  S1  UNL     1      23.322  48.074   6.397  1.00  0.00     0.286 S 
HETATM    8  O7  UNL     1      24.784  47.896   6.137  1.00  0.00    -0.197 OA
HETATM    9  O8  UNL     1      23.194  48.018   7.922  1.00  0.00    -0.197 OA
BRANCH   7  10
HETATM   10  O9  UNL     1      22.710  49.570   5.943  1.00  0.00    -0.232 OA
BRANCH  10  11
HETATM   11  C10 UNL     1      23.267  50.790   6.283  1.00  0.00     0.089 A 
HETATM   12  C11 UNL     1      23.902  51.005   7.497  1.00  0.00     0.038 A 
HETATM   13  C12 UNL     1      24.456  52.229   7.833  1.00  0.00     0.003 A 
HETATM   14  C13 UNL     1      24.390  53.286   6.948  1.00  0.00     0.000 A 
HETATM   15  C14 UNL     1      23.759  53.079   5.736  1.00  0.00     0.003 A 
HETATM   16  C15 UNL     1      23.204  51.860   5.398  1.00  0.00     0.038 A 
ENDBRANCH  10  11
ENDBRANCH   7  10
ENDBRANCH   2   7
ENDBRANCH   1   2
BRANCH   1  17
HETATM   17  O3  UNL     1      21.314  44.605   6.350  1.00  0.00    -0.391 OA
ATOM     18  H3  UNL     1      20.739  44.284   7.034  1.00  0.00     0.210 HD
ENDBRANCH   1  17
BRANCH   1  19
HETATM   19  C5  UNL     1      23.461  44.996   7.300  1.00  0.00     0.212 C 
BRANCH  19  20
HETATM   20  O4  UNL     1      23.852  43.875   6.575  1.00  0.00    -0.388 OA
ATOM     21  H4  UNL     1      24.345  43.256   7.102  1.00  0.00     0.210 HD
ENDBRANCH  19  20
BRANCH  19  22
HETATM   22  C6  UNL     1      23.267  44.526   8.750  1.00  0.00     0.255 C 
HETATM   23  C7  UNL     1      23.835  43.143   8.942  1.00  0.00     0.105 C 
HETATM   24  C8  UNL     1      22.861  42.535   9.930  1.00  0.00     0.148 C 
HETATM   25  C9  UNL     1      21.538  43.118   9.418  1.00  0.00     0.267 C 
HETATM   26  N1  UNL     1      21.866  44.471   9.028  1.00  0.00    -0.038 N 
ATOM     27  H12 UNL     1      21.574  45.162   9.719  1.00  0.00     0.281 HD
ATOM     28  H11 UNL     1      21.296  44.805   8.251  1.00  0.00     0.281 HD
BRANCH  22  29
HETATM   29  O5  UNL     1      23.900  45.375   9.642  1.00  0.00    -0.363 OA
ATOM     30  H5  UNL     1      23.354  45.547  10.400  1.00  0.00     0.212 HD
ENDBRANCH  22  29
BRANCH  24  31
HETATM   31  O6  UNL     1      23.101  42.914  11.232  1.00  0.00    -0.394 OA
ATOM     32  H6  UNL     1      22.306  43.077  11.726  1.00  0.00     0.210 HD
ENDBRANCH  24  31
ENDBRANCH  19  22
ENDBRANCH   1  19
TORSDOF 12
ENDMDL
MODEL 3
REMARK VINA RESULT: -8.529996323      3.211      5.796
REMARK  12 active torsions:
REMARK  status: ('A' for Active; 'I' for Inactive)
REMARK    1  A    between atoms: O1_2  and  C2_3 
REMARK    2  A    between atoms: C2_3  and  C3_5 
REMARK    3  A    between atoms: C3_5  and  C4_6 
REMARK    4  A    between atoms: C3_5  and  S1_23 
REMARK    5  A    between atoms: C4_6  and  O3_7 
REMARK    6  A    between atoms: C4_6  and  C5_9 
REMARK    7  A    between atoms: C5_9  and  O4_10 
REMARK    8  A    between atoms: C5_9  and  C6_12 
REMARK    9  A    between atoms: C6_12  and  O5_13 
REMARK   10  A    between atoms: C8_16  and  O6_17 
REMARK   11  A    between atoms: S1_23  and  O9_26 
REMARK   12  A    between atoms: O9_26  and  C10_27 
ROOT
HETATM    1  C4  UNL     1      23.247  46.080   6.157  1.00  0.00     0.182 C 
ENDROOT
BRANCH   1   2
HETATM    2  C3  UNL     1      22.719  47.374   5.668  1.00  0.00     0.267 C 
BRANCH   2   3
HETATM    3  C2  UNL     1      21.258  47.558   5.765  1.00  0.00     0.282 C 
HETATM    4  O2  UNL     1      20.710  47.623   6.901  1.00  0.00    -0.264 OA
BRANCH   3   5
HETATM    5  O1  UNL     1      20.428  47.664   4.664  1.00  0.00    -0.325 OA
HETATM    6  C1  UNL     1      20.353  48.819   3.846  1.00  0.00     0.213 C 
ENDBRANCH   3   5
ENDBRANCH   2   3
BRANCH   2   7
HETATM    7  S1  UNL     1      23.482  48.809   6.385  1.00  0.00     0.286 S 
HETATM    8  O7  UNL     1      24.946  48.902   6.092  1.00  0.00    -0.197 OA
HETATM    9  O8  UNL     1      23.408  48.572   7.897  1.00  0.00    -0.197 OA
BRANCH   7  10
HETATM   10  O9  UNL     1      22.624  50.225   6.103  1.00  0.00    -0.232 OA
BRANCH  10  11
HETATM   11  C10 UNL     1      23.171  51.495   6.101  1.00  0.00     0.089 A 
HETATM   12  C11 UNL     1      23.196  52.293   4.966  1.00  0.00     0.038 A 
HETATM   13  C12 UNL     1      23.746  53.563   4.970  1.00  0.00     0.003 A 
HETATM   14  C13 UNL     1      24.294  54.078   6.128  1.00  0.00     0.000 A 
HETATM   15  C14 UNL     1      24.274  53.289   7.262  1.00  0.00     0.003 A 
HETATM   16  C15 UNL     1      23.726  52.021   7.262  1.00  0.00     0.038 A 
ENDBRANCH  10  11
ENDBRANCH   7  10
ENDBRANCH   2   7
ENDBRANCH   1   2
BRANCH   1  17
HETATM   17  O3  UNL     1      24.591  46.127   6.514  1.00  0.00    -0.391 OA
ATOM     18  H3  UNL     1      24.733  46.213   7.449  1.00  0.00     0.210 HD
ENDBRANCH   1  17
BRANCH   1  19
HETATM   19  C5  UNL     1      22.440  45.396   7.223  1.00  0.00     0.212 C 
BRANCH  19  20
HETATM   20  O4  UNL     1      22.447  46.097   8.425  1.00  0.00    -0.388 OA
ATOM     21  H4  UNL     1      21.592  46.452   8.642  1.00  0.00     0.210 HD
ENDBRANCH  19  20
BRANCH  19  22
HETATM   22  C6  UNL     1      23.034  44.012   7.527  1.00  0.00     0.255 C 
HETATM   23  C7  UNL     1      21.940  43.012   7.802  1.00  0.00     0.105 C 
HETATM   24  C8  UNL     1      22.570  42.139   8.868  1.00  0.00     0.148 C 
HETATM   25  C9  UNL     1      23.328  43.193   9.685  1.00  0.00     0.267 C 
HETATM   26  N1  UNL     1      23.847  44.112   8.698  1.00  0.00    -0.038 N 
ATOM     27  H12 UNL     1      24.838  43.964   8.504  1.00  0.00     0.281 HD
ATOM     28  H11 UNL     1      23.917  45.068   9.049  1.00  0.00     0.281 HD
BRANCH  22  29
HETATM   29  O5  UNL     1      23.783  43.542   6.462  1.00  0.00    -0.363 OA
ATOM     30  H5  UNL     1      24.213  42.723   6.678  1.00  0.00     0.212 HD
ENDBRANCH  22  29
BRANCH  24  31
HETATM   31  O6  UNL     1      23.432  41.194   8.355  1.00  0.00    -0.394 OA
ATOM     32  H6  UNL     1      23.173  40.879   7.497  1.00  0.00     0.210 HD
ENDBRANCH  24  31
ENDBRANCH  19  22
ENDBRANCH   1  19
TORSDOF 12
ENDMDL
MODEL 4
REMARK VINA RESULT: -8.438644304      3.135      5.311
REMARK  12 active torsions:
REMARK  status: ('A' for Active; 'I' for Inactive)
REMARK    1  A    between atoms: O1_2  and  C2_3 
REMARK    2  A    between atoms: C2_3  and  C3_5 
REMARK    3  A    between atoms: C3_5  and  C4_6 
REMARK    4  A    between atoms: C3_5  and  S1_23 
REMARK    5  A    between atoms: C4_6  and  O3_7 
REMARK    6  A    between atoms: C4_6  and  C5_9 
REMARK    7  A    between atoms: C5_9  and  O4_10 
REMARK    8  A    between atoms: C5_9  and  C6_12 
REMARK    9  A    between atoms: C6_12  and  O5_13 
REMARK   10  A    between atoms: C8_16  and  O6_17 
REMARK   11  A    between atoms: S1_23  and  O9_26 
REMARK   12  A    between atoms: O9_26  and  C10_27 
ROOT
HETATM    1  C4  UNL     1      22.285  45.466   6.730  1.00  0.00     0.182 C 
ENDROOT
BRANCH   1   2
HETATM    2  C3  UNL     1      22.506  46.540   5.735  1.00  0.00     0.267 C 
BRANCH   2   3
HETATM    3  C2  UNL     1      21.305  47.031   5.032  1.00  0.00     0.282 C 
HETATM    4  O2  UNL     1      21.256  46.984   3.771  1.00  0.00    -0.264 OA
BRANCH   3   5
HETATM    5  O1  UNL     1      20.203  47.556   5.680  1.00  0.00    -0.325 OA
HETATM    6  C1  UNL     1      18.914  47.640   5.096  1.00  0.00     0.213 C 
ENDBRANCH   3   5
ENDBRANCH   2   3
BRANCH   2   7
HETATM    7  S1  UNL     1      23.377  47.960   6.352  1.00  0.00     0.286 S 
HETATM    8  O7  UNL     1      24.841  47.928   6.046  1.00  0.00    -0.197 OA
HETATM    9  O8  UNL     1      23.302  47.828   7.876  1.00  0.00    -0.197 OA
BRANCH   7  10
HETATM   10  O9  UNL     1      22.620  49.412   5.981  1.00  0.00    -0.232 OA
BRANCH  10  11
HETATM   11  C10 UNL     1      23.172  50.666   6.175  1.00  0.00     0.089 A 
HETATM   12  C11 UNL     1      23.045  51.687   5.245  1.00  0.00     0.038 A 
HETATM   13  C12 UNL     1      23.601  52.939   5.444  1.00  0.00     0.003 A 
HETATM   14  C13 UNL     1      24.311  53.207   6.597  1.00  0.00     0.000 A 
HETATM   15  C14 UNL     1      24.443  52.194   7.528  1.00  0.00     0.003 A 
HETATM   16  C15 UNL     1      23.890  50.944   7.333  1.00  0.00     0.038 A 
ENDBRANCH  10  11
ENDBRANCH   7  10
ENDBRANCH   2   7
ENDBRANCH   1   2
BRANCH   1  17
HETATM   17  O3  UNL     1      21.278  44.575   6.373  1.00  0.00    -0.391 OA
ATOM     18  H3  UNL     1      21.397  43.704   6.733  1.00  0.00     0.210 HD
ENDBRANCH   1  17
BRANCH   1  19
HETATM   19  C5  UNL     1      23.509  44.727   7.188  1.00  0.00     0.212 C 
BRANCH  19  20
HETATM   20  O4  UNL     1      23.707  43.543   6.485  1.00  0.00    -0.388 OA
ATOM     21  H4  UNL     1      24.304  42.953   6.930  1.00  0.00     0.210 HD
ENDBRANCH  19  20
BRANCH  19  22
HETATM   22  C6  UNL     1      23.364  44.332   8.666  1.00  0.00     0.255 C 
HETATM   23  C7  UNL     1      23.754  42.891   8.873  1.00  0.00     0.105 C 
HETATM   24  C8  UNL     1      22.785  42.452   9.951  1.00  0.00     0.148 C 
HETATM   25  C9  UNL     1      21.518  43.195   9.510  1.00  0.00     0.267 C 
HETATM   26  N1  UNL     1      21.993  44.477   9.044  1.00  0.00    -0.038 N 
ATOM     27  H12 UNL     1      21.849  45.223   9.726  1.00  0.00     0.281 HD
ATOM     28  H11 UNL     1      21.416  44.863   8.296  1.00  0.00     0.281 HD
BRANCH  22  29
HETATM   29  O5  UNL     1      24.170  45.114   9.476  1.00  0.00    -0.363 OA
ATOM     30  H5  UNL     1      24.644  45.761   8.967  1.00  0.00     0.212 HD
ENDBRANCH  22  29
BRANCH  24  31
HETATM   31  O6  UNL     1      23.171  42.835  11.217  1.00  0.00    -0.394 OA
ATOM     32  H6  UNL     1      23.674  42.169  11.672  1.00  0.00     0.210 HD
ENDBRANCH  24  31
ENDBRANCH  19  22
ENDBRANCH   1  19
TORSDOF 12
ENDMDL
MODEL 5
REMARK VINA RESULT: -8.254513197      1.178      1.320
REMARK  12 active torsions:
REMARK  status: ('A' for Active; 'I' for Inactive)
REMARK    1  A    between atoms: O1_2  and  C2_3 
REMARK    2  A    between atoms: C2_3  and  C3_5 
REMARK    3  A    between atoms: C3_5  and  C4_6 
REMARK    4  A    between atoms: C3_5  and  S1_23 
REMARK    5  A    between atoms: C4_6  and  O3_7 
REMARK    6  A    between atoms: C4_6  and  C5_9 
REMARK    7  A    between atoms: C5_9  and  O4_10 
REMARK    8  A    between atoms: C5_9  and  C6_12 
REMARK    9  A    between atoms: C6_12  and  O5_13 
REMARK   10  A    between atoms: C8_16  and  O6_17 
REMARK   11  A    between atoms: S1_23  and  O9_26 
REMARK   12  A    between atoms: O9_26  and  C10_27 
ROOT
HETATM    1  C4  UNL     1      21.378  42.758   8.419  1.00  0.00     0.182 C 
ENDROOT
BRANCH   1   2
HETATM    2  C3  UNL     1      21.940  43.732   9.382  1.00  0.00     0.267 C 
BRANCH   2   3
HETATM    3  C2  UNL     1      22.799  43.174  10.444  1.00  0.00     0.282 C 
HETATM    4  O2  UNL     1      23.822  42.503  10.132  1.00  0.00    -0.264 OA
BRANCH   3   5
HETATM    5  O1  UNL     1      22.549  43.340  11.794  1.00  0.00    -0.325 OA
HETATM    6  C1  UNL     1      21.895  42.372  12.597  1.00  0.00     0.213 C 
ENDBRANCH   3   5
ENDBRANCH   2   3
BRANCH   2   7
HETATM    7  S1  UNL     1      22.823  45.086   8.643  1.00  0.00     0.286 S 
HETATM    8  O7  UNL     1      23.804  44.647   7.603  1.00  0.00    -0.197 OA
HETATM    9  O8  UNL     1      23.690  45.645   9.775  1.00  0.00    -0.197 OA
BRANCH   7  10
HETATM   10  O9  UNL     1      21.822  46.348   8.170  1.00  0.00    -0.232 OA
BRANCH  10  11
HETATM   11  C10 UNL     1      22.235  47.465   7.467  1.00  0.00     0.089 A 
HETATM   12  C11 UNL     1      23.255  48.292   7.915  1.00  0.00     0.038 A 
HETATM   13  C12 UNL     1      23.663  49.410   7.208  1.00  0.00     0.003 A 
HETATM   14  C13 UNL     1      23.053  49.735   6.013  1.00  0.00     0.000 A 
HETATM   15  C14 UNL     1      22.036  48.917   5.560  1.00  0.00     0.003 A 
HETATM   16  C15 UNL     1      21.626  47.801   6.263  1.00  0.00     0.038 A 
ENDBRANCH  10  11
ENDBRANCH   7  10
ENDBRANCH   2   7
ENDBRANCH   1   2
BRANCH   1  17
HETATM   17  O3  UNL     1      21.681  43.049   7.092  1.00  0.00    -0.391 OA
ATOM     18  H3  UNL     1      21.408  43.918   6.822  1.00  0.00     0.210 HD
ENDBRANCH   1  17
BRANCH   1  19
HETATM   19  C5  UNL     1      21.636  41.310   8.715  1.00  0.00     0.212 C 
BRANCH  19  20
HETATM   20  O4  UNL     1      22.516  40.731   7.806  1.00  0.00    -0.388 OA
ATOM     21  H4  UNL     1      22.421  41.090   6.931  1.00  0.00     0.210 HD
ENDBRANCH  19  20
BRANCH  19  22
HETATM   22  C6  UNL     1      20.328  40.510   8.618  1.00  0.00     0.255 C 
HETATM   23  C7  UNL     1      19.686  40.371   9.975  1.00  0.00     0.105 C 
HETATM   24  C8  UNL     1      19.083  38.984   9.899  1.00  0.00     0.148 C 
HETATM   25  C9  UNL     1      20.176  38.243   9.119  1.00  0.00     0.267 C 
HETATM   26  N1  UNL     1      20.631  39.198   8.136  1.00  0.00    -0.038 N 
ATOM     27  H12 UNL     1      20.247  39.021   7.207  1.00  0.00     0.281 HD
ATOM     28  H11 UNL     1      21.617  39.082   7.901  1.00  0.00     0.281 HD
BRANCH  22  29
HETATM   29  O5  UNL     1      19.421  41.132   7.777  1.00  0.00    -0.363 OA
ATOM     30  H5  UNL     1      19.398  42.070   7.929  1.00  0.00     0.212 HD
ENDBRANCH  22  29
BRANCH  24  31
HETATM   31  O6  UNL     1      17.882  38.951   9.225  1.00  0.00    -0.394 OA
ATOM     32  H6  UNL     1      17.128  39.008   9.801  1.00  0.00     0.210 HD
ENDBRANCH  24  31
ENDBRANCH  19  22
ENDBRANCH   1  19
TORSDOF 12
ENDMDL
