MODEL 1
REMARK VINA RESULT: -9.533412154      0.000      0.000
REMARK  10 active torsions:
REMARK  status: ('A' for Active; 'I' for Inactive)
REMARK    1  A    between atoms: C7_12  and  N4_13 
REMARK    2  A    between atoms: N4_13  and  N5_15 
REMARK    3  A    between atoms: N5_15  and  C8_17 
REMARK    4  A    between atoms: C8_17  and  C9_18 
REMARK    5  A    between atoms: C9_18  and  C10_19 
REMARK    6  A    between atoms: C10_19  and  N6_20 
REMARK    7  A    between atoms: N6_20  and  C11_22 
REMARK    8  A    between atoms: C12_25  and  O1_26 
REMARK    9  A    between atoms: O1_26  and  C13_27 
REMARK   10  A    between atoms: N9_34  and  N10_35 
ROOT
HETATM    1  N6  UNL     1      23.829  44.167   9.414  1.00  0.00    -0.225 N 
ATOM      2  H6  UNL     1      24.804  44.128   9.709  1.00  0.00     0.177 HD
ENDROOT
BRANCH   1   3
HETATM    3  C10 UNL     1      23.393  45.071   8.374  1.00  0.00     0.140 C 
BRANCH   3   4
HETATM    4  C9  UNL     1      24.147  44.693   7.114  1.00  0.00     0.041 C 
BRANCH   4   5
HETATM    5  C8  UNL     1      24.255  45.950   6.249  1.00  0.00     0.141 C 
BRANCH   5   6
HETATM    6  N5  UNL     1      22.937  46.141   5.658  1.00  0.00    -0.335 N 
ATOM      7  H5  UNL     1      22.623  45.516   4.917  1.00  0.00     0.180 HD
BRANCH   6   8
HETATM    8  N4  UNL     1      22.115  47.146   6.083  1.00  0.00    -0.289 N 
ATOM      9  H4  UNL     1      21.513  46.909   6.872  1.00  0.00     0.188 HD
BRANCH   8  10
HETATM   10  C7  UNL     1      21.987  48.332   5.646  1.00  0.00     0.130 A 
HETATM   11  C4  UNL     1      22.806  49.383   5.981  1.00  0.00     0.033 A 
HETATM   12  C3  UNL     1      23.972  49.495   6.858  1.00  0.00     0.066 C 
HETATM   13  C5  UNL     1      22.593  50.660   5.443  1.00  0.00     0.114 A 
HETATM   14  C2  UNL     1      24.014  50.966   7.207  1.00  0.00     0.129 C 
HETATM   15  N1  UNL     1      23.584  51.560   5.958  1.00  0.00    -0.371 N 
HETATM   16  C1  UNL     1      24.028  52.772   5.345  1.00  0.00     0.151 C 
HETATM   17  N2  UNL     1      21.574  50.833   4.595  1.00  0.00    -0.338 N 
HETATM   18  C6  UNL     1      20.773  49.798   4.269  1.00  0.00     0.183 A 
ATOM     19  H2  UNL     1      21.401  51.754   4.191  1.00  0.00     0.168 HD
HETATM   20  N3  UNL     1      20.981  48.572   4.789  1.00  0.00    -0.337 N 
ATOM     21  H3  UNL     1      20.359  47.807   4.526  1.00  0.00     0.168 HD
ENDBRANCH   8  10
ENDBRANCH   6   8
ENDBRANCH   5   6
ENDBRANCH   4   5
ENDBRANCH   3   4
ENDBRANCH   1   3
BRANCH   1  22
HETATM   22  C11 UNL     1      22.921  43.401   9.962  1.00  0.00     0.697 A 
HETATM   23  N7  UNL     1      22.739  43.183  11.274  1.00  0.00    -0.151 N 
HETATM   24  C12 UNL     1      21.709  42.336  11.445  1.00  0.00     0.276 A 
ATOM     25  H7  UNL     1      23.294  43.595  12.023  1.00  0.00     0.188 HD
HETATM   26  N9  UNL     1      21.264  42.042  10.190  1.00  0.00    -0.147 N 
HETATM   27  N11 UNL     1      22.002  42.689   9.309  1.00  0.00    -0.108 N 
ATOM     28  H11 UNL     1      21.889  42.651   8.295  1.00  0.00     0.208 HD
BRANCH  24  29
HETATM   29  O1  UNL     1      21.187  41.849  12.635  1.00  0.00    -0.312 OA
BRANCH  29  30
HETATM   30  C13 UNL     1      21.865  42.159  13.835  1.00  0.00     0.159 C 
HETATM   31  C14 UNL     1      20.884  42.937  14.718  1.00  0.00     0.061 C 
HETATM   32  C15 UNL     1      21.146  42.350  16.075  1.00  0.00     0.235 C 
HETATM   33  N8  UNL     1      21.457  40.941  15.834  1.00  0.00    -0.073 N 
HETATM   34  C16 UNL     1      22.219  40.911  14.613  1.00  0.00     0.264 C 
ATOM     35  H82 UNL     1      21.925  40.485  16.618  1.00  0.00     0.277 HD
ATOM     36  H81 UNL     1      20.634  40.339  15.815  1.00  0.00     0.277 HD
ENDBRANCH  29  30
ENDBRANCH  24  29
BRANCH  26  37
HETATM   37  N10 UNL     1      20.203  41.194   9.917  1.00  0.00    -0.320 N 
ATOM     38 2H10 UNL     1      20.256  40.275   9.476  1.00  0.00     0.179 HD
ATOM     39 1H10 UNL     1      19.228  41.404  10.134  1.00  0.00     0.179 HD
ENDBRANCH  26  37
ENDBRANCH   1  22
TORSDOF 10
ENDMDL
MODEL 2
REMARK VINA RESULT: -9.525106034      2.277      3.315
REMARK  10 active torsions:
REMARK  status: ('A' for Active; 'I' for Inactive)
REMARK    1  A    between atoms: C7_12  and  N4_13 
REMARK    2  A    between atoms: N4_13  and  N5_15 
REMARK    3  A    between atoms: N5_15  and  C8_17 
REMARK    4  A    between atoms: C8_17  and  C9_18 
REMARK    5  A    between atoms: C9_18  and  C10_19 
REMARK    6  A    between atoms: C10_19  and  N6_20 
REMARK    7  A    between atoms: N6_20  and  C11_22 
REMARK    8  A    between atoms: C12_25  and  O1_26 
REMARK    9  A    between atoms: O1_26  and  C13_27 
REMARK   10  A    between atoms: N9_34  and  N10_35 
ROOT
HETATM    1  N6  UNL     1      24.048  44.238   8.459  1.00  0.00    -0.225 N 
ATOM      2  H6  UNL     1      24.934  44.585   8.825  1.00  0.00     0.177 HD
ENDROOT
BRANCH   1   3
HETATM    3  C10 UNL     1      23.667  44.453   7.081  1.00  0.00     0.140 C 
BRANCH   3   4
HETATM    4  C9  UNL     1      24.796  45.225   6.425  1.00  0.00     0.041 C 
BRANCH   4   5
HETATM    5  C8  UNL     1      24.173  46.410   5.685  1.00  0.00     0.141 C 
BRANCH   5   6
HETATM    6  N5  UNL     1      22.739  46.319   5.926  1.00  0.00    -0.335 N 
ATOM      7  H5  UNL     1      22.263  45.427   5.797  1.00  0.00     0.180 HD
BRANCH   6   8
HETATM    8  N4  UNL     1      22.021  47.412   6.321  1.00  0.00    -0.289 N 
ATOM      9  H4  UNL     1      21.471  47.284   7.171  1.00  0.00     0.188 HD
BRANCH   8  10
HETATM   10  C7  UNL     1      21.935  48.564   5.792  1.00  0.00     0.130 A 
HETATM   11  C4  UNL     1      22.776  49.616   6.065  1.00  0.00     0.033 A 
HETATM   12  C3  UNL     1      23.925  49.765   6.958  1.00  0.00     0.066 C 
HETATM   13  C5  UNL     1      22.609  50.853   5.427  1.00  0.00     0.114 A 
HETATM   14  C2  UNL     1      24.000  51.256   7.195  1.00  0.00     0.129 C 
HETATM   15  N1  UNL     1      23.614  51.764   5.894  1.00  0.00    -0.371 N 
HETATM   16  C1  UNL     1      24.103  52.914   5.201  1.00  0.00     0.151 C 
HETATM   17  N2  UNL     1      21.613  50.986   4.544  1.00  0.00    -0.338 N 
HETATM   18  C6  UNL     1      20.791  49.951   4.280  1.00  0.00     0.183 A 
ATOM     19  H2  UNL     1      21.474  51.878   4.068  1.00  0.00     0.168 HD
HETATM   20  N3  UNL     1      20.954  48.763   4.897  1.00  0.00    -0.337 N 
ATOM     21  H3  UNL     1      20.317  47.997   4.678  1.00  0.00     0.168 HD
ENDBRANCH   8  10
ENDBRANCH   6   8
ENDBRANCH   5   6
ENDBRANCH   4   5
ENDBRANCH   3   4
ENDBRANCH   1   3
BRANCH   1  22
HETATM   22  C11 UNL     1      23.209  43.580   9.217  1.00  0.00     0.697 A 
HETATM   23  N7  UNL     1      22.147  42.867   8.810  1.00  0.00    -0.151 N 
HETATM   24  C12 UNL     1      21.530  42.339   9.880  1.00  0.00     0.276 A 
ATOM     25  H7  UNL     1      21.856  42.745   7.841  1.00  0.00     0.188 HD
HETATM   26  N9  UNL     1      22.251  42.753  10.961  1.00  0.00    -0.147 N 
HETATM   27  N11 UNL     1      23.258  43.498  10.547  1.00  0.00    -0.108 N 
ATOM     28  H11 UNL     1      23.957  43.939  11.145  1.00  0.00     0.208 HD
BRANCH  24  29
HETATM   29  O1  UNL     1      20.397  41.537   9.909  1.00  0.00    -0.312 OA
BRANCH  29  30
HETATM   30  C13 UNL     1      20.422  40.325   9.186  1.00  0.00     0.159 C 
HETATM   31  C14 UNL     1      19.399  39.390   9.837  1.00  0.00     0.061 C 
HETATM   32  C15 UNL     1      18.749  38.750   8.644  1.00  0.00     0.235 C 
HETATM   33  N8  UNL     1      18.721  39.790   7.615  1.00  0.00    -0.073 N 
HETATM   34  C16 UNL     1      19.954  40.518   7.759  1.00  0.00     0.264 C 
ATOM     35  H82 UNL     1      18.569  39.428   6.673  1.00  0.00     0.277 HD
ATOM     36  H81 UNL     1      17.891  40.381   7.655  1.00  0.00     0.277 HD
ENDBRANCH  29  30
ENDBRANCH  24  29
BRANCH  26  37
HETATM   37  N10 UNL     1      21.949  42.426  12.273  1.00  0.00    -0.320 N 
ATOM     38 2H10 UNL     1      21.182  41.834  12.592  1.00  0.00     0.179 HD
ATOM     39 1H10 UNL     1      22.478  42.752  13.083  1.00  0.00     0.179 HD
ENDBRANCH  26  37
ENDBRANCH   1  22
TORSDOF 10
ENDMDL
MODEL 3
REMARK VINA RESULT: -9.492743237      2.723      3.696
REMARK  10 active torsions:
REMARK  status: ('A' for Active; 'I' for Inactive)
REMARK    1  A    between atoms: C7_12  and  N4_13 
REMARK    2  A    between atoms: N4_13  and  N5_15 
REMARK    3  A    between atoms: N5_15  and  C8_17 
REMARK    4  A    between atoms: C8_17  and  C9_18 
REMARK    5  A    between atoms: C9_18  and  C10_19 
REMARK    6  A    between atoms: C10_19  and  N6_20 
REMARK    7  A    between atoms: N6_20  and  C11_22 
REMARK    8  A    between atoms: C12_25  and  O1_26 
REMARK    9  A    between atoms: O1_26  and  C13_27 
REMARK   10  A    between atoms: N9_34  and  N10_35 
ROOT
HETATM    1  N6  UNL     1      23.370  43.678   6.960  1.00  0.00    -0.225 N 
ATOM      2  H6  UNL     1      23.521  43.131   6.112  1.00  0.00     0.177 HD
ENDROOT
BRANCH   1   3
HETATM    3  C10 UNL     1      23.809  45.052   7.055  1.00  0.00     0.140 C 
BRANCH   3   4
HETATM    4  C9  UNL     1      22.610  45.924   6.734  1.00  0.00     0.041 C 
BRANCH   4   5
HETATM    5  C8  UNL     1      22.228  46.669   8.014  1.00  0.00     0.141 C 
BRANCH   5   6
HETATM    6  N5  UNL     1      22.816  47.996   7.892  1.00  0.00    -0.335 N 
ATOM      7  H5  UNL     1      22.917  48.580   8.722  1.00  0.00     0.180 HD
BRANCH   6   8
HETATM    8  N4  UNL     1      23.233  48.471   6.681  1.00  0.00    -0.289 N 
ATOM      9  H4  UNL     1      23.970  47.925   6.232  1.00  0.00     0.188 HD
BRANCH   8  10
HETATM   10  C7  UNL     1      22.845  49.490   6.028  1.00  0.00     0.130 A 
HETATM   11  C4  UNL     1      23.433  50.730   6.090  1.00  0.00     0.033 A 
HETATM   12  C3  UNL     1      24.575  51.253   6.841  1.00  0.00     0.066 C 
HETATM   13  C5  UNL     1      22.940  51.798   5.327  1.00  0.00     0.114 A 
HETATM   14  C2  UNL     1      24.315  52.742   6.889  1.00  0.00     0.129 C 
HETATM   15  N1  UNL     1      23.734  52.965   5.581  1.00  0.00    -0.371 N 
HETATM   16  C1  UNL     1      23.893  54.087   4.710  1.00  0.00     0.151 C 
HETATM   17  N2  UNL     1      21.883  51.582   4.537  1.00  0.00    -0.338 N 
HETATM   18  C6  UNL     1      21.309  50.363   4.481  1.00  0.00     0.183 A 
ATOM     19  H2  UNL     1      21.508  52.345   3.973  1.00  0.00     0.168 HD
HETATM   20  N3  UNL     1      21.786  49.339   5.216  1.00  0.00    -0.337 N 
ATOM     21  H3  UNL     1      21.332  48.428   5.155  1.00  0.00     0.168 HD
ENDBRANCH   8  10
ENDBRANCH   6   8
ENDBRANCH   5   6
ENDBRANCH   4   5
ENDBRANCH   3   4
ENDBRANCH   1   3
BRANCH   1  22
HETATM   22  C11 UNL     1      22.772  43.166   8.004  1.00  0.00     0.697 A 
HETATM   23  N7  UNL     1      21.742  42.304   7.998  1.00  0.00    -0.151 N 
HETATM   24  C12 UNL     1      21.404  42.008   9.264  1.00  0.00     0.276 A 
ATOM     25  H7  UNL     1      21.289  41.933   7.163  1.00  0.00     0.188 HD
HETATM   26  N9  UNL     1      22.263  42.718  10.050  1.00  0.00    -0.147 N 
HETATM   27  N11 UNL     1      23.080  43.409   9.278  1.00  0.00    -0.108 N 
ATOM     28  H11 UNL     1      23.824  44.028   9.603  1.00  0.00     0.208 HD
BRANCH  24  29
HETATM   29  O1  UNL     1      20.397  41.160   9.707  1.00  0.00    -0.312 OA
BRANCH  29  30
HETATM   30  C13 UNL     1      20.184  39.956   9.003  1.00  0.00     0.159 C 
HETATM   31  C14 UNL     1      19.058  39.206   9.721  1.00  0.00     0.061 C 
HETATM   32  C15 UNL     1      18.249  38.674   8.573  1.00  0.00     0.235 C 
HETATM   33  N8  UNL     1      18.337  39.696   7.530  1.00  0.00    -0.073 N 
HETATM   34  C16 UNL     1      19.679  40.212   7.600  1.00  0.00     0.264 C 
ATOM     35  H82 UNL     1      18.078  39.358   6.603  1.00  0.00     0.277 HD
ATOM     36  H81 UNL     1      17.619  40.417   7.604  1.00  0.00     0.277 HD
ENDBRANCH  29  30
ENDBRANCH  24  29
BRANCH  26  37
HETATM   37  N10 UNL     1      22.254  42.695  11.435  1.00  0.00    -0.320 N 
ATOM     38 2H10 UNL     1      21.432  42.679  12.038  1.00  0.00     0.179 HD
ATOM     39 1H10 UNL     1      23.094  42.693  12.015  1.00  0.00     0.179 HD
ENDBRANCH  26  37
ENDBRANCH   1  22
TORSDOF 10
ENDMDL
MODEL 4
REMARK VINA RESULT: -9.397719664      2.741      3.419
REMARK  10 active torsions:
REMARK  status: ('A' for Active; 'I' for Inactive)
REMARK    1  A    between atoms: C7_12  and  N4_13 
REMARK    2  A    between atoms: N4_13  and  N5_15 
REMARK    3  A    between atoms: N5_15  and  C8_17 
REMARK    4  A    between atoms: C8_17  and  C9_18 
REMARK    5  A    between atoms: C9_18  and  C10_19 
REMARK    6  A    between atoms: C10_19  and  N6_20 
REMARK    7  A    between atoms: N6_20  and  C11_22 
REMARK    8  A    between atoms: C12_25  and  O1_26 
REMARK    9  A    between atoms: O1_26  and  C13_27 
REMARK   10  A    between atoms: N9_34  and  N10_35 
ROOT
HETATM    1  N6  UNL     1      24.341  45.292   7.915  1.00  0.00    -0.225 N 
ATOM      2  H6  UNL     1      24.619  46.150   8.390  1.00  0.00     0.177 HD
ENDROOT
BRANCH   1   3
HETATM    3  C10 UNL     1      24.537  45.122   6.493  1.00  0.00     0.140 C 
BRANCH   3   4
HETATM    4  C9  UNL     1      23.979  46.360   5.818  1.00  0.00     0.041 C 
BRANCH   4   5
HETATM    5  C8  UNL     1      22.454  46.292   5.925  1.00  0.00     0.141 C 
BRANCH   5   6
HETATM    6  N5  UNL     1      22.059  47.454   6.711  1.00  0.00    -0.335 N 
ATOM      7  H5  UNL     1      21.229  47.404   7.300  1.00  0.00     0.180 HD
BRANCH   6   8
HETATM    8  N4  UNL     1      22.785  48.610   6.670  1.00  0.00    -0.289 N 
ATOM      9  H4  UNL     1      23.615  48.621   7.264  1.00  0.00     0.188 HD
BRANCH   8  10
HETATM   10  C7  UNL     1      22.585  49.674   6.005  1.00  0.00     0.130 A 
HETATM   11  C4  UNL     1      23.306  50.835   6.148  1.00  0.00     0.033 A 
HETATM   12  C3  UNL     1      24.423  51.211   7.016  1.00  0.00     0.066 C 
HETATM   13  C5  UNL     1      23.019  51.960   5.364  1.00  0.00     0.114 A 
HETATM   14  C2  UNL     1      24.337  52.720   7.069  1.00  0.00     0.129 C 
HETATM   15  N1  UNL     1      23.915  53.023   5.717  1.00  0.00    -0.371 N 
HETATM   16  C1  UNL     1      24.289  54.126   4.889  1.00  0.00     0.151 C 
HETATM   17  N2  UNL     1      22.025  51.880   4.472  1.00  0.00    -0.338 N 
HETATM   18  C6  UNL     1      21.320  50.738   4.336  1.00  0.00     0.183 A 
ATOM     19  H2  UNL     1      21.799  52.688   3.891  1.00  0.00     0.168 HD
HETATM   20  N3  UNL     1      21.599  49.658   5.092  1.00  0.00    -0.337 N 
ATOM     21  H3  UNL     1      21.050  48.808   4.969  1.00  0.00     0.168 HD
ENDBRANCH   8  10
ENDBRANCH   6   8
ENDBRANCH   5   6
ENDBRANCH   4   5
ENDBRANCH   3   4
ENDBRANCH   1   3
BRANCH   1  22
HETATM   22  C11 UNL     1      23.792  44.299   8.567  1.00  0.00     0.697 A 
HETATM   23  N7  UNL     1      23.472  43.093   8.075  1.00  0.00    -0.151 N 
HETATM   24  C12 UNL     1      22.927  42.345   9.049  1.00  0.00     0.276 A 
ATOM     25  H7  UNL     1      23.620  42.791   7.112  1.00  0.00     0.188 HD
HETATM   26  N9  UNL     1      22.925  43.135  10.160  1.00  0.00    -0.147 N 
HETATM   27  N11 UNL     1      23.448  44.308   9.856  1.00  0.00    -0.108 N 
ATOM     28  H11 UNL     1      23.568  45.091  10.499  1.00  0.00     0.208 HD
BRANCH  24  29
HETATM   29  O1  UNL     1      22.459  41.040   8.970  1.00  0.00    -0.312 OA
BRANCH  29  30
HETATM   30  C13 UNL     1      21.167  40.829   8.440  1.00  0.00     0.159 C 
HETATM   31  C14 UNL     1      21.006  39.319   8.235  1.00  0.00     0.061 C 
HETATM   32  C15 UNL     1      19.597  39.085   8.700  1.00  0.00     0.235 C 
HETATM   33  N8  UNL     1      19.392  40.027   9.800  1.00  0.00    -0.073 N 
HETATM   34  C16 UNL     1      20.089  41.228   9.424  1.00  0.00     0.264 C 
ATOM     35  H82 UNL     1      18.409  40.181  10.028  1.00  0.00     0.277 HD
ATOM     36  H81 UNL     1      19.673  39.660  10.710  1.00  0.00     0.277 HD
ENDBRANCH  29  30
ENDBRANCH  24  29
BRANCH  26  37
HETATM   37  N10 UNL     1      22.442  42.741  11.397  1.00  0.00    -0.320 N 
ATOM     38 2H10 UNL     1      21.463  42.695  11.683  1.00  0.00     0.179 HD
ATOM     39 1H10 UNL     1      23.031  42.448  12.177  1.00  0.00     0.179 HD
ENDBRANCH  26  37
ENDBRANCH   1  22
TORSDOF 10
ENDMDL
MODEL 5
REMARK VINA RESULT: -9.395656387      3.144      4.767
REMARK  10 active torsions:
REMARK  status: ('A' for Active; 'I' for Inactive)
REMARK    1  A    between atoms: C7_12  and  N4_13 
REMARK    2  A    between atoms: N4_13  and  N5_15 
REMARK    3  A    between atoms: N5_15  and  C8_17 
REMARK    4  A    between atoms: C8_17  and  C9_18 
REMARK    5  A    between atoms: C9_18  and  C10_19 
REMARK    6  A    between atoms: C10_19  and  N6_20 
REMARK    7  A    between atoms: N6_20  and  C11_22 
REMARK    8  A    between atoms: C12_25  and  O1_26 
REMARK    9  A    between atoms: O1_26  and  C13_27 
REMARK   10  A    between atoms: N9_34  and  N10_35 
ROOT
HETATM    1  N6  UNL     1      24.060  45.352   6.209  1.00  0.00    -0.225 N 
ATOM      2  H6  UNL     1      24.835  45.179   5.568  1.00  0.00     0.177 HD
ENDROOT
BRANCH   1   3
HETATM    3  C10 UNL     1      23.255  46.548   6.110  1.00  0.00     0.140 C 
BRANCH   3   4
HETATM    4  C9  UNL     1      24.185  47.727   6.322  1.00  0.00     0.041 C 
BRANCH   4   5
HETATM    5  C8  UNL     1      23.464  48.722   7.232  1.00  0.00     0.141 C 
BRANCH   5   6
HETATM    6  N5  UNL     1      23.254  49.918   6.427  1.00  0.00    -0.335 N 
ATOM      7  H5  UNL     1      22.398  50.014   5.883  1.00  0.00     0.180 HD
BRANCH   6   8
HETATM    8  N4  UNL     1      24.188  50.914   6.392  1.00  0.00    -0.289 N 
ATOM      9  H4  UNL     1      24.975  50.747   5.763  1.00  0.00     0.188 HD
BRANCH   8  10
HETATM   10  C7  UNL     1      24.227  52.017   7.021  1.00  0.00     0.130 A 
HETATM   11  C4  UNL     1      24.207  53.257   6.430  1.00  0.00     0.033 A 
HETATM   12  C3  UNL     1      24.146  53.693   5.035  1.00  0.00     0.066 C 
HETATM   13  C5  UNL     1      24.246  54.423   7.207  1.00  0.00     0.114 A 
HETATM   14  C2  UNL     1      24.726  55.089   5.074  1.00  0.00     0.129 C 
HETATM   15  N1  UNL     1      24.215  55.567   6.342  1.00  0.00    -0.371 N 
HETATM   16  C1  UNL     1      23.769  56.880   6.690  1.00  0.00     0.151 C 
HETATM   17  N2  UNL     1      24.303  54.302   8.538  1.00  0.00    -0.338 N 
HETATM   18  C6  UNL     1      24.323  53.082   9.113  1.00  0.00     0.183 A 
ATOM     19  H2  UNL     1      24.332  55.138   9.122  1.00  0.00     0.168 HD
HETATM   20  N3  UNL     1      24.285  51.963   8.362  1.00  0.00    -0.337 N 
ATOM     21  H3  UNL     1      24.302  51.054   8.823  1.00  0.00     0.168 HD
ENDBRANCH   8  10
ENDBRANCH   6   8
ENDBRANCH   5   6
ENDBRANCH   4   5
ENDBRANCH   3   4
ENDBRANCH   1   3
BRANCH   1  22
HETATM   22  C11 UNL     1      23.756  44.500   7.154  1.00  0.00     0.697 A 
HETATM   23  N7  UNL     1      23.323  43.240   6.991  1.00  0.00    -0.151 N 
HETATM   24  C12 UNL     1      23.116  42.682   8.196  1.00  0.00     0.276 A 
ATOM     25  H7  UNL     1      23.175  42.778   6.094  1.00  0.00     0.188 HD
HETATM   26  N9  UNL     1      23.438  43.644   9.106  1.00  0.00    -0.147 N 
HETATM   27  N11 UNL     1      23.822  44.732   8.465  1.00  0.00    -0.108 N 
ATOM     28  H11 UNL     1      24.118  45.606   8.901  1.00  0.00     0.208 HD
BRANCH  24  29
HETATM   29  O1  UNL     1      22.671  41.398   8.482  1.00  0.00    -0.312 OA
BRANCH  29  30
HETATM   30  C13 UNL     1      21.322  41.086   8.205  1.00  0.00     0.159 C 
HETATM   31  C14 UNL     1      21.202  39.558   8.213  1.00  0.00     0.061 C 
HETATM   32  C15 UNL     1      19.900  39.346   8.931  1.00  0.00     0.235 C 
HETATM   33  N8  UNL     1      19.830  40.415   9.928  1.00  0.00    -0.073 N 
HETATM   34  C16 UNL     1      20.399  41.577   9.298  1.00  0.00     0.264 C 
ATOM     35  H82 UNL     1      18.891  40.570  10.296  1.00  0.00     0.277 HD
ATOM     36  H81 UNL     1      20.271  40.175  10.815  1.00  0.00     0.277 HD
ENDBRANCH  29  30
ENDBRANCH  24  29
BRANCH  26  37
HETATM   37  N10 UNL     1      23.365  43.476  10.479  1.00  0.00    -0.320 N 
ATOM     38 2H10 UNL     1      22.594  43.057  11.001  1.00  0.00     0.179 HD
ATOM     39 1H10 UNL     1      24.094  43.762  11.134  1.00  0.00     0.179 HD
ENDBRANCH  26  37
ENDBRANCH   1  22
TORSDOF 10
ENDMDL
