MODEL 1
REMARK VINA RESULT: -7.726579604      0.000      0.000
REMARK  10 active torsions:
REMARK  status: ('A' for Active; 'I' for Inactive)
REMARK    1  A    between atoms: O1_2  and  C2_3 
REMARK    2  A    between atoms: C2_3  and  C4_6 
REMARK    3  A    between atoms: C4_6  and  C6_9 
REMARK    4  A    between atoms: C6_9  and  N3_10 
REMARK    5  A    between atoms: C6_9  and  C12_21 
REMARK    6  A    between atoms: C7_12  and  C8_13 
REMARK    7  A    between atoms: C8_13  and  C9_15 
REMARK    8  A    between atoms: C9_15  and  C10_16 
REMARK    9  A    between atoms: C10_16  and  C11_18 
REMARK   10  A    between atoms: C13_22  and  O6_23 
ROOT
HETATM    1  C2  UNL     1      22.652  43.875   8.004  1.00  0.00     0.172 C 
HETATM    2  C3  UNL     1      23.108  43.529   9.376  1.00  0.00     0.126 C 
HETATM    3  N1  UNL     1      23.481  43.278  10.467  1.00  0.00    -0.189 NA
ENDROOT
BRANCH   1   4
HETATM    4  O1  UNL     1      21.795  42.888   7.562  1.00  0.00    -0.345 OA
HETATM    5  C1  UNL     1      21.504  41.692   8.223  1.00  0.00     0.211 C 
ENDBRANCH   1   4
BRANCH   1   6
HETATM    6  C4  UNL     1      23.099  44.955   7.492  1.00  0.00     0.116 C 
HETATM    7  C5  UNL     1      24.586  44.593   7.036  1.00  0.00     0.105 C 
HETATM    8  N2  UNL     1      25.670  44.271   6.668  1.00  0.00    -0.191 NA
BRANCH   6   9
HETATM    9  C6  UNL     1      22.796  46.173   6.855  1.00  0.00     0.076 C 
BRANCH   9  10
HETATM   10  N3  UNL     1      21.645  46.197   6.215  1.00  0.00    -0.360 N 
HETATM   11  C7  UNL     1      21.068  46.503   5.049  1.00  0.00     0.139 C 
ATOM     12  H3  UNL     1      20.922  45.854   6.847  1.00  0.00     0.165 HD
BRANCH  11  13
HETATM   13  C8  UNL     1      19.852  47.417   5.212  1.00  0.00     0.172 C 
HETATM   14  O2  UNL     1      18.782  46.877   4.934  1.00  0.00    -0.291 OA
BRANCH  13  15
HETATM   15  C9  UNL     1      19.897  48.807   5.649  1.00  0.00     0.175 C 
BRANCH  15  16
HETATM   16  C10 UNL     1      20.387  49.651   4.526  1.00  0.00     0.232 C 
HETATM   17  O3  UNL     1      20.115  49.395   3.319  1.00  0.00    -0.285 OA
BRANCH  16  18
HETATM   18  C11 UNL     1      21.220  50.835   4.773  1.00  0.00     0.247 C 
HETATM   19  O4  UNL     1      22.478  50.651   4.891  1.00  0.00    -0.642 OA
HETATM   20  O5  UNL     1      20.727  52.098   4.881  1.00  0.00    -0.642 OA
ENDBRANCH  16  18
ENDBRANCH  15  16
ENDBRANCH  13  15
ENDBRANCH  11  13
ENDBRANCH   9  10
BRANCH   9  21
HETATM   21  C12 UNL     1      23.401  47.499   6.879  1.00  0.00     0.111 A 
HETATM   22  C13 UNL     1      22.993  48.482   7.809  1.00  0.00     0.162 A 
HETATM   23  N4  UNL     1      23.523  49.729   7.839  1.00  0.00    -0.288 N 
HETATM   24  C14 UNL     1      24.477  50.066   6.963  1.00  0.00     0.329 A 
ATOM     25  H4  UNL     1      23.197  50.408   8.528  1.00  0.00     0.172 HD
HETATM   26  O7  UNL     1      24.987  51.224   6.972  1.00  0.00    -0.247 OA
HETATM   27  N5  UNL     1      24.920  49.196   6.054  1.00  0.00    -0.275 N 
HETATM   28  C15 UNL     1      24.371  47.921   6.030  1.00  0.00     0.266 A 
ATOM     29  H5  UNL     1      25.647  49.463   5.390  1.00  0.00     0.173 HD
HETATM   30  O8  UNL     1      24.832  47.162   5.169  1.00  0.00    -0.267 OA
BRANCH  22  31
HETATM   31  O6  UNL     1      22.016  48.128   8.719  1.00  0.00    -0.345 OA
ATOM     32  H6  UNL     1      21.339  48.768   8.902  1.00  0.00     0.219 HD
ENDBRANCH  22  31
ENDBRANCH   9  21
ENDBRANCH   6   9
ENDBRANCH   1   6
TORSDOF 10
ENDMDL
MODEL 2
REMARK VINA RESULT: -7.614013463      0.166      1.522
REMARK  10 active torsions:
REMARK  status: ('A' for Active; 'I' for Inactive)
REMARK    1  A    between atoms: O1_2  and  C2_3 
REMARK    2  A    between atoms: C2_3  and  C4_6 
REMARK    3  A    between atoms: C4_6  and  C6_9 
REMARK    4  A    between atoms: C6_9  and  N3_10 
REMARK    5  A    between atoms: C6_9  and  C12_21 
REMARK    6  A    between atoms: C7_12  and  C8_13 
REMARK    7  A    between atoms: C8_13  and  C9_15 
REMARK    8  A    between atoms: C9_15  and  C10_16 
REMARK    9  A    between atoms: C10_16  and  C11_18 
REMARK   10  A    between atoms: C13_22  and  O6_23 
ROOT
HETATM    1  C2  UNL     1      22.636  43.855   8.017  1.00  0.00     0.172 C 
HETATM    2  C3  UNL     1      23.072  43.532   9.401  1.00  0.00     0.126 C 
HETATM    3  N1  UNL     1      23.428  43.299  10.501  1.00  0.00    -0.189 NA
ENDROOT
BRANCH   1   4
HETATM    4  O1  UNL     1      21.807  42.847   7.569  1.00  0.00    -0.345 OA
HETATM    5  C1  UNL     1      21.481  41.678   8.261  1.00  0.00     0.211 C 
ENDBRANCH   1   4
BRANCH   1   6
HETATM    6  C4  UNL     1      23.072  44.939   7.503  1.00  0.00     0.116 C 
HETATM    7  C5  UNL     1      24.568  44.595   7.061  1.00  0.00     0.105 C 
HETATM    8  N2  UNL     1      25.659  44.288   6.704  1.00  0.00    -0.191 NA
BRANCH   6   9
HETATM    9  C6  UNL     1      22.757  46.149   6.857  1.00  0.00     0.076 C 
BRANCH   9  10
HETATM   10  N3  UNL     1      21.581  46.176   6.264  1.00  0.00    -0.360 N 
HETATM   11  C7  UNL     1      20.963  46.454   5.112  1.00  0.00     0.139 C 
ATOM     12  H3  UNL     1      20.879  45.868   6.935  1.00  0.00     0.165 HD
BRANCH  11  13
HETATM   13  C8  UNL     1      19.773  47.397   5.292  1.00  0.00     0.172 C 
HETATM   14  O2  UNL     1      18.684  46.879   5.048  1.00  0.00    -0.291 OA
BRANCH  13  15
HETATM   15  C9  UNL     1      19.860  48.792   5.711  1.00  0.00     0.175 C 
BRANCH  15  16
HETATM   16  C10 UNL     1      20.376  49.604   4.576  1.00  0.00     0.232 C 
HETATM   17  O3  UNL     1      20.131  49.317   3.371  1.00  0.00    -0.285 OA
BRANCH  16  18
HETATM   18  C11 UNL     1      21.208  50.793   4.810  1.00  0.00     0.247 C 
HETATM   19  O4  UNL     1      22.467  50.614   4.922  1.00  0.00    -0.642 OA
HETATM   20  O5  UNL     1      20.710  52.055   4.912  1.00  0.00    -0.642 OA
ENDBRANCH  16  18
ENDBRANCH  15  16
ENDBRANCH  13  15
ENDBRANCH  11  13
ENDBRANCH   9  10
BRANCH   9  21
HETATM   21  C12 UNL     1      23.377  47.468   6.833  1.00  0.00     0.111 A 
HETATM   22  C13 UNL     1      24.376  47.799   5.890  1.00  0.00     0.162 A 
HETATM   23  N4  UNL     1      24.984  49.010   5.859  1.00  0.00    -0.288 N 
HETATM   24  C14 UNL     1      24.638  49.949   6.747  1.00  0.00     0.329 A 
ATOM     25  H4  UNL     1      25.703  49.204   5.161  1.00  0.00     0.172 HD
HETATM   26  O7  UNL     1      25.192  51.087   6.738  1.00  0.00    -0.247 OA
HETATM   27  N5  UNL     1      23.702  49.718   7.669  1.00  0.00    -0.275 N 
HETATM   28  C15 UNL     1      23.084  48.474   7.693  1.00  0.00     0.266 A 
ATOM     29  H5  UNL     1      23.445  50.441   8.342  1.00  0.00     0.173 HD
HETATM   30  O8  UNL     1      22.221  48.329   8.566  1.00  0.00    -0.267 OA
BRANCH  22  31
HETATM   31  O6  UNL     1      24.724  46.831   4.968  1.00  0.00    -0.345 OA
ATOM     32  H6  UNL     1      24.765  45.932   5.272  1.00  0.00     0.219 HD
ENDBRANCH  22  31
ENDBRANCH   9  21
ENDBRANCH   6   9
ENDBRANCH   1   6
TORSDOF 10
ENDMDL
MODEL 3
REMARK VINA RESULT: -7.102886990      2.387      6.025
REMARK  10 active torsions:
REMARK  status: ('A' for Active; 'I' for Inactive)
REMARK    1  A    between atoms: O1_2  and  C2_3 
REMARK    2  A    between atoms: C2_3  and  C4_6 
REMARK    3  A    between atoms: C4_6  and  C6_9 
REMARK    4  A    between atoms: C6_9  and  N3_10 
REMARK    5  A    between atoms: C6_9  and  C12_21 
REMARK    6  A    between atoms: C7_12  and  C8_13 
REMARK    7  A    between atoms: C8_13  and  C9_15 
REMARK    8  A    between atoms: C9_15  and  C10_16 
REMARK    9  A    between atoms: C10_16  and  C11_18 
REMARK   10  A    between atoms: C13_22  and  O6_23 
ROOT
HETATM    1  C2  UNL     1      21.504  49.545   4.719  1.00  0.00     0.172 C 
HETATM    2  C3  UNL     1      20.293  49.282   3.898  1.00  0.00     0.126 C 
HETATM    3  N1  UNL     1      19.330  49.051   3.258  1.00  0.00    -0.189 NA
ENDROOT
BRANCH   1   4
HETATM    4  O1  UNL     1      21.882  50.860   4.540  1.00  0.00    -0.345 OA
HETATM    5  C1  UNL     1      21.155  51.987   4.933  1.00  0.00     0.211 C 
ENDBRANCH   1   4
BRANCH   1   6
HETATM    6  C4  UNL     1      21.966  48.576   5.409  1.00  0.00     0.116 C 
HETATM    7  C5  UNL     1      21.441  47.268   4.658  1.00  0.00     0.105 C 
HETATM    8  N2  UNL     1      21.070  46.319   4.046  1.00  0.00    -0.191 NA
BRANCH   6   9
HETATM    9  C6  UNL     1      22.967  48.126   6.292  1.00  0.00     0.076 C 
BRANCH   9  10
HETATM   10  N3  UNL     1      23.792  49.059   6.721  1.00  0.00    -0.360 N 
HETATM   11  C7  UNL     1      23.861  50.196   7.420  1.00  0.00     0.139 C 
ATOM     12  H3  UNL     1      24.731  48.826   6.400  1.00  0.00     0.165 HD
BRANCH  11  13
HETATM   13  C8  UNL     1      24.589  51.311   6.668  1.00  0.00     0.172 C 
HETATM   14  O2  UNL     1      25.722  51.004   6.298  1.00  0.00    -0.291 OA
BRANCH  13  15
HETATM   15  C9  UNL     1      24.042  52.633   6.386  1.00  0.00     0.175 C 
BRANCH  15  16
HETATM   16  C10 UNL     1      24.246  53.502   7.576  1.00  0.00     0.232 C 
HETATM   17  O3  UNL     1      24.397  53.033   8.739  1.00  0.00    -0.285 OA
BRANCH  16  18
HETATM   18  C11 UNL     1      24.280  54.966   7.451  1.00  0.00     0.247 C 
HETATM   19  O4  UNL     1      25.095  55.462   6.602  1.00  0.00    -0.642 OA
HETATM   20  O5  UNL     1      23.500  55.806   8.183  1.00  0.00    -0.642 OA
ENDBRANCH  16  18
ENDBRANCH  15  16
ENDBRANCH  13  15
ENDBRANCH  11  13
ENDBRANCH   9  10
BRANCH   9  21
HETATM   21  C12 UNL     1      23.205  46.867   6.986  1.00  0.00     0.111 A 
HETATM   22  C13 UNL     1      22.541  46.550   8.191  1.00  0.00     0.162 A 
HETATM   23  N4  UNL     1      22.760  45.396   8.869  1.00  0.00    -0.288 N 
HETATM   24  C14 UNL     1      23.636  44.503   8.392  1.00  0.00     0.329 A 
ATOM     25  H4  UNL     1      22.258  45.209   9.737  1.00  0.00     0.172 HD
HETATM   26  O7  UNL     1      23.856  43.419   9.007  1.00  0.00    -0.247 OA
HETATM   27  N5  UNL     1      24.303  44.725   7.259  1.00  0.00    -0.275 N 
HETATM   28  C15 UNL     1      24.073  45.910   6.572  1.00  0.00     0.266 A 
ATOM     29  H5  UNL     1      24.969  44.038   6.904  1.00  0.00     0.173 HD
HETATM   30  O8  UNL     1      24.717  46.049   5.526  1.00  0.00    -0.267 OA
BRANCH  22  31
HETATM   31  O6  UNL     1      21.630  47.468   8.676  1.00  0.00    -0.345 OA
ATOM     32  H6  UNL     1      21.617  47.617   9.614  1.00  0.00     0.219 HD
ENDBRANCH  22  31
ENDBRANCH   9  21
ENDBRANCH   6   9
ENDBRANCH   1   6
TORSDOF 10
ENDMDL
MODEL 4
REMARK VINA RESULT: -7.069688510      2.351      5.881
REMARK  10 active torsions:
REMARK  status: ('A' for Active; 'I' for Inactive)
REMARK    1  A    between atoms: O1_2  and  C2_3 
REMARK    2  A    between atoms: C2_3  and  C4_6 
REMARK    3  A    between atoms: C4_6  and  C6_9 
REMARK    4  A    between atoms: C6_9  and  N3_10 
REMARK    5  A    between atoms: C6_9  and  C12_21 
REMARK    6  A    between atoms: C7_12  and  C8_13 
REMARK    7  A    between atoms: C8_13  and  C9_15 
REMARK    8  A    between atoms: C9_15  and  C10_16 
REMARK    9  A    between atoms: C10_16  and  C11_18 
REMARK   10  A    between atoms: C13_22  and  O6_23 
ROOT
HETATM    1  C2  UNL     1      20.074  48.308   5.291  1.00  0.00     0.172 C 
HETATM    2  C3  UNL     1      19.418  48.552   3.979  1.00  0.00     0.126 C 
HETATM    3  N1  UNL     1      18.919  48.746   2.928  1.00  0.00    -0.189 NA
ENDROOT
BRANCH   1   4
HETATM    4  O1  UNL     1      19.103  47.999   6.221  1.00  0.00    -0.345 OA
HETATM    5  C1  UNL     1      17.880  47.376   5.959  1.00  0.00     0.211 C 
ENDBRANCH   1   4
BRANCH   1   6
HETATM    6  C4  UNL     1      21.345  48.419   5.340  1.00  0.00     0.116 C 
HETATM    7  C5  UNL     1      21.641  49.867   4.735  1.00  0.00     0.105 C 
HETATM    8  N2  UNL     1      21.817  50.969   4.324  1.00  0.00    -0.191 NA
BRANCH   6   9
HETATM    9  C6  UNL     1      22.542  48.020   5.965  1.00  0.00     0.076 C 
BRANCH   9  10
HETATM   10  N3  UNL     1      23.544  48.866   5.843  1.00  0.00    -0.360 N 
HETATM   11  C7  UNL     1      24.615  49.364   6.469  1.00  0.00     0.139 C 
ATOM     12  H3  UNL     1      23.478  49.307   4.926  1.00  0.00     0.165 HD
BRANCH  11  13
HETATM   13  C8  UNL     1      24.639  50.893   6.475  1.00  0.00     0.172 C 
HETATM   14  O2  UNL     1      25.683  51.376   6.038  1.00  0.00    -0.291 OA
BRANCH  13  15
HETATM   15  C9  UNL     1      23.556  51.750   6.944  1.00  0.00     0.175 C 
BRANCH  15  16
HETATM   16  C10 UNL     1      24.124  52.808   7.821  1.00  0.00     0.232 C 
HETATM   17  O3  UNL     1      24.584  52.560   8.971  1.00  0.00    -0.285 OA
BRANCH  16  18
HETATM   18  C11 UNL     1      24.177  54.210   7.383  1.00  0.00     0.247 C 
HETATM   19  O4  UNL     1      24.584  54.437   6.195  1.00  0.00    -0.642 OA
HETATM   20  O5  UNL     1      23.819  55.261   8.170  1.00  0.00    -0.642 OA
ENDBRANCH  16  18
ENDBRANCH  15  16
ENDBRANCH  13  15
ENDBRANCH  11  13
ENDBRANCH   9  10
BRANCH   9  21
HETATM   21  C12 UNL     1      22.887  46.938   6.879  1.00  0.00     0.111 A 
HETATM   22  C13 UNL     1      23.754  45.892   6.492  1.00  0.00     0.162 A 
HETATM   23  N4  UNL     1      24.075  44.863   7.313  1.00  0.00    -0.288 N 
HETATM   24  C14 UNL     1      23.564  44.816   8.549  1.00  0.00     0.329 A 
ATOM     25  H4  UNL     1      24.704  44.127   6.990  1.00  0.00     0.172 HD
HETATM   26  O7  UNL     1      23.850  43.865   9.334  1.00  0.00    -0.247 OA
HETATM   27  N5  UNL     1      22.740  45.766   8.993  1.00  0.00    -0.275 N 
HETATM   28  C15 UNL     1      22.416  46.816   8.144  1.00  0.00     0.266 A 
ATOM     29  H5  UNL     1      22.355  45.722   9.937  1.00  0.00     0.173 HD
HETATM   30  O8  UNL     1      21.655  47.666   8.621  1.00  0.00    -0.267 OA
BRANCH  22  31
HETATM   31  O6  UNL     1      24.288  45.947   5.219  1.00  0.00    -0.345 OA
ATOM     32  H6  UNL     1      25.129  45.528   5.080  1.00  0.00     0.219 HD
ENDBRANCH  22  31
ENDBRANCH   9  21
ENDBRANCH   6   9
ENDBRANCH   1   6
TORSDOF 10
ENDMDL
MODEL 5
REMARK VINA RESULT: -7.038256463      2.372      6.172
REMARK  10 active torsions:
REMARK  status: ('A' for Active; 'I' for Inactive)
REMARK    1  A    between atoms: O1_2  and  C2_3 
REMARK    2  A    between atoms: C2_3  and  C4_6 
REMARK    3  A    between atoms: C4_6  and  C6_9 
REMARK    4  A    between atoms: C6_9  and  N3_10 
REMARK    5  A    between atoms: C6_9  and  C12_21 
REMARK    6  A    between atoms: C7_12  and  C8_13 
REMARK    7  A    between atoms: C8_13  and  C9_15 
REMARK    8  A    between atoms: C9_15  and  C10_16 
REMARK    9  A    between atoms: C10_16  and  C11_18 
REMARK   10  A    between atoms: C13_22  and  O6_23 
ROOT
HETATM    1  C2  UNL     1      21.227  49.411   4.619  1.00  0.00     0.172 C 
HETATM    2  C3  UNL     1      21.168  50.892   4.749  1.00  0.00     0.126 C 
HETATM    3  N1  UNL     1      21.134  52.064   4.875  1.00  0.00    -0.189 NA
ENDROOT
BRANCH   1   4
HETATM    4  O1  UNL     1      20.751  49.059   3.373  1.00  0.00    -0.345 OA
HETATM    5  C1  UNL     1      19.440  48.682   3.067  1.00  0.00     0.211 C 
ENDBRANCH   1   4
BRANCH   1   6
HETATM    6  C4  UNL     1      21.677  48.753   5.615  1.00  0.00     0.116 C 
HETATM    7  C5  UNL     1      20.444  47.855   6.088  1.00  0.00     0.105 C 
HETATM    8  N2  UNL     1      19.518  47.170   6.381  1.00  0.00    -0.191 NA
BRANCH   6   9
HETATM    9  C6  UNL     1      22.806  48.211   6.259  1.00  0.00     0.076 C 
BRANCH   9  10
HETATM   10  N3  UNL     1      23.699  49.094   6.656  1.00  0.00    -0.360 N 
HETATM   11  C7  UNL     1      23.869  50.195   7.395  1.00  0.00     0.139 C 
ATOM     12  H3  UNL     1      24.598  48.845   6.246  1.00  0.00     0.165 HD
BRANCH  11  13
HETATM   13  C8  UNL     1      24.574  51.317   6.632  1.00  0.00     0.172 C 
HETATM   14  O2  UNL     1      25.713  51.031   6.265  1.00  0.00    -0.291 OA
BRANCH  13  15
HETATM   15  C9  UNL     1      23.999  52.625   6.339  1.00  0.00     0.175 C 
BRANCH  15  16
HETATM   16  C10 UNL     1      24.230  53.525   7.501  1.00  0.00     0.232 C 
HETATM   17  O3  UNL     1      24.410  53.086   8.671  1.00  0.00    -0.285 OA
BRANCH  16  18
HETATM   18  C11 UNL     1      24.258  54.985   7.337  1.00  0.00     0.247 C 
HETATM   19  O4  UNL     1      25.057  55.460   6.461  1.00  0.00    -0.642 OA
HETATM   20  O5  UNL     1      23.488  55.842   8.061  1.00  0.00    -0.642 OA
ENDBRANCH  16  18
ENDBRANCH  15  16
ENDBRANCH  13  15
ENDBRANCH  11  13
ENDBRANCH   9  10
BRANCH   9  21
HETATM   21  C12 UNL     1      23.144  46.880   6.746  1.00  0.00     0.111 A 
HETATM   22  C13 UNL     1      23.908  45.980   5.970  1.00  0.00     0.162 A 
HETATM   23  N4  UNL     1      24.219  44.729   6.389  1.00  0.00    -0.288 N 
HETATM   24  C14 UNL     1      23.798  44.307   7.587  1.00  0.00     0.329 A 
ATOM     25  H4  UNL     1      24.772  44.112   5.794  1.00  0.00     0.172 HD
HETATM   26  O7  UNL     1      24.075  43.144   8.000  1.00  0.00    -0.247 OA
HETATM   27  N5  UNL     1      23.073  45.096   8.383  1.00  0.00    -0.275 N 
HETATM   28  C15 UNL     1      22.759  46.376   7.945  1.00  0.00     0.266 A 
ATOM     29  H5  UNL     1      22.756  44.765   9.295  1.00  0.00     0.173 HD
HETATM   30  O8  UNL     1      22.093  47.056   8.733  1.00  0.00    -0.267 OA
BRANCH  22  31
HETATM   31  O6  UNL     1      24.351  46.421   4.738  1.00  0.00    -0.345 OA
ATOM     32  H6  UNL     1      24.370  45.790   4.029  1.00  0.00     0.219 HD
ENDBRANCH  22  31
ENDBRANCH   9  21
ENDBRANCH   6   9
ENDBRANCH   1   6
TORSDOF 10
ENDMDL
