MODEL 1
REMARK VINA RESULT: -9.288174181      0.000      0.000
REMARK  7 active torsions:
REMARK  status: ('A' for Active; 'I' for Inactive)
REMARK       I    between atoms: C1_4  and  N2_5 
REMARK       I    between atoms: C1_4  and  N7_27 
REMARK    1  A    between atoms: N2_5  and  C2_7 
REMARK    2  A    between atoms: C2_7  and  C3_8 
REMARK    3  A    between atoms: C3_8  and  C4_9 
REMARK    4  A    between atoms: C4_9  and  C5_10 
REMARK    5  A    between atoms: N5_20  and  C10_21 
REMARK    6  A    between atoms: C10_21  and  C11_22 
REMARK    7  A    between atoms: N7_27  and  N8_29 
ROOT
HETATM    1  C5  UNL     1      22.645  47.767   6.148  1.00  0.00     0.205 C 
HETATM    2  C6  UNL     1      21.501  47.449   7.031  1.00  0.00     0.242 C 
HETATM    3  O1  UNL     1      21.654  46.963   8.155  1.00  0.00    -0.271 OA
HETATM    4  N3  UNL     1      20.151  47.684   6.647  1.00  0.00    -0.358 N 
ATOM      5  H3  UNL     1      19.455  47.564   7.383  1.00  0.00     0.162 HD
HETATM    6  C7  UNL     1      19.633  48.071   5.349  1.00  0.00     0.144 C 
HETATM    7  C8  UNL     1      20.253  49.247   4.725  1.00  0.00     0.174 C 
HETATM    8  N4  UNL     1      21.515  49.701   5.171  1.00  0.00    -0.234 N 
HETATM    9  C9  UNL     1      21.859  51.014   4.999  1.00  0.00     0.347 A 
HETATM   10  O2  UNL     1      21.133  51.885   4.466  1.00  0.00    -0.245 OA
HETATM   11  N5  UNL     1      23.070  51.234   5.476  1.00  0.00    -0.248 N 
HETATM   12  C12 UNL     1      23.542  50.062   5.971  1.00  0.00     0.348 A 
HETATM   13  O3  UNL     1      24.688  49.893   6.516  1.00  0.00    -0.245 OA
HETATM   14  N6  UNL     1      22.582  49.166   5.771  1.00  0.00    -0.222 N 
ENDROOT
BRANCH   1  15
HETATM   15  C4  UNL     1      23.967  47.291   6.604  1.00  0.00     0.039 C 
BRANCH  15  16
HETATM   16  C3  UNL     1      24.395  45.976   5.994  1.00  0.00     0.023 C 
BRANCH  16  17
HETATM   17  C2  UNL     1      24.264  44.868   7.052  1.00  0.00     0.138 C 
BRANCH  17  18
HETATM   18  N2  UNL     1      23.002  44.201   6.892  1.00  0.00    -0.225 N 
HETATM   19  C1  UNL     1      22.298  43.705   8.016  1.00  0.00     0.691 C 
HETATM   20  N1  UNL     1      22.334  44.359   9.113  1.00  0.00    -0.233 N 
HETATM   21  N7  UNL     1      21.563  42.480   7.888  1.00  0.00    -0.072 N 
ATOM     22  H12 UNL     1      22.856  45.230   9.204  1.00  0.00     0.174 HD
ATOM     23  H11 UNL     1      21.827  44.002   9.923  1.00  0.00     0.174 HD
ATOM     24  H7  UNL     1      20.640  42.490   7.453  1.00  0.00     0.212 HD
ATOM     25  H2  UNL     1      22.609  44.084   5.958  1.00  0.00     0.177 HD
BRANCH  21  26
HETATM   26  N8  UNL     1      22.089  41.283   8.345  1.00  0.00    -0.024 N 
HETATM   27  O4  UNL     1      23.313  41.179   8.516  1.00  0.00    -0.516 OA
HETATM   28  O5  UNL     1      21.230  40.237   8.598  1.00  0.00    -0.516 OA
ENDBRANCH  21  26
ENDBRANCH  17  18
ENDBRANCH  16  17
ENDBRANCH  15  16
ENDBRANCH   1  15
BRANCH  11  29
HETATM   29  C10 UNL     1      23.867  52.446   5.526  1.00  0.00     0.150 C 
BRANCH  29  30
HETATM   30  C11 UNL     1      23.920  53.062   6.890  1.00  0.00     0.106 C 
HETATM   31  S1  UNL     1      24.361  54.816   6.778  1.00  0.00    -0.096 SA
ENDBRANCH  29  30
ENDBRANCH  11  29
TORSDOF 7
ENDMDL
MODEL 2
REMARK VINA RESULT: -8.788818201      1.018      1.206
REMARK  7 active torsions:
REMARK  status: ('A' for Active; 'I' for Inactive)
REMARK       I    between atoms: C1_4  and  N2_5 
REMARK       I    between atoms: C1_4  and  N7_27 
REMARK    1  A    between atoms: N2_5  and  C2_7 
REMARK    2  A    between atoms: C2_7  and  C3_8 
REMARK    3  A    between atoms: C3_8  and  C4_9 
REMARK    4  A    between atoms: C4_9  and  C5_10 
REMARK    5  A    between atoms: N5_20  and  C10_21 
REMARK    6  A    between atoms: C10_21  and  C11_22 
REMARK    7  A    between atoms: N7_27  and  N8_29 
ROOT
HETATM    1  C5  UNL     1      22.666  47.485   6.177  1.00  0.00     0.205 C 
HETATM    2  C6  UNL     1      21.519  47.209   7.070  1.00  0.00     0.242 C 
HETATM    3  O1  UNL     1      21.664  46.713   8.191  1.00  0.00    -0.271 OA
HETATM    4  N3  UNL     1      20.175  47.497   6.700  1.00  0.00    -0.358 N 
ATOM      5  H3  UNL     1      19.482  47.402   7.442  1.00  0.00     0.162 HD
HETATM    6  C7  UNL     1      19.661  47.909   5.408  1.00  0.00     0.144 C 
HETATM    7  C8  UNL     1      20.319  49.061   4.781  1.00  0.00     0.174 C 
HETATM    8  N4  UNL     1      21.602  49.465   5.216  1.00  0.00    -0.234 N 
HETATM    9  C9  UNL     1      21.995  50.764   5.044  1.00  0.00     0.347 A 
HETATM   10  O2  UNL     1      21.299  51.664   4.521  1.00  0.00    -0.245 OA
HETATM   11  N5  UNL     1      23.218  50.935   5.510  1.00  0.00    -0.248 N 
HETATM   12  C12 UNL     1      23.649  49.745   5.997  1.00  0.00     0.348 A 
HETATM   13  O3  UNL     1      24.793  49.529   6.530  1.00  0.00    -0.245 OA
HETATM   14  N6  UNL     1      22.653  48.887   5.804  1.00  0.00    -0.222 N 
ENDROOT
BRANCH   1  15
HETATM   15  C4  UNL     1      23.973  46.957   6.619  1.00  0.00     0.039 C 
BRANCH  15  16
HETATM   16  C3  UNL     1      24.172  45.486   6.335  1.00  0.00     0.023 C 
BRANCH  16  17
HETATM   17  C2  UNL     1      24.271  44.728   7.671  1.00  0.00     0.138 C 
BRANCH  17  18
HETATM   18  N2  UNL     1      23.814  43.380   7.490  1.00  0.00    -0.225 N 
HETATM   19  C1  UNL     1      22.432  43.073   7.527  1.00  0.00     0.691 C 
HETATM   20  N1  UNL     1      21.595  43.909   7.045  1.00  0.00    -0.233 N 
HETATM   21  N7  UNL     1      22.014  41.829   8.106  1.00  0.00    -0.072 N 
ATOM     22  H12 UNL     1      21.892  44.793   6.633  1.00  0.00     0.174 HD
ATOM     23  H11 UNL     1      20.599  43.688   7.072  1.00  0.00     0.174 HD
ATOM     24  H7  UNL     1      22.076  40.972   7.556  1.00  0.00     0.212 HD
ATOM     25  H2  UNL     1      24.492  42.634   7.332  1.00  0.00     0.177 HD
BRANCH  21  26
HETATM   26  N8  UNL     1      21.527  41.775   9.402  1.00  0.00    -0.024 N 
HETATM   27  O4  UNL     1      20.480  41.153   9.637  1.00  0.00    -0.516 OA
HETATM   28  O5  UNL     1      22.226  42.421  10.398  1.00  0.00    -0.516 OA
ENDBRANCH  21  26
ENDBRANCH  17  18
ENDBRANCH  16  17
ENDBRANCH  15  16
ENDBRANCH   1  15
BRANCH  11  29
HETATM   29  C10 UNL     1      24.062  52.115   5.556  1.00  0.00     0.150 C 
BRANCH  29  30
HETATM   30  C11 UNL     1      23.711  53.050   6.673  1.00  0.00     0.106 C 
HETATM   31  S1  UNL     1      24.422  52.469   8.235  1.00  0.00    -0.096 SA
ENDBRANCH  29  30
ENDBRANCH  11  29
TORSDOF 7
ENDMDL
MODEL 3
REMARK VINA RESULT: -8.170396208      1.159      1.377
REMARK  7 active torsions:
REMARK  status: ('A' for Active; 'I' for Inactive)
REMARK       I    between atoms: C1_4  and  N2_5 
REMARK       I    between atoms: C1_4  and  N7_27 
REMARK    1  A    between atoms: N2_5  and  C2_7 
REMARK    2  A    between atoms: C2_7  and  C3_8 
REMARK    3  A    between atoms: C3_8  and  C4_9 
REMARK    4  A    between atoms: C4_9  and  C5_10 
REMARK    5  A    between atoms: N5_20  and  C10_21 
REMARK    6  A    between atoms: C10_21  and  C11_22 
REMARK    7  A    between atoms: N7_27  and  N8_29 
ROOT
HETATM    1  C5  UNL     1      22.553  48.067   5.917  1.00  0.00     0.205 C 
HETATM    2  C6  UNL     1      21.109  47.761   6.021  1.00  0.00     0.242 C 
HETATM    3  O1  UNL     1      20.656  47.020   6.899  1.00  0.00    -0.271 OA
HETATM    4  N3  UNL     1      20.146  48.300   5.123  1.00  0.00    -0.358 N 
ATOM      5  H3  UNL     1      19.170  48.141   5.372  1.00  0.00     0.162 HD
HETATM    6  C7  UNL     1      20.368  49.047   3.899  1.00  0.00     0.144 C 
HETATM    7  C8  UNL     1      21.260  50.208   3.998  1.00  0.00     0.174 C 
HETATM    8  N4  UNL     1      22.141  50.332   5.097  1.00  0.00    -0.234 N 
HETATM    9  C9  UNL     1      22.572  51.573   5.479  1.00  0.00     0.347 A 
HETATM   10  O2  UNL     1      22.246  52.650   4.929  1.00  0.00    -0.245 OA
HETATM   11  N5  UNL     1      23.385  51.474   6.514  1.00  0.00    -0.248 N 
HETATM   12  C12 UNL     1      23.500  50.159   6.829  1.00  0.00     0.348 A 
HETATM   13  O3  UNL     1      24.207  49.682   7.783  1.00  0.00    -0.245 OA
HETATM   14  N6  UNL     1      22.739  49.505   5.958  1.00  0.00    -0.222 N 
ENDROOT
BRANCH   1  15
HETATM   15  C4  UNL     1      23.446  47.286   6.796  1.00  0.00     0.039 C 
BRANCH  15  16
HETATM   16  C3  UNL     1      24.170  46.158   6.096  1.00  0.00     0.023 C 
BRANCH  16  17
HETATM   17  C2  UNL     1      24.104  44.899   6.978  1.00  0.00     0.138 C 
BRANCH  17  18
HETATM   18  N2  UNL     1      22.800  44.797   7.568  1.00  0.00    -0.225 N 
HETATM   19  C1  UNL     1      22.645  44.394   8.917  1.00  0.00     0.691 C 
HETATM   20  N1  UNL     1      23.510  44.764   9.781  1.00  0.00    -0.233 N 
HETATM   21  N7  UNL     1      21.518  43.582   9.273  1.00  0.00    -0.072 N 
ATOM     22  H12 UNL     1      24.312  45.342   9.528  1.00  0.00     0.174 HD
ATOM     23  H11 UNL     1      23.399  44.474  10.753  1.00  0.00     0.174 HD
ATOM     24  H7  UNL     1      20.607  44.020   9.416  1.00  0.00     0.212 HD
ATOM     25  H2  UNL     1      21.974  45.016   7.010  1.00  0.00     0.177 HD
BRANCH  21  26
HETATM   26  N8  UNL     1      21.648  42.212   9.426  1.00  0.00    -0.024 N 
HETATM   27  O4  UNL     1      20.666  41.539   9.776  1.00  0.00    -0.516 OA
HETATM   28  O5  UNL     1      22.873  41.633   9.183  1.00  0.00    -0.516 OA
ENDBRANCH  21  26
ENDBRANCH  17  18
ENDBRANCH  16  17
ENDBRANCH  15  16
ENDBRANCH   1  15
BRANCH  11  29
HETATM   29  C10 UNL     1      24.091  52.492   7.270  1.00  0.00     0.150 C 
BRANCH  29  30
HETATM   30  C11 UNL     1      24.203  53.797   6.542  1.00  0.00     0.106 C 
HETATM   31  S1  UNL     1      24.250  55.177   7.715  1.00  0.00    -0.096 SA
ENDBRANCH  29  30
ENDBRANCH  11  29
TORSDOF 7
ENDMDL
MODEL 4
REMARK VINA RESULT: -7.195202910      3.286      5.371
REMARK  7 active torsions:
REMARK  status: ('A' for Active; 'I' for Inactive)
REMARK       I    between atoms: C1_4  and  N2_5 
REMARK       I    between atoms: C1_4  and  N7_27 
REMARK    1  A    between atoms: N2_5  and  C2_7 
REMARK    2  A    between atoms: C2_7  and  C3_8 
REMARK    3  A    between atoms: C3_8  and  C4_9 
REMARK    4  A    between atoms: C4_9  and  C5_10 
REMARK    5  A    between atoms: N5_20  and  C10_21 
REMARK    6  A    between atoms: C10_21  and  C11_22 
REMARK    7  A    between atoms: N7_27  and  N8_29 
ROOT
HETATM    1  C5  UNL     1      24.363  52.687   6.231  1.00  0.00     0.205 C 
HETATM    2  C6  UNL     1      23.326  52.757   5.178  1.00  0.00     0.242 C 
HETATM    3  O1  UNL     1      22.383  51.962   5.131  1.00  0.00    -0.271 OA
HETATM    4  N3  UNL     1      23.343  53.744   4.152  1.00  0.00    -0.358 N 
ATOM      5  H3  UNL     1      22.508  53.789   3.568  1.00  0.00     0.162 HD
HETATM    6  C7  UNL     1      24.390  54.693   3.828  1.00  0.00     0.144 C 
HETATM    7  C8  UNL     1      24.894  55.512   4.937  1.00  0.00     0.174 C 
HETATM    8  N4  UNL     1      24.662  55.113   6.273  1.00  0.00    -0.234 N 
HETATM    9  C9  UNL     1      24.646  56.054   7.266  1.00  0.00     0.347 A 
HETATM   10  O2  UNL     1      24.820  57.282   7.097  1.00  0.00    -0.245 OA
HETATM   11  N5  UNL     1      24.419  55.480   8.433  1.00  0.00    -0.248 N 
HETATM   12  C12 UNL     1      24.283  54.147   8.223  1.00  0.00     0.348 A 
HETATM   13  O3  UNL     1      24.053  53.271   9.128  1.00  0.00    -0.245 OA
HETATM   14  N6  UNL     1      24.434  53.964   6.916  1.00  0.00    -0.222 N 
ENDROOT
BRANCH   1  15
HETATM   15  C4  UNL     1      24.318  51.499   7.107  1.00  0.00     0.039 C 
BRANCH  15  16
HETATM   16  C3  UNL     1      24.617  50.197   6.398  1.00  0.00     0.023 C 
BRANCH  16  17
HETATM   17  C2  UNL     1      23.812  49.069   7.065  1.00  0.00     0.138 C 
BRANCH  17  18
HETATM   18  N2  UNL     1      23.763  47.934   6.187  1.00  0.00    -0.225 N 
HETATM   19  C1  UNL     1      23.172  46.718   6.608  1.00  0.00     0.691 C 
HETATM   20  N1  UNL     1      22.145  46.753   7.367  1.00  0.00    -0.233 N 
HETATM   21  N7  UNL     1      23.747  45.479   6.168  1.00  0.00    -0.072 N 
ATOM     22  H12 UNL     1      21.737  47.634   7.681  1.00  0.00     0.174 HD
ATOM     23  H11 UNL     1      21.719  45.878   7.671  1.00  0.00     0.174 HD
ATOM     24  H7  UNL     1      23.533  45.130   5.233  1.00  0.00     0.212 HD
ATOM     25  H2  UNL     1      24.158  48.004   5.249  1.00  0.00     0.177 HD
BRANCH  21  26
HETATM   26  N8  UNL     1      24.587  44.751   6.994  1.00  0.00    -0.024 N 
HETATM   27  O4  UNL     1      25.731  44.468   6.606  1.00  0.00    -0.516 OA
HETATM   28  O5  UNL     1      24.122  44.360   8.230  1.00  0.00    -0.516 OA
ENDBRANCH  21  26
ENDBRANCH  17  18
ENDBRANCH  16  17
ENDBRANCH  15  16
ENDBRANCH   1  15
BRANCH  11  29
HETATM   29  C10 UNL     1      24.312  56.045   9.765  1.00  0.00     0.150 C 
BRANCH  29  30
HETATM   30  C11 UNL     1      22.895  56.249  10.209  1.00  0.00     0.106 C 
HETATM   31  S1  UNL     1      22.142  57.634   9.316  1.00  0.00    -0.096 SA
ENDBRANCH  29  30
ENDBRANCH  11  29
TORSDOF 7
ENDMDL
MODEL 5
REMARK VINA RESULT: -6.964988897      3.600      5.833
REMARK  7 active torsions:
REMARK  status: ('A' for Active; 'I' for Inactive)
REMARK       I    between atoms: C1_4  and  N2_5 
REMARK       I    between atoms: C1_4  and  N7_27 
REMARK    1  A    between atoms: N2_5  and  C2_7 
REMARK    2  A    between atoms: C2_7  and  C3_8 
REMARK    3  A    between atoms: C3_8  and  C4_9 
REMARK    4  A    between atoms: C4_9  and  C5_10 
REMARK    5  A    between atoms: N5_20  and  C10_21 
REMARK    6  A    between atoms: C10_21  and  C11_22 
REMARK    7  A    between atoms: N7_27  and  N8_29 
ROOT
HETATM    1  C5  UNL     1      24.332  52.192   6.345  1.00  0.00     0.205 C 
HETATM    2  C6  UNL     1      23.235  52.275   5.355  1.00  0.00     0.242 C 
HETATM    3  O1  UNL     1      22.346  51.421   5.288  1.00  0.00    -0.271 OA
HETATM    4  N3  UNL     1      23.129  53.341   4.419  1.00  0.00    -0.358 N 
ATOM      5  H3  UNL     1      22.261  53.375   3.883  1.00  0.00     0.162 HD
HETATM    6  C7  UNL     1      24.090  54.386   4.124  1.00  0.00     0.144 C 
HETATM    7  C8  UNL     1      24.599  55.145   5.273  1.00  0.00     0.174 C 
HETATM    8  N4  UNL     1      24.470  54.622   6.580  1.00  0.00    -0.234 N 
HETATM    9  C9  UNL     1      24.446  55.475   7.649  1.00  0.00     0.347 A 
HETATM   10  O2  UNL     1      24.528  56.722   7.578  1.00  0.00    -0.245 OA
HETATM   11  N5  UNL     1      24.324  54.793   8.773  1.00  0.00    -0.248 N 
HETATM   12  C12 UNL     1      24.266  53.475   8.456  1.00  0.00     0.348 A 
HETATM   13  O3  UNL     1      24.146  52.513   9.293  1.00  0.00    -0.245 OA
HETATM   14  N6  UNL     1      24.356  53.411   7.132  1.00  0.00    -0.222 N 
ENDROOT
BRANCH   1  15
HETATM   15  C4  UNL     1      24.415  50.936   7.117  1.00  0.00     0.039 C 
BRANCH  15  16
HETATM   16  C3  UNL     1      24.601  49.700   6.267  1.00  0.00     0.023 C 
BRANCH  16  17
HETATM   17  C2  UNL     1      23.904  48.512   6.953  1.00  0.00     0.138 C 
BRANCH  17  18
HETATM   18  N2  UNL     1      22.482  48.695   6.895  1.00  0.00    -0.225 N 
HETATM   19  C1  UNL     1      21.644  47.691   6.351  1.00  0.00     0.691 C 
HETATM   20  N1  UNL     1      21.940  46.463   6.540  1.00  0.00    -0.233 N 
HETATM   21  N7  UNL     1      20.485  48.085   5.603  1.00  0.00    -0.072 N 
ATOM     22  H12 UNL     1      22.764  46.182   7.071  1.00  0.00     0.174 HD
ATOM     23  H11 UNL     1      21.338  45.739   6.148  1.00  0.00     0.174 HD
ATOM     24  H7  UNL     1      19.639  48.367   6.098  1.00  0.00     0.212 HD
ATOM     25  H2  UNL     1      22.069  49.558   7.249  1.00  0.00     0.177 HD
BRANCH  21  26
HETATM   26  N8  UNL     1      20.500  48.089   4.218  1.00  0.00    -0.024 N 
HETATM   27  O4  UNL     1      20.932  47.099   3.608  1.00  0.00    -0.516 OA
HETATM   28  O5  UNL     1      20.030  49.201   3.555  1.00  0.00    -0.516 OA
ENDBRANCH  21  26
ENDBRANCH  17  18
ENDBRANCH  16  17
ENDBRANCH  15  16
ENDBRANCH   1  15
BRANCH  11  29
HETATM   29  C10 UNL     1      24.254  55.238  10.152  1.00  0.00     0.150 C 
BRANCH  29  30
HETATM   30  C11 UNL     1      23.864  56.678  10.289  1.00  0.00     0.106 C 
HETATM   31  S1  UNL     1      25.183  57.619  11.100  1.00  0.00    -0.096 SA
ENDBRANCH  29  30
ENDBRANCH  11  29
TORSDOF 7
ENDMDL
