MODEL 1
REMARK VINA RESULT: -6.336694787      0.000      0.000
REMARK  11 active torsions:
REMARK  status: ('A' for Active; 'I' for Inactive)
REMARK    1  A    between atoms: C2_2  and  C3_3 
REMARK    2  A    between atoms: C3_3  and  C5_5 
REMARK    3  A    between atoms: C5_5  and  C6_7 
REMARK    4  A    between atoms: C6_7  and  O1_8 
REMARK    5  A    between atoms: C6_7  and  C7_10 
REMARK    6  A    between atoms: C8_11  and  O2_12 
REMARK    7  A    between atoms: O2_12  and  N2_13 
REMARK    8  A    between atoms: C9_18  and  S1_19 
REMARK    9  A    between atoms: S1_19  and  N4_20 
REMARK   10  A    between atoms: N5_25  and  N6_26 
REMARK   11  A    between atoms: N6_26  and  S2_28 
ROOT
HETATM    1  C7  UNL     1      22.859  46.052   6.987  1.00  0.00     0.148 A 
HETATM    2  C8  UNL     1      24.184  46.026   6.474  1.00  0.00     0.203 A 
HETATM    3  N3  UNL     1      24.598  47.236   6.240  1.00  0.00    -0.307 N 
ATOM      4  H3  UNL     1      25.514  47.494   5.871  1.00  0.00     0.170 HD
HETATM    5  C9  UNL     1      23.605  48.092   6.569  1.00  0.00     0.248 A 
HETATM    6  N5  UNL     1      22.566  47.361   7.009  1.00  0.00    -0.212 N 
ENDROOT
BRANCH   1   7
HETATM    7  C6  UNL     1      22.054  44.881   7.264  1.00  0.00     0.123 C 
BRANCH   7   8
HETATM    8  C5  UNL     1      22.371  44.046   8.462  1.00  0.00     0.084 C 
HETATM    9  N1  UNL     1      22.105  44.632   9.694  1.00  0.00    -0.099 NA
BRANCH   8  10
HETATM   10  C3  UNL     1      22.038  42.616   8.342  1.00  0.00    -0.057 C 
HETATM   11  C4  UNL     1      23.236  41.731   8.510  1.00  0.00     0.045 C 
BRANCH  10  12
HETATM   12  C2  UNL     1      20.828  42.057   8.982  1.00  0.00     0.031 C 
HETATM   13  C1  UNL     1      20.563  40.606   8.583  1.00  0.00     0.010 C 
ENDBRANCH  10  12
ENDBRANCH   8  10
ENDBRANCH   7   8
BRANCH   7  14
HETATM   14  O1  UNL     1      21.569  44.193   6.161  1.00  0.00    -0.357 OA
ATOM     15  H1  UNL     1      20.623  44.126   6.100  1.00  0.00     0.218 HD
ENDBRANCH   7  14
ENDBRANCH   1   7
BRANCH   2  16
HETATM   16  O2  UNL     1      24.855  44.860   6.291  1.00  0.00    -0.224 OA
BRANCH  16  17
HETATM   17  N2  UNL     1      26.125  44.579   6.641  1.00  0.00    -0.303 N 
ATOM     18  H22 UNL     1      26.250  43.702   7.147  1.00  0.00     0.184 HD
ATOM     19  H21 UNL     1      26.959  45.138   6.459  1.00  0.00     0.184 HD
ENDBRANCH  16  17
ENDBRANCH   2  16
BRANCH   6  20
HETATM   20  N6  UNL     1      21.289  47.965   7.239  1.00  0.00    -0.218 N 
ATOM     21  H6  UNL     1      21.052  48.339   8.157  1.00  0.00     0.200 HD
BRANCH  20  22
HETATM   22  S2  UNL     1      20.157  48.052   5.938  1.00  0.00     0.240 S 
HETATM   23  C10 UNL     1      20.742  47.191   4.506  1.00  0.00     0.187 C 
HETATM   24  O5  UNL     1      18.812  47.479   6.253  1.00  0.00    -0.205 OA
HETATM   25  O6  UNL     1      20.044  49.542   5.538  1.00  0.00    -0.205 OA
ENDBRANCH  20  22
ENDBRANCH   6  20
BRANCH   5  26
HETATM   26  S1  UNL     1      23.807  49.847   6.424  1.00  0.00     0.290 S 
HETATM   27  O3  UNL     1      23.529  50.538   7.716  1.00  0.00    -0.198 OA
HETATM   28  O4  UNL     1      25.150  50.238   5.941  1.00  0.00    -0.198 OA
BRANCH  26  29
HETATM   29  N4  UNL     1      22.682  50.425   5.234  1.00  0.00    -0.322 N 
ATOM     30  H42 UNL     1      22.196  49.841   4.553  1.00  0.00     0.169 HD
ATOM     31  H41 UNL     1      22.599  51.436   5.339  1.00  0.00     0.169 HD
ENDBRANCH  26  29
ENDBRANCH   5  26
TORSDOF 11
ENDMDL
MODEL 2
REMARK VINA RESULT: -6.247971485      1.001      1.188
REMARK  11 active torsions:
REMARK  status: ('A' for Active; 'I' for Inactive)
REMARK    1  A    between atoms: C2_2  and  C3_3 
REMARK    2  A    between atoms: C3_3  and  C5_5 
REMARK    3  A    between atoms: C5_5  and  C6_7 
REMARK    4  A    between atoms: C6_7  and  O1_8 
REMARK    5  A    between atoms: C6_7  and  C7_10 
REMARK    6  A    between atoms: C8_11  and  O2_12 
REMARK    7  A    between atoms: O2_12  and  N2_13 
REMARK    8  A    between atoms: C9_18  and  S1_19 
REMARK    9  A    between atoms: S1_19  and  N4_20 
REMARK   10  A    between atoms: N5_25  and  N6_26 
REMARK   11  A    between atoms: N6_26  and  S2_28 
ROOT
HETATM    1  C7  UNL     1      22.871  46.107   6.988  1.00  0.00     0.148 A 
HETATM    2  C8  UNL     1      24.199  46.050   6.485  1.00  0.00     0.203 A 
HETATM    3  N3  UNL     1      24.634  47.249   6.230  1.00  0.00    -0.307 N 
ATOM      4  H3  UNL     1      25.555  47.486   5.862  1.00  0.00     0.170 HD
HETATM    5  C9  UNL     1      23.651  48.127   6.536  1.00  0.00     0.248 A 
HETATM    6  N5  UNL     1      22.598  47.420   6.983  1.00  0.00    -0.212 N 
ENDROOT
BRANCH   1   7
HETATM    7  C6  UNL     1      22.046  44.954   7.282  1.00  0.00     0.123 C 
BRANCH   7   8
HETATM    8  C5  UNL     1      22.398  44.084   8.444  1.00  0.00     0.084 C 
HETATM    9  N1  UNL     1      22.174  44.635   9.700  1.00  0.00    -0.099 NA
BRANCH   8  10
HETATM   10  C3  UNL     1      22.057  42.659   8.295  1.00  0.00    -0.057 C 
HETATM   11  C4  UNL     1      23.251  41.764   8.430  1.00  0.00     0.045 C 
BRANCH  10  12
HETATM   12  C2  UNL     1      20.850  42.091   8.933  1.00  0.00     0.031 C 
HETATM   13  C1  UNL     1      20.621  40.625   8.570  1.00  0.00     0.010 C 
ENDBRANCH  10  12
ENDBRANCH   8  10
ENDBRANCH   7   8
BRANCH   7  14
HETATM   14  O1  UNL     1      21.486  44.304   6.191  1.00  0.00    -0.357 OA
ATOM     15  H1  UNL     1      20.835  43.642   6.395  1.00  0.00     0.218 HD
ENDBRANCH   7  14
ENDBRANCH   1   7
BRANCH   2  16
HETATM   16  O2  UNL     1      24.853  44.870   6.328  1.00  0.00    -0.224 OA
BRANCH  16  17
HETATM   17  N2  UNL     1      26.129  44.589   6.655  1.00  0.00    -0.303 N 
ATOM     18  H22 UNL     1      26.649  45.362   7.071  1.00  0.00     0.184 HD
ATOM     19  H21 UNL     1      26.622  43.704   6.534  1.00  0.00     0.184 HD
ENDBRANCH  16  17
ENDBRANCH   2  16
BRANCH   6  20
HETATM   20  N6  UNL     1      21.330  48.048   7.193  1.00  0.00    -0.218 N 
ATOM     21  H6  UNL     1      21.123  48.515   8.076  1.00  0.00     0.200 HD
BRANCH  20  22
HETATM   22  S2  UNL     1      20.154  48.005   5.929  1.00  0.00     0.240 S 
HETATM   23  C10 UNL     1      20.341  49.370   4.817  1.00  0.00     0.187 C 
HETATM   24  O5  UNL     1      20.201  46.768   5.087  1.00  0.00    -0.205 OA
HETATM   25  O6  UNL     1      18.769  48.168   6.596  1.00  0.00    -0.205 OA
ENDBRANCH  20  22
ENDBRANCH   6  20
BRANCH   5  26
HETATM   26  S1  UNL     1      23.881  49.875   6.359  1.00  0.00     0.290 S 
HETATM   27  O3  UNL     1      25.240  50.199   5.840  1.00  0.00    -0.198 OA
HETATM   28  O4  UNL     1      22.864  50.508   5.490  1.00  0.00    -0.198 OA
BRANCH  26  29
HETATM   29  N4  UNL     1      23.696  50.606   7.924  1.00  0.00    -0.322 N 
ATOM     30  H42 UNL     1      23.593  50.096   8.801  1.00  0.00     0.169 HD
ATOM     31  H41 UNL     1      23.710  51.619   7.805  1.00  0.00     0.169 HD
ENDBRANCH  26  29
ENDBRANCH   5  26
TORSDOF 11
ENDMDL
MODEL 3
REMARK VINA RESULT: -5.694200408      1.770      2.278
REMARK  11 active torsions:
REMARK  status: ('A' for Active; 'I' for Inactive)
REMARK    1  A    between atoms: C2_2  and  C3_3 
REMARK    2  A    between atoms: C3_3  and  C5_5 
REMARK    3  A    between atoms: C5_5  and  C6_7 
REMARK    4  A    between atoms: C6_7  and  O1_8 
REMARK    5  A    between atoms: C6_7  and  C7_10 
REMARK    6  A    between atoms: C8_11  and  O2_12 
REMARK    7  A    between atoms: O2_12  and  N2_13 
REMARK    8  A    between atoms: C9_18  and  S1_19 
REMARK    9  A    between atoms: S1_19  and  N4_20 
REMARK   10  A    between atoms: N5_25  and  N6_26 
REMARK   11  A    between atoms: N6_26  and  S2_28 
ROOT
HETATM    1  C7  UNL     1      22.435  46.105   7.363  1.00  0.00     0.148 A 
HETATM    2  C8  UNL     1      22.957  46.500   8.624  1.00  0.00     0.203 A 
HETATM    3  N3  UNL     1      23.419  47.713   8.558  1.00  0.00    -0.307 N 
ATOM      4  H3  UNL     1      23.846  48.233   9.325  1.00  0.00     0.170 HD
HETATM    5  C9  UNL     1      23.236  48.166   7.297  1.00  0.00     0.248 A 
HETATM    6  N5  UNL     1      22.650  47.182   6.592  1.00  0.00    -0.212 N 
ENDROOT
BRANCH   1   7
HETATM    7  C6  UNL     1      21.931  44.784   7.050  1.00  0.00     0.123 C 
BRANCH   7   8
HETATM    8  C5  UNL     1      22.871  43.622   7.075  1.00  0.00     0.084 C 
HETATM    9  N1  UNL     1      24.222  43.940   7.142  1.00  0.00    -0.099 NA
BRANCH   8  10
HETATM   10  C3  UNL     1      22.437  42.475   7.890  1.00  0.00    -0.057 C 
HETATM   11  C4  UNL     1      23.587  41.645   8.373  1.00  0.00     0.045 C 
BRANCH  10  12
HETATM   12  C2  UNL     1      21.376  42.620   8.910  1.00  0.00     0.031 C 
HETATM   13  C1  UNL     1      20.492  41.378   9.026  1.00  0.00     0.010 C 
ENDBRANCH  10  12
ENDBRANCH   8  10
ENDBRANCH   7   8
BRANCH   7  14
HETATM   14  O1  UNL     1      20.917  44.719   6.105  1.00  0.00    -0.357 OA
ATOM     15  H1  UNL     1      20.076  44.414   6.424  1.00  0.00     0.218 HD
ENDBRANCH   7  14
ENDBRANCH   1   7
BRANCH   2  16
HETATM   16  O2  UNL     1      22.934  45.668   9.697  1.00  0.00    -0.224 OA
BRANCH  16  17
HETATM   17  N2  UNL     1      23.866  44.764  10.056  1.00  0.00    -0.303 N 
ATOM     18  H22 UNL     1      23.610  44.169  10.844  1.00  0.00     0.184 HD
ATOM     19  H21 UNL     1      24.782  44.613   9.632  1.00  0.00     0.184 HD
ENDBRANCH  16  17
ENDBRANCH   2  16
BRANCH   6  20
HETATM   20  N6  UNL     1      22.512  47.280   5.171  1.00  0.00    -0.218 N 
ATOM     21  H6  UNL     1      23.311  47.107   4.561  1.00  0.00     0.200 HD
BRANCH  20  22
HETATM   22  S2  UNL     1      20.974  47.694   4.506  1.00  0.00     0.240 S 
HETATM   23  C10 UNL     1      19.746  47.882   5.767  1.00  0.00     0.187 C 
HETATM   24  O5  UNL     1      20.966  48.967   3.719  1.00  0.00    -0.205 OA
HETATM   25  O6  UNL     1      20.525  46.500   3.631  1.00  0.00    -0.205 OA
ENDBRANCH  20  22
ENDBRANCH   6  20
BRANCH   5  26
HETATM   26  S1  UNL     1      23.707  49.807   6.822  1.00  0.00     0.290 S 
HETATM   27  O3  UNL     1      25.023  49.819   6.124  1.00  0.00    -0.198 OA
HETATM   28  O4  UNL     1      22.697  50.476   5.971  1.00  0.00    -0.198 OA
BRANCH  26  29
HETATM   29  N4  UNL     1      23.834  50.771   8.262  1.00  0.00    -0.322 N 
ATOM     30  H42 UNL     1      23.816  50.408   9.215  1.00  0.00     0.169 HD
ATOM     31  H41 UNL     1      23.928  51.748   7.983  1.00  0.00     0.169 HD
ENDBRANCH  26  29
ENDBRANCH   5  26
TORSDOF 11
ENDMDL
MODEL 4
REMARK VINA RESULT: -5.545665880      1.581      1.814
REMARK  11 active torsions:
REMARK  status: ('A' for Active; 'I' for Inactive)
REMARK    1  A    between atoms: C2_2  and  C3_3 
REMARK    2  A    between atoms: C3_3  and  C5_5 
REMARK    3  A    between atoms: C5_5  and  C6_7 
REMARK    4  A    between atoms: C6_7  and  O1_8 
REMARK    5  A    between atoms: C6_7  and  C7_10 
REMARK    6  A    between atoms: C8_11  and  O2_12 
REMARK    7  A    between atoms: O2_12  and  N2_13 
REMARK    8  A    between atoms: C9_18  and  S1_19 
REMARK    9  A    between atoms: S1_19  and  N4_20 
REMARK   10  A    between atoms: N5_25  and  N6_26 
REMARK   11  A    between atoms: N6_26  and  S2_28 
ROOT
HETATM    1  C7  UNL     1      22.837  47.204   6.682  1.00  0.00     0.148 A 
HETATM    2  C8  UNL     1      24.244  47.307   6.516  1.00  0.00     0.203 A 
HETATM    3  N3  UNL     1      24.579  48.541   6.280  1.00  0.00    -0.307 N 
ATOM      4  H3  UNL     1      25.526  48.885   6.126  1.00  0.00     0.170 HD
HETATM    5  C9  UNL     1      23.452  49.289   6.275  1.00  0.00     0.248 A 
HETATM    6  N5  UNL     1      22.415  48.466   6.511  1.00  0.00    -0.212 N 
ENDROOT
BRANCH   1   7
HETATM    7  C6  UNL     1      22.112  45.963   6.859  1.00  0.00     0.123 C 
BRANCH   7   8
HETATM    8  C5  UNL     1      22.455  45.077   8.013  1.00  0.00     0.084 C 
HETATM    9  N1  UNL     1      22.144  45.577   9.272  1.00  0.00    -0.099 NA
BRANCH   8  10
HETATM   10  C3  UNL     1      22.197  43.641   7.807  1.00  0.00    -0.057 C 
HETATM   11  C4  UNL     1      23.458  42.837   7.716  1.00  0.00     0.045 C 
BRANCH  10  12
HETATM   12  C2  UNL     1      21.132  42.941   8.558  1.00  0.00     0.031 C 
HETATM   13  C1  UNL     1      21.683  42.003   9.631  1.00  0.00     0.010 C 
ENDBRANCH  10  12
ENDBRANCH   8  10
ENDBRANCH   7   8
BRANCH   7  14
HETATM   14  O1  UNL     1      21.709  45.314   5.700  1.00  0.00    -0.357 OA
ATOM     15  H1  UNL     1      21.807  45.809   4.895  1.00  0.00     0.218 HD
ENDBRANCH   7  14
ENDBRANCH   1   7
BRANCH   2  16
HETATM   16  O2  UNL     1      25.056  46.222   6.612  1.00  0.00    -0.224 OA
BRANCH  16  17
HETATM   17  N2  UNL     1      25.020  45.101   5.865  1.00  0.00    -0.303 N 
ATOM     18  H22 UNL     1      24.267  44.453   6.095  1.00  0.00     0.184 HD
ATOM     19  H21 UNL     1      25.652  44.837   5.110  1.00  0.00     0.184 HD
ENDBRANCH  16  17
ENDBRANCH   2  16
BRANCH   6  20
HETATM   20  N6  UNL     1      21.068  48.922   6.363  1.00  0.00    -0.218 N 
ATOM     21  H6  UNL     1      20.617  49.454   7.107  1.00  0.00     0.200 HD
BRANCH  20  22
HETATM   22  S2  UNL     1      20.216  48.560   4.904  1.00  0.00     0.240 S 
HETATM   23  C10 UNL     1      18.721  47.669   5.226  1.00  0.00     0.187 C 
HETATM   24  O5  UNL     1      19.825  49.763   4.105  1.00  0.00    -0.205 OA
HETATM   25  O6  UNL     1      21.120  47.616   4.077  1.00  0.00    -0.205 OA
ENDBRANCH  20  22
ENDBRANCH   6  20
BRANCH   5  26
HETATM   26  S1  UNL     1      23.503  51.042   6.023  1.00  0.00     0.290 S 
HETATM   27  O3  UNL     1      24.772  51.463   5.364  1.00  0.00    -0.198 OA
HETATM   28  O4  UNL     1      22.355  51.548   5.238  1.00  0.00    -0.198 OA
BRANCH  26  29
HETATM   29  N4  UNL     1      23.401  51.815   7.575  1.00  0.00    -0.322 N 
ATOM     30  H42 UNL     1      22.956  51.415   8.401  1.00  0.00     0.169 HD
ATOM     31  H41 UNL     1      23.859  52.723   7.508  1.00  0.00     0.169 HD
ENDBRANCH  26  29
ENDBRANCH   5  26
TORSDOF 11
ENDMDL
MODEL 5
REMARK VINA RESULT: -5.530519132      5.836      8.558
REMARK  11 active torsions:
REMARK  status: ('A' for Active; 'I' for Inactive)
REMARK    1  A    between atoms: C2_2  and  C3_3 
REMARK    2  A    between atoms: C3_3  and  C5_5 
REMARK    3  A    between atoms: C5_5  and  C6_7 
REMARK    4  A    between atoms: C6_7  and  O1_8 
REMARK    5  A    between atoms: C6_7  and  C7_10 
REMARK    6  A    between atoms: C8_11  and  O2_12 
REMARK    7  A    between atoms: O2_12  and  N2_13 
REMARK    8  A    between atoms: C9_18  and  S1_19 
REMARK    9  A    between atoms: S1_19  and  N4_20 
REMARK   10  A    between atoms: N5_25  and  N6_26 
REMARK   11  A    between atoms: N6_26  and  S2_28 
ROOT
HETATM    1  C7  UNL     1      24.125  53.643   6.535  1.00  0.00     0.148 A 
HETATM    2  C8  UNL     1      24.233  53.770   7.946  1.00  0.00     0.203 A 
HETATM    3  N3  UNL     1      24.243  55.025   8.285  1.00  0.00    -0.307 N 
ATOM      4  H3  UNL     1      24.310  55.388   9.235  1.00  0.00     0.170 HD
HETATM    5  C9  UNL     1      24.149  55.766   7.157  1.00  0.00     0.248 A 
HETATM    6  N5  UNL     1      24.087  54.917   6.116  1.00  0.00    -0.212 N 
ENDROOT
BRANCH   1   7
HETATM    7  C6  UNL     1      24.185  52.393   5.808  1.00  0.00     0.123 C 
BRANCH   7   8
HETATM    8  C5  UNL     1      22.967  51.529   5.742  1.00  0.00     0.084 C 
HETATM    9  N1  UNL     1      22.040  51.866   4.763  1.00  0.00    -0.099 NA
BRANCH   8  10
HETATM   10  C3  UNL     1      23.201  50.088   5.941  1.00  0.00    -0.057 C 
HETATM   11  C4  UNL     1      23.705  49.772   7.316  1.00  0.00     0.045 C 
BRANCH  10  12
HETATM   12  C2  UNL     1      22.237  49.083   5.446  1.00  0.00     0.031 C 
HETATM   13  C1  UNL     1      22.049  47.915   6.414  1.00  0.00     0.010 C 
ENDBRANCH  10  12
ENDBRANCH   8  10
ENDBRANCH   7   8
BRANCH   7  14
HETATM   14  O1  UNL     1      25.399  51.720   5.838  1.00  0.00    -0.357 OA
ATOM     15  H1  UNL     1      26.052  52.075   6.430  1.00  0.00     0.218 HD
ENDBRANCH   7  14
ENDBRANCH   1   7
BRANCH   2  16
HETATM   16  O2  UNL     1      24.305  52.682   8.757  1.00  0.00    -0.224 OA
BRANCH  16  17
HETATM   17  N2  UNL     1      24.201  52.651  10.099  1.00  0.00    -0.303 N 
ATOM     18  H22 UNL     1      24.937  53.147  10.602  1.00  0.00     0.184 HD
ATOM     19  H21 UNL     1      23.479  52.193  10.656  1.00  0.00     0.184 HD
ENDBRANCH  16  17
ENDBRANCH   2  16
BRANCH   6  20
HETATM   20  N6  UNL     1      24.189  55.397   4.772  1.00  0.00    -0.218 N 
ATOM     21  H6  UNL     1      23.379  55.378   4.153  1.00  0.00     0.200 HD
BRANCH  20  22
HETATM   22  S2  UNL     1      25.705  56.008   4.214  1.00  0.00     0.240 S 
HETATM   23  C10 UNL     1      25.533  57.611   3.482  1.00  0.00     0.187 C 
HETATM   24  O5  UNL     1      26.745  56.142   5.281  1.00  0.00    -0.205 OA
HETATM   25  O6  UNL     1      26.186  55.062   3.089  1.00  0.00    -0.205 OA
ENDBRANCH  20  22
ENDBRANCH   6  20
BRANCH   5  26
HETATM   26  S1  UNL     1      24.092  57.537   7.212  1.00  0.00     0.290 S 
HETATM   27  O3  UNL     1      23.333  58.095   6.057  1.00  0.00    -0.198 OA
HETATM   28  O4  UNL     1      23.518  58.058   8.472  1.00  0.00    -0.198 OA
BRANCH  26  29
HETATM   29  N4  UNL     1      25.722  58.132   7.145  1.00  0.00    -0.322 N 
ATOM     30  H42 UNL     1      26.487  57.694   6.632  1.00  0.00     0.169 HD
ATOM     31  H41 UNL     1      25.771  58.986   7.702  1.00  0.00     0.169 HD
ENDBRANCH  26  29
ENDBRANCH   5  26
TORSDOF 11
ENDMDL
