MODEL 1
REMARK VINA RESULT: -6.472773304      0.000      0.000
REMARK  6 active torsions:
REMARK  status: ('A' for Active; 'I' for Inactive)
REMARK    1  A    between atoms: C3_4  and  C4_5 
REMARK    2  A    between atoms: C8_10  and  O3_11 
REMARK    3  A    between atoms: C9_13  and  O4_14 
REMARK    4  A    between atoms: C10_16  and  O5_17 
REMARK    5  A    between atoms: C11_19  and  O6_20 
REMARK    6  A    between atoms: C12_22  and  O7_23 
ROOT
HETATM    1  C4  UNL     1       0.895  28.202  -3.065  1.00  0.00     0.185 C 
HETATM    2  O2  UNL     1       1.905  28.228  -2.141  1.00  0.00    -0.368 OA
HETATM    3  C5  UNL     1       1.512  28.511  -0.854  1.00  0.00     0.083 C 
HETATM    4  C6  UNL     1       2.707  28.236   0.054  1.00  0.00     0.048 C 
HETATM    5  C7  UNL     1       1.168  29.997  -0.684  1.00  0.00     0.048 C 
HETATM    6  C8  UNL     1       0.369  27.647  -0.376  1.00  0.00     0.183 C 
HETATM    7  C9  UNL     1      -0.077  26.640  -1.388  1.00  0.00     0.181 C 
HETATM    8  C10 UNL     1      -0.171  27.173  -2.780  1.00  0.00     0.181 C 
ENDROOT
BRANCH   1   9
HETATM    9  C3  UNL     1       1.507  27.884  -4.417  1.00  0.00     0.185 C 
HETATM   10  O1  UNL     1       0.828  26.897  -5.080  1.00  0.00    -0.373 OA
HETATM   11  C2  UNL     1       0.810  27.165  -6.417  1.00  0.00     0.149 C 
HETATM   12  C1  UNL     1      -0.621  27.173  -6.939  1.00  0.00     0.042 C 
HETATM   13  C12 UNL     1       1.457  28.487  -6.667  1.00  0.00     0.178 C 
HETATM   14  C11 UNL     1       1.437  29.126  -5.313  1.00  0.00     0.180 C 
BRANCH  13  15
HETATM   15  O7  UNL     1       2.787  28.346  -7.099  1.00  0.00    -0.390 OA
ATOM     16  H7  UNL     1       2.958  28.843  -7.891  1.00  0.00     0.210 HD
ENDBRANCH  13  15
BRANCH  14  17
HETATM   17  O6  UNL     1       2.468  29.999  -5.078  1.00  0.00    -0.390 OA
ATOM     18  H6  UNL     1       2.334  30.516  -4.292  1.00  0.00     0.210 HD
ENDBRANCH  14  17
ENDBRANCH   1   9
BRANCH   8  19
HETATM   19  O5  UNL     1      -1.466  27.703  -2.960  1.00  0.00    -0.390 OA
ATOM     20  H5  UNL     1      -2.011  27.124  -3.479  1.00  0.00     0.210 HD
ENDBRANCH   8  19
BRANCH   7  21
HETATM   21  O4  UNL     1       0.737  25.498  -1.410  1.00  0.00    -0.390 OA
ATOM     22  H4  UNL     1       1.550  25.635  -1.881  1.00  0.00     0.210 HD
ENDBRANCH   7  21
BRANCH   6  23
HETATM   23  O3  UNL     1      -0.728  28.437   0.036  1.00  0.00    -0.390 OA
ATOM     24  H3  UNL     1      -0.453  29.322   0.248  1.00  0.00     0.210 HD
ENDBRANCH   6  23
TORSDOF 6
ENDMDL
MODEL 2
REMARK VINA RESULT: -6.095438388      1.721      4.933
REMARK  6 active torsions:
REMARK  status: ('A' for Active; 'I' for Inactive)
REMARK    1  A    between atoms: C3_4  and  C4_5 
REMARK    2  A    between atoms: C8_10  and  O3_11 
REMARK    3  A    between atoms: C9_13  and  O4_14 
REMARK    4  A    between atoms: C10_16  and  O5_17 
REMARK    5  A    between atoms: C11_19  and  O6_20 
REMARK    6  A    between atoms: C12_22  and  O7_23 
ROOT
HETATM    1  C4  UNL     1       0.320  27.520  -3.522  1.00  0.00     0.185 C 
HETATM    2  O2  UNL     1      -0.083  28.006  -4.737  1.00  0.00    -0.368 OA
HETATM    3  C5  UNL     1      -0.454  27.051  -5.655  1.00  0.00     0.083 C 
HETATM    4  C6  UNL     1      -1.111  27.779  -6.824  1.00  0.00     0.048 C 
HETATM    5  C7  UNL     1       0.766  26.318  -6.228  1.00  0.00     0.048 C 
HETATM    6  C8  UNL     1      -1.458  26.061  -5.113  1.00  0.00     0.183 C 
HETATM    7  C9  UNL     1      -1.867  26.344  -3.702  1.00  0.00     0.181 C 
HETATM    8  C10 UNL     1      -0.737  26.719  -2.801  1.00  0.00     0.181 C 
ENDROOT
BRANCH   1   9
HETATM    9  C3  UNL     1       0.693  28.702  -2.647  1.00  0.00     0.185 C 
HETATM   10  O1  UNL     1       0.050  28.682  -1.438  1.00  0.00    -0.373 OA
HETATM   11  C2  UNL     1       0.884  29.144  -0.463  1.00  0.00     0.149 C 
HETATM   12  C1  UNL     1       0.998  28.127   0.665  1.00  0.00     0.042 C 
HETATM   13  C12 UNL     1       2.230  29.418  -1.049  1.00  0.00     0.178 C 
HETATM   14  C11 UNL     1       2.193  28.650  -2.334  1.00  0.00     0.180 C 
BRANCH  13  15
HETATM   15  O7  UNL     1       2.414  30.783  -1.324  1.00  0.00    -0.390 OA
ATOM     16  H7  UNL     1       1.855  31.081  -2.032  1.00  0.00     0.210 HD
ENDBRANCH  13  15
BRANCH  14  17
HETATM   17  O6  UNL     1       2.956  29.184  -3.340  1.00  0.00    -0.390 OA
ATOM     18  H6  UNL     1       3.572  29.834  -3.023  1.00  0.00     0.210 HD
ENDBRANCH  14  17
ENDBRANCH   1   9
BRANCH   8  19
HETATM   19  O5  UNL     1      -0.203  25.535  -2.250  1.00  0.00    -0.390 OA
ATOM     20  H5  UNL     1      -0.797  24.801  -2.358  1.00  0.00     0.210 HD
ENDBRANCH   8  19
BRANCH   7  21
HETATM   21  O4  UNL     1      -2.849  27.341  -3.613  1.00  0.00    -0.390 OA
ATOM     22  H4  UNL     1      -3.334  27.307  -2.797  1.00  0.00     0.210 HD
ENDBRANCH   7  21
BRANCH   6  23
HETATM   23  O3  UNL     1      -0.976  24.737  -5.221  1.00  0.00    -0.390 OA
ATOM     24  H3  UNL     1      -1.579  24.192  -5.713  1.00  0.00     0.210 HD
ENDBRANCH   6  23
TORSDOF 6
ENDMDL
MODEL 3
REMARK VINA RESULT: -6.050636444      2.034      2.846
REMARK  6 active torsions:
REMARK  status: ('A' for Active; 'I' for Inactive)
REMARK    1  A    between atoms: C3_4  and  C4_5 
REMARK    2  A    between atoms: C8_10  and  O3_11 
REMARK    3  A    between atoms: C9_13  and  O4_14 
REMARK    4  A    between atoms: C10_16  and  O5_17 
REMARK    5  A    between atoms: C11_19  and  O6_20 
REMARK    6  A    between atoms: C12_22  and  O7_23 
ROOT
HETATM    1  C4  UNL     1      -0.384  27.040  -1.778  1.00  0.00     0.185 C 
HETATM    2  O2  UNL     1       0.252  28.223  -2.046  1.00  0.00    -0.368 OA
HETATM    3  C5  UNL     1       0.482  29.024  -0.952  1.00  0.00     0.083 C 
HETATM    4  C6  UNL     1       1.417  30.143  -1.400  1.00  0.00     0.048 C 
HETATM    5  C7  UNL     1      -0.808  29.699  -0.469  1.00  0.00     0.048 C 
HETATM    6  C8  UNL     1       1.156  28.296   0.189  1.00  0.00     0.183 C 
HETATM    7  C9  UNL     1       1.465  26.866  -0.121  1.00  0.00     0.181 C 
HETATM    8  C10 UNL     1       0.365  26.142  -0.826  1.00  0.00     0.181 C 
ENDROOT
BRANCH   1   9
HETATM    9  C3  UNL     1      -0.558  26.296  -3.089  1.00  0.00     0.185 C 
HETATM   10  O1  UNL     1      -1.773  25.672  -3.181  1.00  0.00    -0.373 OA
HETATM   11  C2  UNL     1      -2.233  25.739  -4.462  1.00  0.00     0.149 C 
HETATM   12  C1  UNL     1      -3.625  26.356  -4.497  1.00  0.00     0.042 C 
HETATM   13  C12 UNL     1      -1.289  26.550  -5.288  1.00  0.00     0.178 C 
HETATM   14  C11 UNL     1      -0.502  27.293  -4.252  1.00  0.00     0.180 C 
BRANCH  13  15
HETATM   15  O7  UNL     1      -0.423  25.741  -6.042  1.00  0.00    -0.390 OA
ATOM     16  H7  UNL     1       0.259  26.249  -6.465  1.00  0.00     0.210 HD
ENDBRANCH  13  15
BRANCH  14  17
HETATM   17  O6  UNL     1       0.785  27.595  -4.621  1.00  0.00    -0.390 OA
ATOM     18  H6  UNL     1       0.924  28.530  -4.721  1.00  0.00     0.210 HD
ENDBRANCH  14  17
ENDBRANCH   1   9
BRANCH   8  19
HETATM   19  O5  UNL     1      -0.492  25.589   0.149  1.00  0.00    -0.390 OA
ATOM     20  H5  UNL     1      -1.360  25.427  -0.201  1.00  0.00     0.210 HD
ENDBRANCH   8  19
BRANCH   7  21
HETATM   21  O4  UNL     1       2.640  26.716  -0.870  1.00  0.00    -0.390 OA
ATOM     22  H4  UNL     1       3.134  25.941  -0.628  1.00  0.00     0.210 HD
ENDBRANCH   7  21
BRANCH   6  23
HETATM   23  O3  UNL     1       0.386  28.381   1.371  1.00  0.00    -0.390 OA
ATOM     24  H3  UNL     1       0.312  27.533   1.793  1.00  0.00     0.210 HD
ENDBRANCH   6  23
TORSDOF 6
ENDMDL
MODEL 4
REMARK VINA RESULT: -5.905558121      2.079      3.227
REMARK  6 active torsions:
REMARK  status: ('A' for Active; 'I' for Inactive)
REMARK    1  A    between atoms: C3_4  and  C4_5 
REMARK    2  A    between atoms: C8_10  and  O3_11 
REMARK    3  A    between atoms: C9_13  and  O4_14 
REMARK    4  A    between atoms: C10_16  and  O5_17 
REMARK    5  A    between atoms: C11_19  and  O6_20 
REMARK    6  A    between atoms: C12_22  and  O7_23 
ROOT
HETATM    1  C4  UNL     1      -0.506  27.489  -2.227  1.00  0.00     0.185 C 
HETATM    2  O2  UNL     1       0.367  28.510  -2.492  1.00  0.00    -0.368 OA
HETATM    3  C5  UNL     1       1.176  28.875  -1.443  1.00  0.00     0.083 C 
HETATM    4  C6  UNL     1       2.238  29.820  -1.997  1.00  0.00     0.048 C 
HETATM    5  C7  UNL     1       0.399  29.665  -0.381  1.00  0.00     0.048 C 
HETATM    6  C8  UNL     1       1.894  27.705  -0.809  1.00  0.00     0.183 C 
HETATM    7  C9  UNL     1       1.602  26.399  -1.477  1.00  0.00     0.181 C 
HETATM    8  C10 UNL     1       0.164  26.198  -1.826  1.00  0.00     0.181 C 
ENDROOT
BRANCH   1   9
HETATM    9  C3  UNL     1      -1.315  27.228  -3.484  1.00  0.00     0.185 C 
HETATM   10  O1  UNL     1      -0.725  27.750  -4.605  1.00  0.00    -0.373 OA
HETATM   11  C2  UNL     1      -0.924  26.915  -5.664  1.00  0.00     0.149 C 
HETATM   12  C1  UNL     1       0.406  26.544  -6.306  1.00  0.00     0.042 C 
HETATM   13  C12 UNL     1      -1.634  25.685  -5.202  1.00  0.00     0.178 C 
HETATM   14  C11 UNL     1      -1.417  25.717  -3.720  1.00  0.00     0.180 C 
BRANCH  13  15
HETATM   15  O7  UNL     1      -3.011  25.742  -5.474  1.00  0.00    -0.390 OA
ATOM     16  H7  UNL     1      -3.191  26.149  -6.314  1.00  0.00     0.210 HD
ENDBRANCH  13  15
BRANCH  14  17
HETATM   17  O6  UNL     1      -2.419  25.139  -2.984  1.00  0.00    -0.390 OA
ATOM     18  H6  UNL     1      -3.281  25.316  -3.342  1.00  0.00     0.210 HD
ENDBRANCH  14  17
ENDBRANCH   1   9
BRANCH   8  19
HETATM   19  O5  UNL     1      -0.478  25.604  -0.719  1.00  0.00    -0.390 OA
ATOM     20  H5  UNL     1      -0.555  24.663  -0.824  1.00  0.00     0.210 HD
ENDBRANCH   8  19
BRANCH   7  21
HETATM   21  O4  UNL     1       2.366  26.201  -2.636  1.00  0.00    -0.390 OA
ATOM     22  H4  UNL     1       3.154  25.696  -2.474  1.00  0.00     0.210 HD
ENDBRANCH   7  21
BRANCH   6  23
HETATM   23  O3  UNL     1       1.605  27.619   0.572  1.00  0.00    -0.390 OA
ATOM     24  H3  UNL     1       0.876  27.030   0.733  1.00  0.00     0.210 HD
ENDBRANCH   6  23
TORSDOF 6
ENDMDL
MODEL 5
REMARK VINA RESULT: -5.771068822      1.686      3.213
REMARK  6 active torsions:
REMARK  status: ('A' for Active; 'I' for Inactive)
REMARK    1  A    between atoms: C3_4  and  C4_5 
REMARK    2  A    between atoms: C8_10  and  O3_11 
REMARK    3  A    between atoms: C9_13  and  O4_14 
REMARK    4  A    between atoms: C10_16  and  O5_17 
REMARK    5  A    between atoms: C11_19  and  O6_20 
REMARK    6  A    between atoms: C12_22  and  O7_23 
ROOT
HETATM    1  C4  UNL     1       0.305  27.272  -3.459  1.00  0.00     0.185 C 
HETATM    2  O2  UNL     1      -0.415  27.936  -2.502  1.00  0.00    -0.368 OA
HETATM    3  C5  UNL     1       0.028  27.765  -1.212  1.00  0.00     0.083 C 
HETATM    4  C6  UNL     1      -0.717  28.771  -0.340  1.00  0.00     0.048 C 
HETATM    5  C7  UNL     1      -0.330  26.373  -0.675  1.00  0.00     0.048 C 
HETATM    6  C8  UNL     1       1.507  28.028  -1.050  1.00  0.00     0.183 C 
HETATM    7  C9  UNL     1       2.176  28.455  -2.318  1.00  0.00     0.181 C 
HETATM    8  C10 UNL     1       1.758  27.675  -3.522  1.00  0.00     0.181 C 
ENDROOT
BRANCH   1   9
HETATM    9  C3  UNL     1      -0.324  27.569  -4.807  1.00  0.00     0.185 C 
HETATM   10  O1  UNL     1       0.484  28.335  -5.605  1.00  0.00    -0.373 OA
HETATM   11  C2  UNL     1       0.362  27.939  -6.904  1.00  0.00     0.149 C 
HETATM   12  C1  UNL     1       1.728  27.600  -7.487  1.00  0.00     0.042 C 
HETATM   13  C12 UNL     1      -0.539  26.749  -6.978  1.00  0.00     0.178 C 
HETATM   14  C11 UNL     1      -0.550  26.255  -5.565  1.00  0.00     0.180 C 
BRANCH  13  15
HETATM   15  O7  UNL     1      -1.843  27.103  -7.361  1.00  0.00    -0.390 OA
ATOM     16  H7  UNL     1      -1.865  27.933  -7.824  1.00  0.00     0.210 HD
ENDBRANCH  13  15
BRANCH  14  17
HETATM   17  O6  UNL     1      -1.709  25.628  -5.188  1.00  0.00    -0.390 OA
ATOM     18  H6  UNL     1      -2.469  26.194  -5.263  1.00  0.00     0.210 HD
ENDBRANCH  14  17
ENDBRANCH   1   9
BRANCH   8  19
HETATM   19  O5  UNL     1       2.603  26.551  -3.631  1.00  0.00    -0.390 OA
ATOM     20  H5  UNL     1       3.445  26.782  -4.005  1.00  0.00     0.210 HD
ENDBRANCH   8  19
BRANCH   7  21
HETATM   21  O4  UNL     1       1.994  29.818  -2.594  1.00  0.00    -0.390 OA
ATOM     22  H4  UNL     1       2.814  30.275  -2.739  1.00  0.00     0.210 HD
ENDBRANCH   7  21
BRANCH   6  23
HETATM   23  O3  UNL     1       2.168  26.902  -0.509  1.00  0.00    -0.390 OA
ATOM     24  H3  UNL     1       3.016  26.774  -0.917  1.00  0.00     0.210 HD
ENDBRANCH   6  23
TORSDOF 6
ENDMDL
