MODEL 1
REMARK VINA RESULT: -6.612550694      0.000      0.000
REMARK  7 active torsions:
REMARK  status: ('A' for Active; 'I' for Inactive)
REMARK    1  A    between atoms: N1_4  and  C4_6 
REMARK    2  A    between atoms: C5_7  and  O1_8 
REMARK    3  A    between atoms: C6_10  and  O2_11 
REMARK    4  A    between atoms: C7_13  and  O3_14 
REMARK    5  A    between atoms: C8_16  and  O4_17 
REMARK    6  A    between atoms: C9_19  and  O5_20 
REMARK    7  A    between atoms: C9_19  and  C10_22 
ROOT
HETATM    1  C4  UNL     1       2.013  28.838  -2.865  1.00  0.00     0.158 C 
HETATM    2  C5  UNL     1       1.574  29.626  -1.582  1.00  0.00     0.175 C 
HETATM    3  C6  UNL     1       1.643  28.680  -0.437  1.00  0.00     0.180 C 
HETATM    4  C7  UNL     1       0.632  27.565  -0.572  1.00  0.00     0.181 C 
HETATM    5  C8  UNL     1      -0.019  27.688  -1.921  1.00  0.00     0.194 C 
HETATM    6  C9  UNL     1       1.120  27.692  -2.964  1.00  0.00     0.173 C 
ENDROOT
BRANCH   6   7
HETATM    7  O5  UNL     1       1.879  26.529  -2.579  1.00  0.00    -0.377 OA
ATOM      8  H5  UNL     1       1.288  25.785  -2.617  1.00  0.00     0.211 HD
ENDBRANCH   6   7
BRANCH   6   9
HETATM    9  C10 UNL     1       0.490  27.372  -4.241  1.00  0.00     0.162 A 
HETATM   10  N2  UNL     1      -0.745  27.449  -4.720  1.00  0.00    -0.346 N 
HETATM   11  C11 UNL     1      -0.745  27.003  -5.992  1.00  0.00     0.114 A 
ATOM     12  H2  UNL     1      -1.559  27.790  -4.210  1.00  0.00     0.167 HD
HETATM   13  C12 UNL     1       0.537  26.656  -6.271  1.00  0.00     0.161 A 
HETATM   14  O6  UNL     1       1.232  26.883  -5.227  1.00  0.00    -0.305 OA
ENDBRANCH   6   9
BRANCH   1  15
HETATM   15  N1  UNL     1       2.177  29.762  -3.866  1.00  0.00    -0.386 N 
HETATM   16  C2  UNL     1       2.990  29.824  -4.835  1.00  0.00    -0.025 C 
HETATM   17  C1  UNL     1       3.979  28.720  -5.003  1.00  0.00     0.062 C 
HETATM   18  C3  UNL     1       2.993  30.990  -5.795  1.00  0.00     0.062 C 
ATOM     19  H1  UNL     1       1.524  30.544  -3.821  1.00  0.00     0.159 HD
ENDBRANCH   1  15
BRANCH   5  20
HETATM   20  O4  UNL     1      -0.666  26.443  -2.165  1.00  0.00    -0.389 OA
ATOM     21  H4  UNL     1      -0.141  25.994  -2.818  1.00  0.00     0.210 HD
ENDBRANCH   5  20
BRANCH   2  22
HETATM   22  O1  UNL     1       2.527  30.618  -1.458  1.00  0.00    -0.391 OA
ATOM     23  H1  UNL     1       2.057  31.338  -1.055  1.00  0.00     0.210 HD
ENDBRANCH   2  22
BRANCH   4  24
HETATM   24  O3  UNL     1      -0.351  27.638   0.418  1.00  0.00    -0.390 OA
ATOM     25  H3  UNL     1      -0.938  26.892   0.384  1.00  0.00     0.210 HD
ENDBRANCH   4  24
BRANCH   3  26
HETATM   26  O2  UNL     1       2.916  28.116  -0.432  1.00  0.00    -0.390 OA
ATOM     27  H2  UNL     1       2.818  27.188  -0.253  1.00  0.00     0.210 HD
ENDBRANCH   3  26
TORSDOF 7
ENDMDL
MODEL 2
REMARK VINA RESULT: -6.551343402      1.657      1.806
REMARK  7 active torsions:
REMARK  status: ('A' for Active; 'I' for Inactive)
REMARK    1  A    between atoms: N1_4  and  C4_6 
REMARK    2  A    between atoms: C5_7  and  O1_8 
REMARK    3  A    between atoms: C6_10  and  O2_11 
REMARK    4  A    between atoms: C7_13  and  O3_14 
REMARK    5  A    between atoms: C8_16  and  O4_17 
REMARK    6  A    between atoms: C9_19  and  O5_20 
REMARK    7  A    between atoms: C9_19  and  C10_22 
ROOT
HETATM    1  C4  UNL     1       1.630  28.211  -2.546  1.00  0.00     0.158 C 
HETATM    2  C5  UNL     1       1.764  29.412  -1.546  1.00  0.00     0.175 C 
HETATM    3  C6  UNL     1       2.129  28.847  -0.221  1.00  0.00     0.180 C 
HETATM    4  C7  UNL     1       1.020  27.991   0.346  1.00  0.00     0.181 C 
HETATM    5  C8  UNL     1      -0.048  27.859  -0.701  1.00  0.00     0.194 C 
HETATM    6  C9  UNL     1       0.640  27.311  -1.970  1.00  0.00     0.173 C 
ENDROOT
BRANCH   6   7
HETATM    7  O5  UNL     1       1.353  26.172  -1.452  1.00  0.00    -0.377 OA
ATOM      8  H5  UNL     1       0.705  25.513  -1.232  1.00  0.00     0.211 HD
ENDBRANCH   6   7
BRANCH   6   9
HETATM    9  C10 UNL     1      -0.433  26.783  -2.807  1.00  0.00     0.162 A 
HETATM   10  N2  UNL     1      -0.828  25.568  -3.166  1.00  0.00    -0.346 N 
HETATM   11  C11 UNL     1      -1.900  25.681  -3.974  1.00  0.00     0.114 A 
ATOM     12  H2  UNL     1      -0.390  24.693  -2.878  1.00  0.00     0.167 HD
HETATM   13  C12 UNL     1      -2.147  27.012  -4.089  1.00  0.00     0.161 A 
HETATM   14  O6  UNL     1      -1.271  27.625  -3.396  1.00  0.00    -0.305 OA
ENDBRANCH   6   9
BRANCH   1  15
HETATM   15  N1  UNL     1       1.529  28.748  -3.804  1.00  0.00    -0.386 N 
HETATM   16  C2  UNL     1       2.031  28.401  -4.914  1.00  0.00    -0.025 C 
HETATM   17  C1  UNL     1       2.895  27.186  -4.953  1.00  0.00     0.062 C 
HETATM   18  C3  UNL     1       1.795  29.198  -6.176  1.00  0.00     0.062 C 
ATOM     19  H1  UNL     1       0.940  29.579  -3.856  1.00  0.00     0.159 HD
ENDBRANCH   1  15
BRANCH   5  20
HETATM   20  O4  UNL     1      -0.873  26.772  -0.294  1.00  0.00    -0.389 OA
ATOM     21  H4  UNL     1      -1.528  26.666  -0.973  1.00  0.00     0.210 HD
ENDBRANCH   5  20
BRANCH   2  22
HETATM   22  O1  UNL     1       2.801  30.163  -2.063  1.00  0.00    -0.391 OA
ATOM     23  H1  UNL     1       2.580  30.259  -2.981  1.00  0.00     0.210 HD
ENDBRANCH   2  22
BRANCH   4  24
HETATM   24  O3  UNL     1       0.467  28.561   1.496  1.00  0.00    -0.390 OA
ATOM     25  H3  UNL     1      -0.108  29.287   1.284  1.00  0.00     0.210 HD
ENDBRANCH   4  24
BRANCH   3  26
HETATM   26  O2  UNL     1       3.252  28.042  -0.401  1.00  0.00    -0.390 OA
ATOM     27  H2  UNL     1       3.707  27.992   0.431  1.00  0.00     0.210 HD
ENDBRANCH   3  26
TORSDOF 7
ENDMDL
MODEL 3
REMARK VINA RESULT: -6.532277892      1.929      4.201
REMARK  7 active torsions:
REMARK  status: ('A' for Active; 'I' for Inactive)
REMARK    1  A    between atoms: N1_4  and  C4_6 
REMARK    2  A    between atoms: C5_7  and  O1_8 
REMARK    3  A    between atoms: C6_10  and  O2_11 
REMARK    4  A    between atoms: C7_13  and  O3_14 
REMARK    5  A    between atoms: C8_16  and  O4_17 
REMARK    6  A    between atoms: C9_19  and  O5_20 
REMARK    7  A    between atoms: C9_19  and  C10_22 
ROOT
HETATM    1  C4  UNL     1       1.128  28.105  -2.913  1.00  0.00     0.158 C 
HETATM    2  C5  UNL     1      -0.434  28.037  -3.045  1.00  0.00     0.175 C 
HETATM    3  C6  UNL     1      -0.770  26.714  -3.635  1.00  0.00     0.180 C 
HETATM    4  C7  UNL     1      -0.255  26.587  -5.050  1.00  0.00     0.181 C 
HETATM    5  C8  UNL     1       0.580  27.798  -5.353  1.00  0.00     0.194 C 
HETATM    6  C9  UNL     1       1.659  27.879  -4.250  1.00  0.00     0.173 C 
ENDROOT
BRANCH   6   7
HETATM    7  O5  UNL     1       2.203  26.545  -4.269  1.00  0.00    -0.377 OA
ATOM      8  H5  UNL     1       1.522  25.962  -3.954  1.00  0.00     0.211 HD
ENDBRANCH   6   7
BRANCH   6   9
HETATM    9  C10 UNL     1       2.698  28.759  -4.775  1.00  0.00     0.162 A 
HETATM   10  N2  UNL     1       3.973  28.605  -5.109  1.00  0.00    -0.346 N 
HETATM   11  C11 UNL     1       4.454  29.787  -5.544  1.00  0.00     0.114 A 
ATOM     12  H2  UNL     1       4.503  27.735  -5.046  1.00  0.00     0.167 HD
HETATM   13  C12 UNL     1       3.421  30.665  -5.468  1.00  0.00     0.161 A 
HETATM   14  O6  UNL     1       2.412  30.032  -5.015  1.00  0.00    -0.305 OA
ENDBRANCH   6   9
BRANCH   1  15
HETATM   15  N1  UNL     1       1.416  29.214  -2.158  1.00  0.00    -0.386 N 
HETATM   16  C2  UNL     1       1.918  29.342  -1.003  1.00  0.00    -0.025 C 
HETATM   17  C1  UNL     1       2.310  28.110  -0.259  1.00  0.00     0.062 C 
HETATM   18  C3  UNL     1       2.101  30.698  -0.362  1.00  0.00     0.062 C 
ATOM     19  H1  UNL     1       1.184  30.098  -2.611  1.00  0.00     0.159 HD
ENDBRANCH   1  15
BRANCH   5  20
HETATM   20  O4  UNL     1       1.339  27.478  -6.515  1.00  0.00    -0.389 OA
ATOM     21  H4  UNL     1       1.747  28.289  -6.797  1.00  0.00     0.210 HD
ENDBRANCH   5  20
BRANCH   2  22
HETATM   22  O1  UNL     1      -0.883  28.121  -1.743  1.00  0.00    -0.391 OA
ATOM     23  H1  UNL     1      -1.804  27.895  -1.801  1.00  0.00     0.210 HD
ENDBRANCH   2  22
BRANCH   4  24
HETATM   24  O3  UNL     1      -1.301  26.510  -5.974  1.00  0.00    -0.390 OA
ATOM     25  H3  UNL     1      -1.047  26.859  -6.820  1.00  0.00     0.210 HD
ENDBRANCH   4  24
BRANCH   3  26
HETATM   26  O2  UNL     1      -0.154  25.736  -2.858  1.00  0.00    -0.390 OA
ATOM     27  H2  UNL     1       0.784  25.822  -2.979  1.00  0.00     0.210 HD
ENDBRANCH   3  26
TORSDOF 7
ENDMDL
MODEL 4
REMARK VINA RESULT: -6.276304991      2.236      5.065
REMARK  7 active torsions:
REMARK  status: ('A' for Active; 'I' for Inactive)
REMARK    1  A    between atoms: N1_4  and  C4_6 
REMARK    2  A    between atoms: C5_7  and  O1_8 
REMARK    3  A    between atoms: C6_10  and  O2_11 
REMARK    4  A    between atoms: C7_13  and  O3_14 
REMARK    5  A    between atoms: C8_16  and  O4_17 
REMARK    6  A    between atoms: C9_19  and  O5_20 
REMARK    7  A    between atoms: C9_19  and  C10_22 
ROOT
HETATM    1  C4  UNL     1       0.384  27.436  -4.152  1.00  0.00     0.158 C 
HETATM    2  C5  UNL     1      -1.081  27.470  -4.713  1.00  0.00     0.175 C 
HETATM    3  C6  UNL     1      -1.172  26.434  -5.775  1.00  0.00     0.180 C 
HETATM    4  C7  UNL     1      -0.295  26.769  -6.959  1.00  0.00     0.181 C 
HETATM    5  C8  UNL     1       0.519  27.981  -6.608  1.00  0.00     0.194 C 
HETATM    6  C9  UNL     1       1.262  27.652  -5.294  1.00  0.00     0.173 C 
ENDROOT
BRANCH   6   7
HETATM    7  O5  UNL     1       1.868  26.383  -5.607  1.00  0.00    -0.377 OA
ATOM      8  H5  UNL     1       2.658  26.315  -5.085  1.00  0.00     0.211 HD
ENDBRANCH   6   7
BRANCH   6   9
HETATM    9  C10 UNL     1       2.350  28.619  -5.199  1.00  0.00     0.162 A 
HETATM   10  N2  UNL     1       3.665  28.536  -5.042  1.00  0.00    -0.346 N 
HETATM   11  C11 UNL     1       4.180  29.781  -5.021  1.00  0.00     0.114 A 
ATOM     12  H2  UNL     1       4.198  27.671  -4.952  1.00  0.00     0.167 HD
HETATM   13  C12 UNL     1       3.128  30.626  -5.177  1.00  0.00     0.161 A 
HETATM   14  O6  UNL     1       2.076  29.915  -5.277  1.00  0.00    -0.305 OA
ENDBRANCH   6   9
BRANCH   1  15
HETATM   15  N1  UNL     1       0.398  28.217  -3.025  1.00  0.00    -0.386 N 
HETATM   16  C2  UNL     1       0.813  27.997  -1.849  1.00  0.00    -0.025 C 
HETATM   17  C1  UNL     1       1.427  26.671  -1.550  1.00  0.00     0.062 C 
HETATM   18  C3  UNL     1       0.675  29.027  -0.752  1.00  0.00     0.062 C 
ATOM     19  H1  UNL     1       0.001  29.147  -3.158  1.00  0.00     0.159 HD
ENDBRANCH   1  15
BRANCH   5  20
HETATM   20  O4  UNL     1       1.575  28.042  -7.561  1.00  0.00    -0.389 OA
ATOM     21  H4  UNL     1       2.039  28.854  -7.392  1.00  0.00     0.210 HD
ENDBRANCH   5  20
BRANCH   2  22
HETATM   22  O1  UNL     1      -1.862  27.130  -3.627  1.00  0.00    -0.391 OA
ATOM     23  H1  UNL     1      -1.250  27.108  -2.901  1.00  0.00     0.210 HD
ENDBRANCH   2  22
BRANCH   4  24
HETATM   24  O3  UNL     1      -1.053  27.042  -8.101  1.00  0.00    -0.390 OA
ATOM     25  H3  UNL     1      -0.966  27.949  -8.370  1.00  0.00     0.210 HD
ENDBRANCH   4  24
BRANCH   3  26
HETATM   26  O2  UNL     1      -0.727  25.231  -5.231  1.00  0.00    -0.390 OA
ATOM     27  H2  UNL     1      -0.732  24.582  -5.924  1.00  0.00     0.210 HD
ENDBRANCH   3  26
TORSDOF 7
ENDMDL
MODEL 5
REMARK VINA RESULT: -6.248995112      2.442      4.039
REMARK  7 active torsions:
REMARK  status: ('A' for Active; 'I' for Inactive)
REMARK    1  A    between atoms: N1_4  and  C4_6 
REMARK    2  A    between atoms: C5_7  and  O1_8 
REMARK    3  A    between atoms: C6_10  and  O2_11 
REMARK    4  A    between atoms: C7_13  and  O3_14 
REMARK    5  A    between atoms: C8_16  and  O4_17 
REMARK    6  A    between atoms: C9_19  and  O5_20 
REMARK    7  A    between atoms: C9_19  and  C10_22 
ROOT
HETATM    1  C4  UNL     1       0.144  27.341  -4.603  1.00  0.00     0.158 C 
HETATM    2  C5  UNL     1      -1.077  27.521  -3.635  1.00  0.00     0.175 C 
HETATM    3  C6  UNL     1      -1.904  26.290  -3.733  1.00  0.00     0.180 C 
HETATM    4  C7  UNL     1      -2.517  26.136  -5.106  1.00  0.00     0.181 C 
HETATM    5  C8  UNL     1      -1.955  27.213  -5.990  1.00  0.00     0.194 C 
HETATM    6  C9  UNL     1      -0.417  27.085  -5.923  1.00  0.00     0.173 C 
ENDROOT
BRANCH   6   7
HETATM    7  O5  UNL     1      -0.224  25.684  -6.200  1.00  0.00    -0.377 OA
ATOM      8  H5  UNL     1      -0.875  25.208  -5.696  1.00  0.00     0.211 HD
ENDBRANCH   6   7
BRANCH   6   9
HETATM    9  C10 UNL     1       0.093  27.811  -7.081  1.00  0.00     0.162 A 
HETATM   10  N2  UNL     1      -0.362  28.799  -7.841  1.00  0.00    -0.346 N 
HETATM   11  C11 UNL     1       0.552  29.071  -8.793  1.00  0.00     0.114 A 
ATOM     12  H2  UNL     1      -1.257  29.274  -7.723  1.00  0.00     0.167 HD
HETATM   13  C12 UNL     1       1.584  28.214  -8.581  1.00  0.00     0.161 A 
HETATM   14  O6  UNL     1       1.283  27.493  -7.575  1.00  0.00    -0.305 OA
ENDBRANCH   6   9
BRANCH   1  15
HETATM   15  N1  UNL     1       1.020  28.362  -4.336  1.00  0.00    -0.386 N 
HETATM   16  C2  UNL     1       2.285  28.419  -4.361  1.00  0.00    -0.025 C 
HETATM   17  C1  UNL     1       3.043  27.198  -4.759  1.00  0.00     0.062 C 
HETATM   18  C3  UNL     1       3.031  29.676  -3.977  1.00  0.00     0.062 C 
ATOM     19  H1  UNL     1       0.570  29.237  -4.066  1.00  0.00     0.159 HD
ENDBRANCH   1  15
BRANCH   5  20
HETATM   20  O4  UNL     1      -2.246  26.823  -7.328  1.00  0.00    -0.389 OA
ATOM     21  H4  UNL     1      -3.181  26.950  -7.445  1.00  0.00     0.210 HD
ENDBRANCH   5  20
BRANCH   2  22
HETATM   22  O1  UNL     1      -0.499  27.626  -2.386  1.00  0.00    -0.391 OA
ATOM     23  H1  UNL     1      -1.091  27.148  -1.818  1.00  0.00     0.210 HD
ENDBRANCH   2  22
BRANCH   4  24
HETATM   24  O3  UNL     1      -3.908  26.258  -5.066  1.00  0.00    -0.390 OA
ATOM     25  H3  UNL     1      -4.266  26.468  -5.920  1.00  0.00     0.210 HD
ENDBRANCH   4  24
BRANCH   3  26
HETATM   26  O2  UNL     1      -1.067  25.199  -3.506  1.00  0.00    -0.390 OA
ATOM     27  H2  UNL     1      -1.527  24.419  -3.794  1.00  0.00     0.210 HD
ENDBRANCH   3  26
TORSDOF 7
ENDMDL
