MODEL 1
REMARK VINA RESULT: -6.575088810      0.000      0.000
REMARK  6 active torsions:
REMARK  status: ('A' for Active; 'I' for Inactive)
REMARK    1  A    between atoms: C2_2  and  O1_4 
REMARK    2  A    between atoms: O1_4  and  C4_5 
REMARK    3  A    between atoms: C5_6  and  O2_7 
REMARK    4  A    between atoms: C10_15  and  O5_16 
REMARK    5  A    between atoms: C11_18  and  O6_19 
REMARK    6  A    between atoms: C12_21  and  O7_22 
ROOT
HETATM    1  C4  UNL     1       0.156  27.075  -4.451  1.00  0.00     0.218 C 
HETATM    2  C5  UNL     1      -1.273  27.230  -5.013  1.00  0.00     0.181 C 
HETATM    3  C6  UNL     1      -1.944  26.307  -3.982  1.00  0.00     0.152 C 
HETATM    4  C7  UNL     1      -3.413  26.252  -4.134  1.00  0.00     0.042 C 
HETATM    5  O3  UNL     1      -1.514  26.913  -2.810  1.00  0.00    -0.343 OA
HETATM    6  C8  UNL     1      -0.123  27.086  -2.998  1.00  0.00     0.223 C 
HETATM    7  O4  UNL     1       0.471  26.004  -2.347  1.00  0.00    -0.348 OA
HETATM    8  C9  UNL     1      -0.133  25.836  -1.118  1.00  0.00     0.206 C 
HETATM    9  C10 UNL     1       0.276  26.974  -0.222  1.00  0.00     0.173 C 
HETATM   10  C11 UNL     1      -0.214  28.265  -0.845  1.00  0.00     0.183 C 
HETATM   11  C12 UNL     1       0.234  28.385  -2.291  1.00  0.00     0.214 C 
ENDROOT
BRANCH   1  12
HETATM   12  O1  UNL     1       1.018  28.005  -4.941  1.00  0.00    -0.373 OA
BRANCH  12  13
HETATM   13  C2  UNL     1       2.142  27.461  -5.551  1.00  0.00     0.114 C 
HETATM   14  C1  UNL     1       1.965  27.592  -7.048  1.00  0.00     0.039 C 
HETATM   15  C3  UNL     1       3.435  28.103  -5.181  1.00  0.00     0.039 C 
ENDBRANCH  12  13
ENDBRANCH   1  12
BRANCH  11  16
HETATM   16  O7  UNL     1       1.577  28.676  -2.360  1.00  0.00    -0.387 OA
ATOM     17  H7  UNL     1       1.767  29.392  -2.956  1.00  0.00     0.210 HD
ENDBRANCH  11  16
BRANCH   2  18
HETATM   18  O2  UNL     1      -1.379  26.714  -6.287  1.00  0.00    -0.390 OA
ATOM     19  H2  UNL     1      -0.900  27.237  -6.919  1.00  0.00     0.210 HD
ENDBRANCH   2  18
BRANCH  10  20
HETATM   20  O6  UNL     1       0.311  29.344  -0.138  1.00  0.00    -0.390 OA
ATOM     21  H6  UNL     1       0.466  30.065  -0.737  1.00  0.00     0.210 HD
ENDBRANCH  10  20
BRANCH   9  22
HETATM   22  O5  UNL     1       1.663  27.018  -0.155  1.00  0.00    -0.391 OA
ATOM     23  H5  UNL     1       1.945  26.611   0.656  1.00  0.00     0.210 HD
ENDBRANCH   9  22
TORSDOF 6
ENDMDL
MODEL 2
REMARK VINA RESULT: -6.368351589      2.826      5.656
REMARK  6 active torsions:
REMARK  status: ('A' for Active; 'I' for Inactive)
REMARK    1  A    between atoms: C2_2  and  O1_4 
REMARK    2  A    between atoms: O1_4  and  C4_5 
REMARK    3  A    between atoms: C5_6  and  O2_7 
REMARK    4  A    between atoms: C10_15  and  O5_16 
REMARK    5  A    between atoms: C11_18  and  O6_19 
REMARK    6  A    between atoms: C12_21  and  O7_22 
ROOT
HETATM    1  C4  UNL     1       1.818  28.911  -4.000  1.00  0.00     0.218 C 
HETATM    2  C5  UNL     1       1.434  27.488  -4.456  1.00  0.00     0.181 C 
HETATM    3  C6  UNL     1       1.019  27.890  -5.882  1.00  0.00     0.152 C 
HETATM    4  C7  UNL     1       0.645  26.731  -6.717  1.00  0.00     0.042 C 
HETATM    5  O3  UNL     1       2.178  28.537  -6.289  1.00  0.00    -0.343 OA
HETATM    6  C8  UNL     1       2.478  29.419  -5.224  1.00  0.00     0.223 C 
HETATM    7  O4  UNL     1       1.963  30.654  -5.617  1.00  0.00    -0.348 OA
HETATM    8  C9  UNL     1       2.305  30.881  -6.935  1.00  0.00     0.206 C 
HETATM    9  C10 UNL     1       3.784  31.146  -7.009  1.00  0.00     0.173 C 
HETATM   10  C11 UNL     1       4.510  29.913  -6.512  1.00  0.00     0.183 C 
HETATM   11  C12 UNL     1       3.996  29.481  -5.150  1.00  0.00     0.214 C 
ENDROOT
BRANCH   1  12
HETATM   12  O1  UNL     1       2.531  28.919  -2.843  1.00  0.00    -0.373 OA
BRANCH  12  13
HETATM   13  C2  UNL     1       1.772  29.222  -1.719  1.00  0.00     0.114 C 
HETATM   14  C1  UNL     1       1.937  28.087  -0.730  1.00  0.00     0.039 C 
HETATM   15  C3  UNL     1       2.141  30.491  -1.031  1.00  0.00     0.039 C 
ENDBRANCH  12  13
ENDBRANCH   1  12
BRANCH  11  16
HETATM   16  O7  UNL     1       4.445  30.334  -4.168  1.00  0.00    -0.387 OA
ATOM     17  H7  UNL     1       4.768  31.157  -4.517  1.00  0.00     0.210 HD
ENDBRANCH  11  16
BRANCH   2  18
HETATM   18  O2  UNL     1       0.360  26.997  -3.746  1.00  0.00    -0.390 OA
ATOM     19  H2  UNL     1       0.584  26.204  -3.273  1.00  0.00     0.210 HD
ENDBRANCH   2  18
BRANCH  10  20
HETATM   20  O6  UNL     1       5.868  30.196  -6.392  1.00  0.00    -0.390 OA
ATOM     21  H6  UNL     1       6.365  29.575  -6.912  1.00  0.00     0.210 HD
ENDBRANCH  10  20
BRANCH   9  22
HETATM   22  O5  UNL     1       4.095  32.207  -6.166  1.00  0.00    -0.391 OA
ATOM     23  H5  UNL     1       4.880  32.635  -6.487  1.00  0.00     0.210 HD
ENDBRANCH   9  22
TORSDOF 6
ENDMDL
MODEL 3
REMARK VINA RESULT: -6.026673221      1.773      5.130
REMARK  6 active torsions:
REMARK  status: ('A' for Active; 'I' for Inactive)
REMARK    1  A    between atoms: C2_2  and  O1_4 
REMARK    2  A    between atoms: O1_4  and  C4_5 
REMARK    3  A    between atoms: C5_6  and  O2_7 
REMARK    4  A    between atoms: C10_15  and  O5_16 
REMARK    5  A    between atoms: C11_18  and  O6_19 
REMARK    6  A    between atoms: C12_21  and  O7_22 
ROOT
HETATM    1  C4  UNL     1       2.100  28.064  -3.354  1.00  0.00     0.218 C 
HETATM    2  C5  UNL     1       2.300  29.589  -3.469  1.00  0.00     0.181 C 
HETATM    3  C6  UNL     1       2.549  29.597  -4.987  1.00  0.00     0.152 C 
HETATM    4  C7  UNL     1       2.710  30.960  -5.533  1.00  0.00     0.042 C 
HETATM    5  O3  UNL     1       1.402  28.942  -5.415  1.00  0.00    -0.343 OA
HETATM    6  C8  UNL     1       1.323  27.799  -4.586  1.00  0.00     0.223 C 
HETATM    7  O4  UNL     1       1.879  26.763  -5.337  1.00  0.00    -0.348 OA
HETATM    8  C9  UNL     1       1.381  26.827  -6.623  1.00  0.00     0.206 C 
HETATM    9  C10 UNL     1      -0.068  26.423  -6.597  1.00  0.00     0.173 C 
HETATM   10  C11 UNL     1      -0.818  27.407  -5.723  1.00  0.00     0.183 C 
HETATM   11  C12 UNL     1      -0.160  27.549  -4.362  1.00  0.00     0.214 C 
ENDROOT
BRANCH   1  12
HETATM   12  O1  UNL     1       1.554  27.693  -2.165  1.00  0.00    -0.373 OA
BRANCH  12  13
HETATM   13  C2  UNL     1       1.329  28.754  -1.296  1.00  0.00     0.114 C 
HETATM   14  C1  UNL     1      -0.125  28.709  -0.878  1.00  0.00     0.039 C 
HETATM   15  C3  UNL     1       2.165  28.748  -0.063  1.00  0.00     0.039 C 
ENDBRANCH  12  13
ENDBRANCH   1  12
BRANCH  11  16
HETATM   16  O7  UNL     1      -0.401  26.436  -3.588  1.00  0.00    -0.387 OA
ATOM     17  H7  UNL     1       0.388  25.938  -3.407  1.00  0.00     0.210 HD
ENDBRANCH  11  16
BRANCH   2  18
HETATM   18  O2  UNL     1       3.417  30.011  -2.780  1.00  0.00    -0.390 OA
ATOM     19  H2  UNL     1       3.193  30.622  -2.087  1.00  0.00     0.210 HD
ENDBRANCH   2  18
BRANCH  10  20
HETATM   20  O6  UNL     1      -2.120  26.950  -5.530  1.00  0.00    -0.390 OA
ATOM     21  H6  UNL     1      -2.596  27.578  -4.998  1.00  0.00     0.210 HD
ENDBRANCH  10  20
BRANCH   9  22
HETATM   22  O5  UNL     1      -0.173  25.160  -6.026  1.00  0.00    -0.391 OA
ATOM     23  H5  UNL     1      -1.079  25.006  -5.784  1.00  0.00     0.210 HD
ENDBRANCH   9  22
TORSDOF 6
ENDMDL
MODEL 4
REMARK VINA RESULT: -5.933536062      1.568      3.832
REMARK  6 active torsions:
REMARK  status: ('A' for Active; 'I' for Inactive)
REMARK    1  A    between atoms: C2_2  and  O1_4 
REMARK    2  A    between atoms: O1_4  and  C4_5 
REMARK    3  A    between atoms: C5_6  and  O2_7 
REMARK    4  A    between atoms: C10_15  and  O5_16 
REMARK    5  A    between atoms: C11_18  and  O6_19 
REMARK    6  A    between atoms: C12_21  and  O7_22 
ROOT
HETATM    1  C4  UNL     1       0.638  27.983  -3.848  1.00  0.00     0.218 C 
HETATM    2  C5  UNL     1       1.892  28.109  -4.739  1.00  0.00     0.181 C 
HETATM    3  C6  UNL     1       2.427  29.387  -4.071  1.00  0.00     0.152 C 
HETATM    4  C7  UNL     1       3.734  29.811  -4.613  1.00  0.00     0.042 C 
HETATM    5  O3  UNL     1       2.468  28.962  -2.750  1.00  0.00    -0.343 OA
HETATM    6  C8  UNL     1       1.199  28.373  -2.535  1.00  0.00     0.223 C 
HETATM    7  O4  UNL     1       0.436  29.364  -1.918  1.00  0.00    -0.348 OA
HETATM    8  C9  UNL     1       1.194  29.961  -0.931  1.00  0.00     0.206 C 
HETATM    9  C10 UNL     1       1.369  28.983   0.199  1.00  0.00     0.173 C 
HETATM   10  C11 UNL     1       2.109  27.774  -0.334  1.00  0.00     0.183 C 
HETATM   11  C12 UNL     1       1.435  27.216  -1.575  1.00  0.00     0.214 C 
ENDROOT
BRANCH   1  12
HETATM   12  O1  UNL     1       0.041  26.767  -3.949  1.00  0.00    -0.373 OA
BRANCH  12  13
HETATM   13  C2  UNL     1      -1.320  26.831  -4.224  1.00  0.00     0.114 C 
HETATM   14  C1  UNL     1      -1.488  26.847  -5.728  1.00  0.00     0.039 C 
HETATM   15  C3  UNL     1      -2.128  25.703  -3.680  1.00  0.00     0.039 C 
ENDBRANCH  12  13
ENDBRANCH   1  12
BRANCH  11  16
HETATM   16  O7  UNL     1       0.274  26.557  -1.243  1.00  0.00    -0.387 OA
ATOM     17  H7  UNL     1       0.434  25.749  -0.768  1.00  0.00     0.210 HD
ENDBRANCH  11  16
BRANCH   2  18
HETATM   18  O2  UNL     1       1.560  28.338  -6.057  1.00  0.00    -0.390 OA
ATOM     19  H2  UNL     1       2.209  27.979  -6.651  1.00  0.00     0.210 HD
ENDBRANCH   2  18
BRANCH  10  20
HETATM   20  O6  UNL     1       2.118  26.776   0.638  1.00  0.00    -0.390 OA
ATOM     21  H6  UNL     1       2.449  25.971   0.257  1.00  0.00     0.210 HD
ENDBRANCH  10  20
BRANCH   9  22
HETATM   22  O5  UNL     1       0.115  28.572   0.636  1.00  0.00    -0.391 OA
ATOM     23  H5  UNL     1       0.081  28.645   1.583  1.00  0.00     0.210 HD
ENDBRANCH   9  22
TORSDOF 6
ENDMDL
MODEL 5
REMARK VINA RESULT: -5.922631458      1.489      1.992
REMARK  6 active torsions:
REMARK  status: ('A' for Active; 'I' for Inactive)
REMARK    1  A    between atoms: C2_2  and  O1_4 
REMARK    2  A    between atoms: O1_4  and  C4_5 
REMARK    3  A    between atoms: C5_6  and  O2_7 
REMARK    4  A    between atoms: C10_15  and  O5_16 
REMARK    5  A    between atoms: C11_18  and  O6_19 
REMARK    6  A    between atoms: C12_21  and  O7_22 
ROOT
HETATM    1  C4  UNL     1       2.155  27.632  -4.281  1.00  0.00     0.218 C 
HETATM    2  C5  UNL     1       1.206  27.927  -5.461  1.00  0.00     0.181 C 
HETATM    3  C6  UNL     1       0.101  26.954  -5.016  1.00  0.00     0.152 C 
HETATM    4  C7  UNL     1      -1.090  27.004  -5.888  1.00  0.00     0.042 C 
HETATM    5  O3  UNL     1      -0.116  27.419  -3.726  1.00  0.00    -0.343 OA
HETATM    6  C8  UNL     1       1.181  27.523  -3.171  1.00  0.00     0.223 C 
HETATM    7  O4  UNL     1       1.360  26.350  -2.438  1.00  0.00    -0.348 OA
HETATM    8  C9  UNL     1       0.217  26.104  -1.704  1.00  0.00     0.206 C 
HETATM    9  C10 UNL     1       0.124  27.125  -0.602  1.00  0.00     0.173 C 
HETATM   10  C11 UNL     1       0.023  28.496  -1.237  1.00  0.00     0.183 C 
HETATM   11  C12 UNL     1       1.140  28.725  -2.240  1.00  0.00     0.214 C 
ENDROOT
BRANCH   1  12
HETATM   12  O1  UNL     1       3.151  28.550  -4.164  1.00  0.00    -0.373 OA
BRANCH  12  13
HETATM   13  C2  UNL     1       3.294  29.367  -5.279  1.00  0.00     0.114 C 
HETATM   14  C1  UNL     1       2.755  30.736  -4.921  1.00  0.00     0.039 C 
HETATM   15  C3  UNL     1       4.692  29.534  -5.766  1.00  0.00     0.039 C 
ENDBRANCH  12  13
ENDBRANCH   1  12
BRANCH  11  16
HETATM   16  O7  UNL     1       2.336  28.938  -1.594  1.00  0.00    -0.387 OA
ATOM     17  H7  UNL     1       2.674  29.816  -1.728  1.00  0.00     0.210 HD
ENDBRANCH  11  16
BRANCH   2  18
HETATM   18  O2  UNL     1       1.754  27.542  -6.665  1.00  0.00    -0.390 OA
ATOM     19  H2  UNL     1       1.256  26.841  -7.070  1.00  0.00     0.210 HD
ENDBRANCH   2  18
BRANCH  10  20
HETATM   20  O6  UNL     1       0.126  29.470  -0.245  1.00  0.00    -0.390 OA
ATOM     21  H6  UNL     1      -0.548  30.126  -0.381  1.00  0.00     0.210 HD
ENDBRANCH  10  20
BRANCH   9  22
HETATM   22  O5  UNL     1       1.289  27.077   0.155  1.00  0.00    -0.391 OA
ATOM     23  H5  UNL     1       1.116  26.593   0.954  1.00  0.00     0.210 HD
ENDBRANCH   9  22
TORSDOF 6
ENDMDL
