MODEL 1
REMARK VINA RESULT: -6.718437714      0.000      0.000
REMARK  6 active torsions:
REMARK  status: ('A' for Active; 'I' for Inactive)
REMARK    1  A    between atoms: N1_2  and  C2_4 
REMARK    2  A    between atoms: C2_4  and  O1_5 
REMARK    3  A    between atoms: C3_7  and  N2_8 
REMARK    4  A    between atoms: C6_16  and  O4_17 
REMARK    5  A    between atoms: C8_19  and  O5_20 
REMARK    6  A    between atoms: C9_22  and  O6_23 
ROOT
HETATM    1  C2  UNL     1       0.533  28.311  -1.258  1.00  0.00     0.166 C 
HETATM    2  C3  UNL     1       0.930  26.949  -0.769  1.00  0.00     0.262 C 
HETATM    3  C4  UNL     1      -0.178  26.001  -1.101  1.00  0.00     0.209 C 
HETATM    4  O2  UNL     1      -0.686  26.040  -2.325  1.00  0.00    -0.350 OA
HETATM    5  C5  UNL     1      -0.568  27.096  -3.133  1.00  0.00     0.203 C 
HETATM    6  O3  UNL     1      -1.882  27.577  -3.377  1.00  0.00    -0.319 OA
HETATM    7  C6  UNL     1      -2.521  26.424  -3.761  1.00  0.00     0.294 C 
HETATM    8  C8  UNL     1      -1.613  25.878  -4.844  1.00  0.00     0.207 C 
HETATM    9  C9  UNL     1      -0.266  26.548  -4.535  1.00  0.00     0.214 C 
HETATM   10  C10 UNL     1       0.298  28.220  -2.747  1.00  0.00     0.104 C 
HETATM   11  C11 UNL     1       1.637  28.248  -3.463  1.00  0.00     0.021 C 
ENDROOT
BRANCH   9  12
HETATM   12  O6  UNL     1       0.025  27.539  -5.433  1.00  0.00    -0.387 OA
ATOM     13  H6  UNL     1      -0.390  27.398  -6.276  1.00  0.00     0.210 HD
ENDBRANCH   9  12
BRANCH   7  14
HETATM   14  O4  UNL     1      -3.765  26.637  -4.343  1.00  0.00    -0.363 OA
HETATM   15  C7  UNL     1      -3.681  26.748  -5.726  1.00  0.00     0.204 C 
ENDBRANCH   7  14
BRANCH   8  16
HETATM   16  O5  UNL     1      -1.537  24.499  -4.654  1.00  0.00    -0.388 OA
ATOM     17  H5  UNL     1      -1.126  24.134  -5.429  1.00  0.00     0.210 HD
ENDBRANCH   8  16
BRANCH   1  18
HETATM   18  N1  UNL     1       1.485  29.269  -0.865  1.00  0.00    -0.394 N 
HETATM   19  C1  UNL     1       1.778  29.373   0.510  1.00  0.00     0.143 C 
ATOM     20  H1  UNL     1       1.947  29.867  -1.550  1.00  0.00     0.155 HD
ENDBRANCH   1  18
BRANCH   1  21
HETATM   21  O1  UNL     1      -0.702  28.623  -0.675  1.00  0.00    -0.368 OA
ATOM     22  H1  UNL     1      -1.338  28.786  -1.361  1.00  0.00     0.212 HD
ENDBRANCH   1  21
BRANCH   2  23
HETATM   23  N2  UNL     1       2.217  26.515  -1.221  1.00  0.00    -0.068 N 
ATOM     24  H23 UNL     1       2.780  27.313  -1.514  1.00  0.00     0.275 HD
ATOM     25  H22 UNL     1       2.778  26.185  -0.436  1.00  0.00     0.275 HD
ATOM     26  H21 UNL     1       2.186  25.810  -1.958  1.00  0.00     0.275 HD
ENDBRANCH   2  23
TORSDOF 6
ENDMDL
MODEL 2
REMARK VINA RESULT: -5.588335851      4.187      7.110
REMARK  6 active torsions:
REMARK  status: ('A' for Active; 'I' for Inactive)
REMARK    1  A    between atoms: N1_2  and  C2_4 
REMARK    2  A    between atoms: C2_4  and  O1_5 
REMARK    3  A    between atoms: C3_7  and  N2_8 
REMARK    4  A    between atoms: C6_16  and  O4_17 
REMARK    5  A    between atoms: C8_19  and  O5_20 
REMARK    6  A    between atoms: C9_22  and  O6_23 
ROOT
HETATM    1  C2  UNL     1      -5.530  27.443  -7.610  1.00  0.00     0.166 C 
HETATM    2  C3  UNL     1      -4.472  27.004  -8.579  1.00  0.00     0.262 C 
HETATM    3  C4  UNL     1      -3.153  27.062  -7.876  1.00  0.00     0.209 C 
HETATM    4  O2  UNL     1      -3.069  26.532  -6.664  1.00  0.00    -0.350 OA
HETATM    5  C5  UNL     1      -4.130  26.319  -5.882  1.00  0.00     0.203 C 
HETATM    6  O3  UNL     1      -3.961  27.129  -4.728  1.00  0.00    -0.319 OA
HETATM    7  C6  UNL     1      -2.687  26.787  -4.348  1.00  0.00     0.294 C 
HETATM    8  C8  UNL     1      -2.738  25.274  -4.311  1.00  0.00     0.207 C 
HETATM    9  C9  UNL     1      -3.927  24.946  -5.225  1.00  0.00     0.214 C 
HETATM   10  C10 UNL     1      -5.485  26.513  -6.420  1.00  0.00     0.104 C 
HETATM   11  C11 UNL     1      -6.207  25.225  -6.771  1.00  0.00     0.021 C 
ENDROOT
BRANCH   9  12
HETATM   12  O6  UNL     1      -5.021  24.541  -4.509  1.00  0.00    -0.387 OA
ATOM     13  H6  UNL     1      -5.812  24.523  -5.035  1.00  0.00     0.210 HD
ENDBRANCH   9  12
BRANCH   7  14
HETATM   14  O4  UNL     1      -2.348  27.215  -3.069  1.00  0.00    -0.363 OA
HETATM   15  C7  UNL     1      -1.005  27.563  -2.976  1.00  0.00     0.204 C 
ENDBRANCH   7  14
BRANCH   8  16
HETATM   16  O5  UNL     1      -1.543  24.813  -4.863  1.00  0.00    -0.388 OA
ATOM     17  H5  UNL     1      -1.305  24.025  -4.388  1.00  0.00     0.210 HD
ENDBRANCH   8  16
BRANCH   1  18
HETATM   18  N1  UNL     1      -6.779  27.525  -8.251  1.00  0.00    -0.394 N 
HETATM   19  C1  UNL     1      -6.785  27.742  -9.645  1.00  0.00     0.143 C 
ATOM     20  H1  UNL     1      -7.649  27.431  -7.728  1.00  0.00     0.155 HD
ENDBRANCH   1  18
BRANCH   1  21
HETATM   21  O1  UNL     1      -5.169  28.713  -7.141  1.00  0.00    -0.368 OA
ATOM     22  H1  UNL     1      -4.241  28.848  -7.290  1.00  0.00     0.212 HD
ENDBRANCH   1  21
BRANCH   2  23
HETATM   23  N2  UNL     1      -4.738  25.745  -9.207  1.00  0.00    -0.068 N 
ATOM     24  H23 UNL     1      -4.046  25.052  -8.923  1.00  0.00     0.275 HD
ATOM     25  H22 UNL     1      -5.580  25.322  -8.817  1.00  0.00     0.275 HD
ATOM     26  H21 UNL     1      -4.801  25.791 -10.225  1.00  0.00     0.275 HD
ENDBRANCH   2  23
TORSDOF 6
ENDMDL
MODEL 3
REMARK VINA RESULT: -5.123426496      4.949      6.764
REMARK  6 active torsions:
REMARK  status: ('A' for Active; 'I' for Inactive)
REMARK    1  A    between atoms: N1_2  and  C2_4 
REMARK    2  A    between atoms: C2_4  and  O1_5 
REMARK    3  A    between atoms: C3_7  and  N2_8 
REMARK    4  A    between atoms: C6_16  and  O4_17 
REMARK    5  A    between atoms: C8_19  and  O5_20 
REMARK    6  A    between atoms: C9_22  and  O6_23 
ROOT
HETATM    1  C2  UNL     1       3.550  31.827  -7.243  1.00  0.00     0.166 C 
HETATM    2  C3  UNL     1       4.771  31.004  -7.535  1.00  0.00     0.262 C 
HETATM    3  C4  UNL     1       5.026  30.126  -6.352  1.00  0.00     0.209 C 
HETATM    4  O2  UNL     1       4.002  29.460  -5.837  1.00  0.00    -0.350 OA
HETATM    5  C5  UNL     1       2.728  29.812  -6.030  1.00  0.00     0.203 C 
HETATM    6  O3  UNL     1       2.194  30.141  -4.757  1.00  0.00    -0.319 OA
HETATM    7  C6  UNL     1       2.550  29.036  -4.025  1.00  0.00     0.294 C 
HETATM    8  C8  UNL     1       2.044  27.889  -4.875  1.00  0.00     0.207 C 
HETATM    9  C9  UNL     1       1.944  28.515  -6.274  1.00  0.00     0.214 C 
HETATM   10  C10 UNL     1       2.402  30.879  -6.987  1.00  0.00     0.104 C 
HETATM   11  C11 UNL     1       1.864  30.381  -8.317  1.00  0.00     0.021 C 
ENDROOT
BRANCH   9  12
HETATM   12  O6  UNL     1       0.645  28.748  -6.634  1.00  0.00    -0.387 OA
ATOM     13  H6  UNL     1       0.573  29.363  -7.354  1.00  0.00     0.210 HD
ENDBRANCH   9  12
BRANCH   7  14
HETATM   14  O4  UNL     1       1.907  28.945  -2.795  1.00  0.00    -0.363 OA
HETATM   15  C7  UNL     1       2.400  29.869  -1.881  1.00  0.00     0.204 C 
ENDBRANCH   7  14
BRANCH   8  16
HETATM   16  O5  UNL     1       3.022  26.896  -4.843  1.00  0.00    -0.388 OA
ATOM     17  H5  UNL     1       3.788  27.247  -5.281  1.00  0.00     0.210 HD
ENDBRANCH   8  16
BRANCH   1  18
HETATM   18  N1  UNL     1       3.331  32.760  -8.272  1.00  0.00    -0.394 N 
HETATM   19  C1  UNL     1       4.068  33.962  -8.233  1.00  0.00     0.143 C 
ATOM     20  H1  UNL     1       2.663  32.575  -9.020  1.00  0.00     0.155 HD
ENDBRANCH   1  18
BRANCH   1  21
HETATM   21  O1  UNL     1       3.782  32.511  -6.043  1.00  0.00    -0.368 OA
ATOM     22  H1  UNL     1       2.979  32.532  -5.536  1.00  0.00     0.212 HD
ENDBRANCH   1  21
BRANCH   2  23
HETATM   23  N2  UNL     1       4.718  30.298  -8.779  1.00  0.00    -0.068 N 
ATOM     24  H23 UNL     1       4.177  29.439  -8.680  1.00  0.00     0.275 HD
ATOM     25  H22 UNL     1       4.132  30.796  -9.449  1.00  0.00     0.275 HD
ATOM     26  H21 UNL     1       5.633  30.098  -9.186  1.00  0.00     0.275 HD
ENDBRANCH   2  23
TORSDOF 6
ENDMDL
MODEL 4
REMARK VINA RESULT: -4.961933960      2.684      4.701
REMARK  6 active torsions:
REMARK  status: ('A' for Active; 'I' for Inactive)
REMARK    1  A    between atoms: N1_2  and  C2_4 
REMARK    2  A    between atoms: C2_4  and  O1_5 
REMARK    3  A    between atoms: C3_7  and  N2_8 
REMARK    4  A    between atoms: C6_16  and  O4_17 
REMARK    5  A    between atoms: C8_19  and  O5_20 
REMARK    6  A    between atoms: C9_22  and  O6_23 
ROOT
HETATM    1  C2  UNL     1       1.448  28.579  -5.732  1.00  0.00     0.166 C 
HETATM    2  C3  UNL     1       2.394  27.415  -5.775  1.00  0.00     0.262 C 
HETATM    3  C4  UNL     1       2.744  27.056  -4.366  1.00  0.00     0.209 C 
HETATM    4  O2  UNL     1       1.758  26.955  -3.485  1.00  0.00    -0.350 OA
HETATM    5  C5  UNL     1       0.563  27.526  -3.655  1.00  0.00     0.203 C 
HETATM    6  O3  UNL     1       0.404  28.471  -2.608  1.00  0.00    -0.319 OA
HETATM    7  C6  UNL     1       0.704  27.704  -1.509  1.00  0.00     0.294 C 
HETATM    8  C8  UNL     1      -0.187  26.492  -1.688  1.00  0.00     0.207 C 
HETATM    9  C9  UNL     1      -0.485  26.502  -3.194  1.00  0.00     0.214 C 
HETATM   10  C10 UNL     1       0.232  28.160  -4.940  1.00  0.00     0.104 C 
HETATM   11  C11 UNL     1      -0.678  27.332  -5.828  1.00  0.00     0.021 C 
ENDROOT
BRANCH   9  12
HETATM   12  O6  UNL     1      -1.765  26.908  -3.457  1.00  0.00    -0.387 OA
ATOM     13  H6  UNL     1      -2.266  26.251  -3.925  1.00  0.00     0.210 HD
ENDBRANCH   9  12
BRANCH   7  14
HETATM   14  O4  UNL     1       0.353  28.292  -0.300  1.00  0.00    -0.363 OA
HETATM   15  C7  UNL     1       1.309  29.205   0.131  1.00  0.00     0.204 C 
ENDBRANCH   7  14
BRANCH   8  16
HETATM   16  O5  UNL     1       0.569  25.375  -1.337  1.00  0.00    -0.388 OA
ATOM     17  H5  UNL     1       0.434  24.724  -2.016  1.00  0.00     0.210 HD
ENDBRANCH   8  16
BRANCH   1  18
HETATM   18  N1  UNL     1       1.178  29.039  -7.033  1.00  0.00    -0.394 N 
HETATM   19  C1  UNL     1       2.189  29.769  -7.691  1.00  0.00     0.143 C 
ATOM     20  H1  UNL     1       0.283  28.851  -7.485  1.00  0.00     0.155 HD
ENDBRANCH   1  18
BRANCH   1  21
HETATM   21  O1  UNL     1       2.070  29.600  -5.003  1.00  0.00    -0.368 OA
ATOM     22  H1  UNL     1       2.988  29.384  -4.884  1.00  0.00     0.212 HD
ENDBRANCH   1  21
BRANCH   2  23
HETATM   23  N2  UNL     1       1.928  26.309  -6.555  1.00  0.00    -0.068 N 
ATOM     24  H23 UNL     1       2.253  26.389  -7.519  1.00  0.00     0.275 HD
ATOM     25  H22 UNL     1       2.408  25.451  -6.281  1.00  0.00     0.275 HD
ATOM     26  H21 UNL     1       0.917  26.175  -6.529  1.00  0.00     0.275 HD
ENDBRANCH   2  23
TORSDOF 6
ENDMDL
MODEL 5
REMARK VINA RESULT: -4.893739953      8.233     10.261
REMARK  6 active torsions:
REMARK  status: ('A' for Active; 'I' for Inactive)
REMARK    1  A    between atoms: N1_2  and  C2_4 
REMARK    2  A    between atoms: C2_4  and  O1_5 
REMARK    3  A    between atoms: C3_7  and  N2_8 
REMARK    4  A    between atoms: C6_16  and  O4_17 
REMARK    5  A    between atoms: C8_19  and  O5_20 
REMARK    6  A    between atoms: C9_22  and  O6_23 
ROOT
HETATM    1  C2  UNL     1       4.633  35.472  -8.764  1.00  0.00     0.166 C 
HETATM    2  C3  UNL     1       4.652  34.893 -10.149  1.00  0.00     0.262 C 
HETATM    3  C4  UNL     1       5.180  33.497 -10.055  1.00  0.00     0.209 C 
HETATM    4  O2  UNL     1       4.685  32.705  -9.115  1.00  0.00    -0.350 OA
HETATM    5  C5  UNL     1       4.067  33.162  -8.023  1.00  0.00     0.203 C 
HETATM    6  O3  UNL     1       4.847  32.757  -6.908  1.00  0.00    -0.319 OA
HETATM    7  C6  UNL     1       4.998  31.416  -7.161  1.00  0.00     0.294 C 
HETATM    8  C8  UNL     1       3.576  30.954  -7.402  1.00  0.00     0.207 C 
HETATM    9  C9  UNL     1       2.852  32.252  -7.790  1.00  0.00     0.214 C 
HETATM   10  C10 UNL     1       3.754  34.594  -7.906  1.00  0.00     0.104 C 
HETATM   11  C11 UNL     1       2.299  34.938  -8.171  1.00  0.00     0.021 C 
ENDROOT
BRANCH   9  12
HETATM   12  O6  UNL     1       2.046  32.704  -6.781  1.00  0.00    -0.387 OA
ATOM     13  H6  UNL     1       2.238  33.602  -6.537  1.00  0.00     0.210 HD
ENDBRANCH   9  12
BRANCH   7  14
HETATM   14  O4  UNL     1       5.484  30.691  -6.079  1.00  0.00    -0.363 OA
HETATM   15  C7  UNL     1       4.461  30.246  -5.249  1.00  0.00     0.204 C 
ENDBRANCH   7  14
BRANCH   8  16
HETATM   16  O5  UNL     1       3.613  30.065  -8.475  1.00  0.00    -0.388 OA
ATOM     17  H5  UNL     1       3.658  29.190  -8.109  1.00  0.00     0.210 HD
ENDBRANCH   8  16
BRANCH   1  18
HETATM   18  N1  UNL     1       4.259  36.827  -8.805  1.00  0.00    -0.394 N 
HETATM   19  C1  UNL     1       5.169  37.740  -9.376  1.00  0.00     0.143 C 
ATOM     20  H1  UNL     1       3.361  37.138  -8.434  1.00  0.00     0.155 HD
ENDBRANCH   1  18
BRANCH   1  21
HETATM   21  O1  UNL     1       5.931  35.368  -8.248  1.00  0.00    -0.368 OA
ATOM     22  H1  UNL     1       6.364  34.619  -8.641  1.00  0.00     0.212 HD
ENDBRANCH   1  21
BRANCH   2  23
HETATM   23  N2  UNL     1       3.404  34.994 -10.844  1.00  0.00    -0.068 N 
ATOM     24  H23 UNL     1       3.043  35.947 -10.793  1.00  0.00     0.275 HD
ATOM     25  H22 UNL     1       3.549  34.917 -11.851  1.00  0.00     0.275 HD
ATOM     26  H21 UNL     1       2.697  34.328 -10.534  1.00  0.00     0.275 HD
ENDBRANCH   2  23
TORSDOF 6
ENDMDL
