MODEL 1
REMARK VINA RESULT: -7.428282015      0.000      0.000
REMARK  3 active torsions:
REMARK  status: ('A' for Active; 'I' for Inactive)
REMARK    1  A    between atoms: N1_1  and  C1_4 
REMARK    2  A    between atoms: C2_7  and  N3_8 
REMARK    3  A    between atoms: C7_16  and  N5_17 
ROOT
HETATM    1  C1  UNL     1       1.001  12.886  26.754  1.00  0.00     0.705 A 
HETATM    2  N2  UNL     1       1.753  12.010  27.439  1.00  0.00    -0.022 N 
ATOM      3  H2  UNL     1       1.817  12.064  28.456  1.00  0.00     0.203 HD
HETATM    4  C2  UNL     1       2.420  11.060  26.761  1.00  0.00     0.709 A 
HETATM    5  N4  UNL     1       2.315  11.015  25.421  1.00  0.00    -0.021 N 
ATOM      6  H4  UNL     1       2.823  10.293  24.911  1.00  0.00     0.203 HD
HETATM    7  C7  UNL     1       1.565  11.888  24.732  1.00  0.00     0.710 A 
HETATM    8  N8  UNL     1       0.897  12.837  25.403  1.00  0.00    -0.021 N 
ATOM      9  H8  UNL     1       0.318  13.513  24.904  1.00  0.00     0.203 HD
ENDROOT
BRANCH   7  10
HETATM   10  N5  UNL     1       1.455  11.841  23.331  1.00  0.00    -0.200 N 
HETATM   11  C8  UNL     1       1.291  10.574  22.646  1.00  0.00     0.163 C 
HETATM   12  C9  UNL     1       1.266  10.746  21.155  1.00  0.00     0.155 C 
HETATM   13  N6  UNL     1       0.467  11.841  20.702  1.00  0.00    -0.337 N 
HETATM   14  N7  UNL     1       0.403  12.923  21.551  1.00  0.00    -0.126 NA
ATOM     15  H6  UNL     1      -0.024  11.822  19.808  1.00  0.00     0.175 HD
HETATM   16  C10 UNL     1       1.495  13.014  22.483  1.00  0.00     0.276 C 
ENDBRANCH   7  10
BRANCH   4  17
HETATM   17  N3  UNL     1       3.213  10.138  27.496  1.00  0.00    -0.213 N 
HETATM   18  C3  UNL     1       2.753   9.549  28.726  1.00  0.00     0.167 C 
HETATM   19  C4  UNL     1       2.917   8.049  28.711  1.00  0.00     0.188 C 
HETATM   20  O1  UNL     1       3.932   7.630  27.882  1.00  0.00    -0.388 OA
HETATM   21  C5  UNL     1       4.965   8.543  27.769  1.00  0.00     0.188 C 
HETATM   22  C6  UNL     1       4.521   9.782  26.994  1.00  0.00     0.167 C 
ENDBRANCH   4  17
BRANCH   1  23
HETATM   23  N1  UNL     1       0.338  13.819  27.345  1.00  0.00    -0.234 N 
ATOM     24  H12 UNL     1       0.482  13.908  28.350  1.00  0.00     0.174 HD
ATOM     25  H11 UNL     1      -0.295  14.434  26.835  1.00  0.00     0.174 HD
ENDBRANCH   1  23
TORSDOF 3
ENDMDL
MODEL 2
REMARK VINA RESULT: -7.294617735      3.787      5.488
REMARK  3 active torsions:
REMARK  status: ('A' for Active; 'I' for Inactive)
REMARK    1  A    between atoms: N1_1  and  C1_4 
REMARK    2  A    between atoms: C2_7  and  N3_8 
REMARK    3  A    between atoms: C7_16  and  N5_17 
ROOT
HETATM    1  C1  UNL     1       0.736  12.876  27.492  1.00  0.00     0.705 A 
HETATM    2  N2  UNL     1      -0.508  13.055  27.965  1.00  0.00    -0.022 N 
ATOM      3  H2  UNL     1      -0.678  13.111  28.969  1.00  0.00     0.203 HD
HETATM    4  C2  UNL     1      -1.525  13.160  27.091  1.00  0.00     0.709 A 
HETATM    5  N4  UNL     1      -1.267  13.081  25.774  1.00  0.00    -0.021 N 
ATOM      6  H4  UNL     1      -2.042  13.161  25.115  1.00  0.00     0.203 HD
HETATM    7  C7  UNL     1      -0.027  12.902  25.296  1.00  0.00     0.710 A 
HETATM    8  N8  UNL     1       0.992  12.798  26.162  1.00  0.00    -0.021 N 
ATOM      9  H8  UNL     1       1.945  12.663  25.826  1.00  0.00     0.203 HD
ENDROOT
BRANCH   7  10
HETATM   10  N5  UNL     1       0.242  12.821  23.918  1.00  0.00    -0.200 N 
HETATM   11  C8  UNL     1      -0.164  11.658  23.154  1.00  0.00     0.163 C 
HETATM   12  C9  UNL     1       0.282  11.747  21.724  1.00  0.00     0.155 C 
HETATM   13  N6  UNL     1       0.078  13.026  21.122  1.00  0.00    -0.337 N 
HETATM   14  N7  UNL     1       0.170  14.106  21.971  1.00  0.00    -0.126 NA
ATOM     15  H6  UNL     1      -0.123  13.133  20.128  1.00  0.00     0.175 HD
HETATM   16  C10 UNL     1       0.925  13.857  23.171  1.00  0.00     0.276 C 
ENDBRANCH   7  10
BRANCH   4  17
HETATM   17  N3  UNL     1      -2.836  13.349  27.604  1.00  0.00    -0.213 N 
HETATM   18  C3  UNL     1      -3.811  14.160  26.923  1.00  0.00     0.167 C 
HETATM   19  C4  UNL     1      -5.121  13.428  26.766  1.00  0.00     0.188 C 
HETATM   20  O1  UNL     1      -5.321  12.475  27.740  1.00  0.00    -0.388 OA
HETATM   21  C5  UNL     1      -4.725  12.787  28.948  1.00  0.00     0.188 C 
HETATM   22  C6  UNL     1      -3.203  12.707  28.846  1.00  0.00     0.167 C 
ENDBRANCH   4  17
BRANCH   1  23
HETATM   23  N1  UNL     1       1.751  12.769  28.276  1.00  0.00    -0.234 N 
ATOM     24  H12 UNL     1       1.729  13.333  29.125  1.00  0.00     0.174 HD
ATOM     25  H11 UNL     1       2.535  12.153  28.060  1.00  0.00     0.174 HD
ENDBRANCH   1  23
TORSDOF 3
ENDMDL
MODEL 3
REMARK VINA RESULT: -7.224334403      0.884      1.393
REMARK  3 active torsions:
REMARK  status: ('A' for Active; 'I' for Inactive)
REMARK    1  A    between atoms: N1_1  and  C1_4 
REMARK    2  A    between atoms: C2_7  and  N3_8 
REMARK    3  A    between atoms: C7_16  and  N5_17 
ROOT
HETATM    1  C1  UNL     1       1.169  12.571  27.205  1.00  0.00     0.705 A 
HETATM    2  N2  UNL     1       1.875  11.486  27.559  1.00  0.00    -0.022 N 
ATOM      3  H2  UNL     1       2.036  11.269  28.543  1.00  0.00     0.203 HD
HETATM    4  C2  UNL     1       2.366  10.689  26.594  1.00  0.00     0.709 A 
HETATM    5  N4  UNL     1       2.137  11.001  25.307  1.00  0.00    -0.021 N 
ATOM      6  H4  UNL     1       2.512  10.394  24.578  1.00  0.00     0.203 HD
HETATM    7  C7  UNL     1       1.433  12.085  24.948  1.00  0.00     0.710 A 
HETATM    8  N8  UNL     1       0.939  12.883  25.905  1.00  0.00    -0.021 N 
ATOM      9  H8  UNL     1       0.399  13.713  25.660  1.00  0.00     0.203 HD
ENDROOT
BRANCH   7  10
HETATM   10  N5  UNL     1       1.193  12.411  23.600  1.00  0.00    -0.200 N 
HETATM   11  C8  UNL     1       0.827  11.383  22.646  1.00  0.00     0.163 C 
HETATM   12  C9  UNL     1       0.688  11.937  21.258  1.00  0.00     0.155 C 
HETATM   13  N6  UNL     1      -0.021  13.175  21.186  1.00  0.00    -0.337 N 
HETATM   14  N7  UNL     1       0.113  14.002  22.278  1.00  0.00    -0.126 NA
ATOM     15  H6  UNL     1      -0.589  13.430  20.378  1.00  0.00     0.175 HD
HETATM   16  C10 UNL     1       1.288  13.756  23.071  1.00  0.00     0.276 C 
ENDBRANCH   7  10
BRANCH   4  17
HETATM   17  N3  UNL     1       3.112   9.543  26.982  1.00  0.00    -0.213 N 
HETATM   18  C3  UNL     1       4.515   9.412  26.687  1.00  0.00     0.167 C 
HETATM   19  C4  UNL     1       5.301   9.030  27.917  1.00  0.00     0.188 C 
HETATM   20  O1  UNL     1       4.547   8.345  28.842  1.00  0.00    -0.388 OA
HETATM   21  C5  UNL     1       3.537   7.587  28.278  1.00  0.00     0.188 C 
HETATM   22  C6  UNL     1       2.443   8.478  27.694  1.00  0.00     0.167 C 
ENDBRANCH   4  17
BRANCH   1  23
HETATM   23  N1  UNL     1       0.672  13.374  28.081  1.00  0.00    -0.234 N 
ATOM     24  H12 UNL     1       1.174  13.445  28.965  1.00  0.00     0.174 HD
ATOM     25  H11 UNL     1      -0.177  13.909  27.899  1.00  0.00     0.174 HD
ENDBRANCH   1  23
TORSDOF 3
ENDMDL
MODEL 4
REMARK VINA RESULT: -7.132190606      4.109      5.904
REMARK  3 active torsions:
REMARK  status: ('A' for Active; 'I' for Inactive)
REMARK    1  A    between atoms: N1_1  and  C1_4 
REMARK    2  A    between atoms: C2_7  and  N3_8 
REMARK    3  A    between atoms: C7_16  and  N5_17 
ROOT
HETATM    1  C1  UNL     1       0.405  12.951  27.463  1.00  0.00     0.705 A 
HETATM    2  N2  UNL     1      -0.856  13.226  27.833  1.00  0.00    -0.022 N 
ATOM      3  H2  UNL     1      -1.100  13.319  28.820  1.00  0.00     0.203 HD
HETATM    4  C2  UNL     1      -1.793  13.376  26.880  1.00  0.00     0.709 A 
HETATM    5  N4  UNL     1      -1.440  13.247  25.589  1.00  0.00    -0.021 N 
ATOM      6  H4  UNL     1      -2.154  13.362  24.870  1.00  0.00     0.203 HD
HETATM    7  C7  UNL     1      -0.181  12.973  25.215  1.00  0.00     0.710 A 
HETATM    8  N8  UNL     1       0.757  12.823  26.160  1.00  0.00    -0.021 N 
ATOM      9  H8  UNL     1       1.722  12.615  25.903  1.00  0.00     0.203 HD
ENDROOT
BRANCH   7  10
HETATM   10  N5  UNL     1       0.187  12.838  23.864  1.00  0.00    -0.200 N 
HETATM   11  C8  UNL     1      -0.132  11.630  23.129  1.00  0.00     0.163 C 
HETATM   12  C9  UNL     1       0.413  11.670  21.731  1.00  0.00     0.155 C 
HETATM   13  N6  UNL     1       0.217  12.913  21.057  1.00  0.00    -0.337 N 
HETATM   14  N7  UNL     1       0.218  14.033  21.859  1.00  0.00    -0.126 NA
ATOM     15  H6  UNL     1       0.084  12.970  20.047  1.00  0.00     0.175 HD
HETATM   16  C10 UNL     1       0.892  13.861  23.119  1.00  0.00     0.276 C 
ENDBRANCH   7  10
BRANCH   4  17
HETATM   17  N3  UNL     1      -3.124  13.666  27.284  1.00  0.00    -0.213 N 
HETATM   18  C3  UNL     1      -3.435  14.117  28.614  1.00  0.00     0.167 C 
HETATM   19  C4  UNL     1      -4.302  15.352  28.586  1.00  0.00     0.188 C 
HETATM   20  O1  UNL     1      -5.065  15.444  27.444  1.00  0.00    -0.388 OA
HETATM   21  C5  UNL     1      -5.415  14.215  26.914  1.00  0.00     0.188 C 
HETATM   22  C6  UNL     1      -4.197  13.503  26.329  1.00  0.00     0.167 C 
ENDBRANCH   4  17
BRANCH   1  23
HETATM   23  N1  UNL     1       1.347  12.796  28.327  1.00  0.00    -0.234 N 
ATOM     24  H12 UNL     1       1.229  12.033  28.993  1.00  0.00     0.174 HD
ATOM     25  H11 UNL     1       2.166  13.403  28.344  1.00  0.00     0.174 HD
ENDBRANCH   1  23
TORSDOF 3
ENDMDL
MODEL 5
REMARK VINA RESULT: -7.081235523      2.251      6.066
REMARK  3 active torsions:
REMARK  status: ('A' for Active; 'I' for Inactive)
REMARK    1  A    between atoms: N1_1  and  C1_4 
REMARK    2  A    between atoms: C2_7  and  N3_8 
REMARK    3  A    between atoms: C7_16  and  N5_17 
ROOT
HETATM    1  C1  UNL     1       1.343  12.336  27.057  1.00  0.00     0.705 A 
HETATM    2  N2  UNL     1       1.248  12.191  25.725  1.00  0.00    -0.022 N 
ATOM      3  H2  UNL     1       0.622  12.786  25.182  1.00  0.00     0.203 HD
HETATM    4  C2  UNL     1       1.992  11.248  25.121  1.00  0.00     0.709 A 
HETATM    5  N4  UNL     1       2.807  10.480  25.866  1.00  0.00    -0.021 N 
ATOM      6  H4  UNL     1       3.369   9.766  25.403  1.00  0.00     0.203 HD
HETATM    7  C7  UNL     1       2.905  10.621  27.196  1.00  0.00     0.710 A 
HETATM    8  N8  UNL     1       2.167  11.560  27.804  1.00  0.00    -0.021 N 
ATOM      9  H8  UNL     1       2.223  11.689  28.815  1.00  0.00     0.203 HD
ENDROOT
BRANCH   7  10
HETATM   10  N5  UNL     1       3.758   9.817  27.974  1.00  0.00    -0.200 N 
HETATM   11  C8  UNL     1       3.309   9.277  29.242  1.00  0.00     0.163 C 
HETATM   12  C9  UNL     1       4.396   8.511  29.937  1.00  0.00     0.155 C 
HETATM   13  N6  UNL     1       5.140   7.639  29.084  1.00  0.00    -0.337 N 
HETATM   14  N7  UNL     1       5.278   8.057  27.780  1.00  0.00    -0.126 NA
ATOM     15  H6  UNL     1       5.543   6.764  29.419  1.00  0.00     0.175 HD
HETATM   16  C10 UNL     1       5.111   9.473  27.587  1.00  0.00     0.276 C 
ENDBRANCH   7  10
BRANCH   4  17
HETATM   17  N3  UNL     1       1.883  11.104  23.712  1.00  0.00    -0.213 N 
HETATM   18  C3  UNL     1       2.333   9.919  23.030  1.00  0.00     0.167 C 
HETATM   19  C4  UNL     1       1.271   9.382  22.103  1.00  0.00     0.188 C 
HETATM   20  O1  UNL     1       0.407  10.357  21.658  1.00  0.00    -0.388 OA
HETATM   21  C5  UNL     1       0.989  11.607  21.559  1.00  0.00     0.188 C 
HETATM   22  C6  UNL     1       1.301  12.179  22.940  1.00  0.00     0.167 C 
ENDBRANCH   4  17
BRANCH   1  23
HETATM   23  N1  UNL     1       0.658  13.220  27.694  1.00  0.00    -0.234 N 
ATOM     24  H12 UNL     1       0.065  13.827  27.128  1.00  0.00     0.174 HD
ATOM     25  H11 UNL     1       0.705  13.308  28.709  1.00  0.00     0.174 HD
ENDBRANCH   1  23
TORSDOF 3
ENDMDL
