MODEL 1
REMARK VINA RESULT: -7.064987366      0.000      0.000
REMARK  4 active torsions:
REMARK  status: ('A' for Active; 'I' for Inactive)
REMARK    1  A    between atoms: O1_2  and  N1_3 
REMARK    2  A    between atoms: C7_16  and  N4_17 
REMARK    3  A    between atoms: N4_17  and  N5_19 
REMARK       I    between atoms: C8_21  and  N7_23 
REMARK    4  A    between atoms: N7_23  and  N8_25 
ROOT
HETATM    1  N1  UNL     1      -5.692  12.891  27.709  1.00  0.00    -0.247 N 
ATOM      2  H1  UNL     1      -5.917  11.918  27.498  1.00  0.00     0.196 HD
HETATM    3  C2  UNL     1      -4.544  13.383  27.415  1.00  0.00     0.173 C 
HETATM    4  O2  UNL     1      -3.440  12.763  26.796  1.00  0.00    -0.290 OA
HETATM    5  C3  UNL     1      -2.277  13.557  27.090  1.00  0.00     0.289 C 
HETATM    6  C4  UNL     1      -1.158  12.651  27.530  1.00  0.00     0.088 C 
HETATM    7  N2  UNL     1      -2.705  14.452  28.144  1.00  0.00    -0.022 N 
ATOM      8  H21 UNL     1      -2.089  15.240  28.337  1.00  0.00     0.282 HD
ATOM      9  H22 UNL     1      -2.658  14.078  29.092  1.00  0.00     0.282 HD
HETATM   10  C5  UNL     1      -4.047  14.790  27.653  1.00  0.00     0.283 C 
HETATM   11  C6  UNL     1      -4.033  15.465  26.320  1.00  0.00     0.163 C 
HETATM   12  N3  UNL     1      -2.784  15.291  25.587  1.00  0.00    -0.372 N 
ATOM     13  H3  UNL     1      -2.590  15.895  24.788  1.00  0.00     0.161 HD
HETATM   14  C7  UNL     1      -1.918  14.395  25.918  1.00  0.00     0.156 C 
ENDROOT
BRANCH  14  15
HETATM   15  N4  UNL     1      -0.718  14.245  25.177  1.00  0.00    -0.283 N 
ATOM     16  H4  UNL     1       0.123  14.633  25.605  1.00  0.00     0.188 HD
BRANCH  15  17
HETATM   17  N5  UNL     1      -0.548  13.644  23.962  1.00  0.00    -0.271 N 
HETATM   18  C8  UNL     1       0.316  12.826  23.542  1.00  0.00     0.223 C 
HETATM   19  N6  UNL     1       1.405  12.270  24.248  1.00  0.00    -0.060 NA
HETATM   20  N7  UNL     1       0.188  12.390  22.178  1.00  0.00    -0.275 N 
HETATM   21  C9  UNL     1      -0.062  10.983  21.939  1.00  0.00     0.180 C 
ATOM     22  H5  UNL     1      -1.246  13.906  23.266  1.00  0.00     0.189 HD
BRANCH  20  23
HETATM   23  N8  UNL     1       0.300  13.281  21.136  1.00  0.00    -0.341 N 
ATOM     24  H82 UNL     1       0.254  14.288  21.295  1.00  0.00     0.177 HD
ATOM     25  H81 UNL     1       0.432  12.956  20.178  1.00  0.00     0.177 HD
ENDBRANCH  20  23
ENDBRANCH  15  17
ENDBRANCH  14  15
BRANCH   1  26
HETATM   26  O1  UNL     1      -6.600  13.705  28.312  1.00  0.00    -0.283 OA
HETATM   27  C1  UNL     1      -7.197  13.497  29.558  1.00  0.00     0.237 C 
ENDBRANCH   1  26
TORSDOF 4
ENDMDL
MODEL 2
REMARK VINA RESULT: -6.729661609      1.671      2.262
REMARK  4 active torsions:
REMARK  status: ('A' for Active; 'I' for Inactive)
REMARK    1  A    between atoms: O1_2  and  N1_3 
REMARK    2  A    between atoms: C7_16  and  N4_17 
REMARK    3  A    between atoms: N4_17  and  N5_19 
REMARK       I    between atoms: C8_21  and  N7_23 
REMARK    4  A    between atoms: N7_23  and  N8_25 
ROOT
HETATM    1  N1  UNL     1      -4.743  14.556  30.098  1.00  0.00    -0.247 N 
ATOM      2  H1  UNL     1      -4.886  15.528  30.374  1.00  0.00     0.196 HD
HETATM    3  C2  UNL     1      -4.030  14.258  29.074  1.00  0.00     0.173 C 
HETATM    4  O2  UNL     1      -3.350  15.112  28.182  1.00  0.00    -0.290 OA
HETATM    5  C3  UNL     1      -3.088  14.364  26.981  1.00  0.00     0.289 C 
HETATM    6  C4  UNL     1      -3.462  15.200  25.786  1.00  0.00     0.088 C 
HETATM    7  N2  UNL     1      -3.913  13.181  27.103  1.00  0.00    -0.022 N 
ATOM      8  H21 UNL     1      -3.703  12.422  26.456  1.00  0.00     0.282 HD
ATOM      9  H22 UNL     1      -4.882  13.280  26.799  1.00  0.00     0.282 HD
HETATM   10  C5  UNL     1      -3.714  12.885  28.528  1.00  0.00     0.283 C 
HETATM   11  C6  UNL     1      -2.288  12.609  28.877  1.00  0.00     0.163 C 
HETATM   12  N3  UNL     1      -1.336  13.079  27.876  1.00  0.00    -0.372 N 
ATOM     13  H3  UNL     1      -0.376  12.737  27.907  1.00  0.00     0.161 HD
HETATM   14  C7  UNL     1      -1.674  13.915  26.954  1.00  0.00     0.156 C 
ENDROOT
BRANCH  14  15
HETATM   15  N4  UNL     1      -0.721  14.360  26.003  1.00  0.00    -0.283 N 
ATOM     16  H4  UNL     1      -0.062  15.068  26.328  1.00  0.00     0.188 HD
BRANCH  15  17
HETATM   17  N5  UNL     1      -0.575  13.959  24.705  1.00  0.00    -0.271 N 
HETATM   18  C8  UNL     1       0.373  13.380  24.105  1.00  0.00     0.223 C 
HETATM   19  N6  UNL     1       1.612  12.962  24.636  1.00  0.00    -0.060 NA
HETATM   20  N7  UNL     1       0.182  13.100  22.709  1.00  0.00    -0.275 N 
HETATM   21  C9  UNL     1       0.166  11.712  22.294  1.00  0.00     0.180 C 
ATOM     22  H5  UNL     1      -1.378  14.165  24.112  1.00  0.00     0.189 HD
BRANCH  20  23
HETATM   23  N8  UNL     1       0.021  14.118  21.797  1.00  0.00    -0.341 N 
ATOM     24  H82 UNL     1      -0.314  15.037  22.086  1.00  0.00     0.177 HD
ATOM     25  H81 UNL     1       0.231  13.977  20.809  1.00  0.00     0.177 HD
ENDBRANCH  20  23
ENDBRANCH  15  17
ENDBRANCH  14  15
BRANCH   1  26
HETATM   26  O1  UNL     1      -5.300  13.537  30.805  1.00  0.00    -0.283 OA
HETATM   27  C1  UNL     1      -6.068  13.660  31.966  1.00  0.00     0.237 C 
ENDBRANCH   1  26
TORSDOF 4
ENDMDL
MODEL 3
REMARK VINA RESULT: -6.703259517      2.762      6.864
REMARK  4 active torsions:
REMARK  status: ('A' for Active; 'I' for Inactive)
REMARK    1  A    between atoms: O1_2  and  N1_3 
REMARK    2  A    between atoms: C7_16  and  N4_17 
REMARK    3  A    between atoms: N4_17  and  N5_19 
REMARK       I    between atoms: C8_21  and  N7_23 
REMARK    4  A    between atoms: N7_23  and  N8_25 
ROOT
HETATM    1  N1  UNL     1      -0.125  11.048  22.586  1.00  0.00    -0.247 N 
ATOM      2  H1  UNL     1      -0.899  10.395  22.463  1.00  0.00     0.196 HD
HETATM    3  C2  UNL     1      -0.119  11.893  23.552  1.00  0.00     0.173 C 
HETATM    4  O2  UNL     1      -1.079  12.097  24.563  1.00  0.00    -0.290 OA
HETATM    5  C3  UNL     1      -0.855  13.408  25.114  1.00  0.00     0.289 C 
HETATM    6  C4  UNL     1      -2.173  14.128  25.225  1.00  0.00     0.088 C 
HETATM    7  N2  UNL     1       0.041  14.047  24.175  1.00  0.00    -0.022 N 
ATOM      8  H21 UNL     1       0.491  14.903  24.500  1.00  0.00     0.282 HD
ATOM      9  H22 UNL     1      -0.399  14.489  23.368  1.00  0.00     0.282 HD
HETATM   10  C5  UNL     1       0.938  12.922  23.881  1.00  0.00     0.283 C 
HETATM   11  C6  UNL     1       1.660  12.415  25.087  1.00  0.00     0.163 C 
HETATM   12  N3  UNL     1       1.057  12.826  26.349  1.00  0.00    -0.372 N 
ATOM     13  H3  UNL     1       1.596  12.733  27.210  1.00  0.00     0.161 HD
HETATM   14  C7  UNL     1      -0.139  13.305  26.409  1.00  0.00     0.156 C 
ENDROOT
BRANCH  14  15
HETATM   15  N4  UNL     1      -0.700  13.686  27.655  1.00  0.00    -0.283 N 
ATOM     16  H4  UNL     1      -0.646  14.678  27.885  1.00  0.00     0.188 HD
BRANCH  15  17
HETATM   17  N5  UNL     1      -1.306  12.889  28.585  1.00  0.00    -0.271 N 
HETATM   18  C8  UNL     1      -2.459  12.920  29.096  1.00  0.00     0.223 C 
HETATM   19  N6  UNL     1      -3.503  13.834  28.835  1.00  0.00    -0.060 NA
HETATM   20  N7  UNL     1      -2.768  11.902  30.063  1.00  0.00    -0.275 N 
HETATM   21  C9  UNL     1      -3.832  10.970  29.748  1.00  0.00     0.180 C 
ATOM     22  H5  UNL     1      -0.718  12.130  28.931  1.00  0.00     0.189 HD
BRANCH  20  23
HETATM   23  N8  UNL     1      -2.076  11.819  31.250  1.00  0.00    -0.341 N 
ATOM     24  H82 UNL     1      -1.170  12.274  31.366  1.00  0.00     0.177 HD
ATOM     25  H81 UNL     1      -2.452  11.297  32.042  1.00  0.00     0.177 HD
ENDBRANCH  20  23
ENDBRANCH  15  17
ENDBRANCH  14  15
BRANCH   1  26
HETATM   26  O1  UNL     1       0.933  11.049  21.731  1.00  0.00    -0.283 OA
HETATM   27  C1  UNL     1       1.824   9.994  21.516  1.00  0.00     0.237 C 
ENDBRANCH   1  26
TORSDOF 4
ENDMDL
MODEL 4
REMARK VINA RESULT: -6.668430295      3.017      6.806
REMARK  4 active torsions:
REMARK  status: ('A' for Active; 'I' for Inactive)
REMARK    1  A    between atoms: O1_2  and  N1_3 
REMARK    2  A    between atoms: C7_16  and  N4_17 
REMARK    3  A    between atoms: N4_17  and  N5_19 
REMARK       I    between atoms: C8_21  and  N7_23 
REMARK    4  A    between atoms: N7_23  and  N8_25 
ROOT
HETATM    1  N1  UNL     1       2.430  10.041  24.576  1.00  0.00    -0.247 N 
ATOM      2  H1  UNL     1       2.068   9.251  24.041  1.00  0.00     0.196 HD
HETATM    3  C2  UNL     1       1.798  11.157  24.617  1.00  0.00     0.173 C 
HETATM    4  O2  UNL     1       0.585  11.518  23.997  1.00  0.00    -0.290 OA
HETATM    5  C3  UNL     1       0.526  12.955  23.964  1.00  0.00     0.289 C 
HETATM    6  C4  UNL     1       0.104  13.401  22.588  1.00  0.00     0.088 C 
HETATM    7  N2  UNL     1       1.871  13.380  24.289  1.00  0.00    -0.022 N 
ATOM      8  H21 UNL     1       1.981  14.365  24.531  1.00  0.00     0.282 HD
ATOM      9  H22 UNL     1       2.529  13.415  23.510  1.00  0.00     0.282 HD
HETATM   10  C5  UNL     1       2.185  12.418  25.354  1.00  0.00     0.283 C 
HETATM   11  C6  UNL     1       1.267  12.521  26.528  1.00  0.00     0.163 C 
HETATM   12  N3  UNL     1       0.025  13.228  26.243  1.00  0.00    -0.372 N 
ATOM     13  H3  UNL     1      -0.552  13.551  27.020  1.00  0.00     0.161 HD
HETATM   14  C7  UNL     1      -0.368  13.458  25.036  1.00  0.00     0.156 C 
ENDROOT
BRANCH  14  15
HETATM   15  N4  UNL     1      -1.588  14.139  24.793  1.00  0.00    -0.283 N 
ATOM     16  H4  UNL     1      -1.908  14.150  23.825  1.00  0.00     0.188 HD
BRANCH  15  17
HETATM   17  N5  UNL     1      -2.388  14.783  25.695  1.00  0.00    -0.271 N 
HETATM   18  C8  UNL     1      -3.332  14.372  26.425  1.00  0.00     0.223 C 
HETATM   19  N6  UNL     1      -3.852  13.063  26.520  1.00  0.00    -0.060 NA
HETATM   20  N7  UNL     1      -3.964  15.342  27.275  1.00  0.00    -0.275 N 
HETATM   21  C9  UNL     1      -3.871  15.150  28.707  1.00  0.00     0.180 C 
ATOM     22  H5  UNL     1      -2.186  15.777  25.796  1.00  0.00     0.189 HD
BRANCH  20  23
HETATM   23  N8  UNL     1      -4.638  16.419  26.743  1.00  0.00    -0.341 N 
ATOM     24  H82 UNL     1      -4.700  16.556  25.734  1.00  0.00     0.177 HD
ATOM     25  H81 UNL     1      -5.089  17.107  27.346  1.00  0.00     0.177 HD
ENDBRANCH  20  23
ENDBRANCH  15  17
ENDBRANCH  14  15
BRANCH   1  26
HETATM   26  O1  UNL     1       3.596   9.942  25.269  1.00  0.00    -0.283 OA
HETATM   27  C1  UNL     1       3.738   9.528  26.595  1.00  0.00     0.237 C 
ENDBRANCH   1  26
TORSDOF 4
ENDMDL
MODEL 5
REMARK VINA RESULT: -6.656970818      3.275      6.837
REMARK  4 active torsions:
REMARK  status: ('A' for Active; 'I' for Inactive)
REMARK    1  A    between atoms: O1_2  and  N1_3 
REMARK    2  A    between atoms: C7_16  and  N4_17 
REMARK    3  A    between atoms: N4_17  and  N5_19 
REMARK       I    between atoms: C8_21  and  N7_23 
REMARK    4  A    between atoms: N7_23  and  N8_25 
ROOT
HETATM    1  N1  UNL     1      -0.225  11.215  22.463  1.00  0.00    -0.247 N 
ATOM      2  H1  UNL     1      -0.986  10.545  22.349  1.00  0.00     0.196 HD
HETATM    3  C2  UNL     1      -0.166  11.980  23.491  1.00  0.00     0.173 C 
HETATM    4  O2  UNL     1      -1.045  12.067  24.590  1.00  0.00    -0.290 OA
HETATM    5  C3  UNL     1      -0.818  13.337  25.227  1.00  0.00     0.289 C 
HETATM    6  C4  UNL     1      -2.144  13.996  25.502  1.00  0.00     0.088 C 
HETATM    7  N2  UNL     1      -0.023  14.083  24.275  1.00  0.00    -0.022 N 
ATOM      8  H21 UNL     1       0.425  14.926  24.632  1.00  0.00     0.282 HD
ATOM      9  H22 UNL     1      -0.542  14.570  23.544  1.00  0.00     0.282 HD
HETATM   10  C5  UNL     1       0.882  13.019  23.819  1.00  0.00     0.283 C 
HETATM   11  C6  UNL     1       1.717  12.447  24.917  1.00  0.00     0.163 C 
HETATM   12  N3  UNL     1       1.207  12.733  26.253  1.00  0.00    -0.372 N 
ATOM     13  H3  UNL     1       1.819  12.592  27.058  1.00  0.00     0.161 HD
HETATM   14  C7  UNL     1       0.006  13.159  26.448  1.00  0.00     0.156 C 
ENDROOT
BRANCH  14  15
HETATM   15  N4  UNL     1      -0.462  13.418  27.762  1.00  0.00    -0.283 N 
ATOM     16  H4  UNL     1      -0.788  14.368  27.940  1.00  0.00     0.188 HD
BRANCH  15  17
HETATM   17  N5  UNL     1      -0.531  12.554  28.817  1.00  0.00    -0.271 N 
HETATM   18  C8  UNL     1       0.362  12.064  29.563  1.00  0.00     0.223 C 
HETATM   19  N6  UNL     1       1.756  12.285  29.512  1.00  0.00    -0.060 NA
HETATM   20  N7  UNL     1      -0.076  11.172  30.601  1.00  0.00    -0.275 N 
HETATM   21  C9  UNL     1       0.155  11.568  31.975  1.00  0.00     0.180 C 
ATOM     22  H5  UNL     1      -1.477  12.248  29.045  1.00  0.00     0.189 HD
BRANCH  20  23
HETATM   23  N8  UNL     1      -0.695   9.981  30.297  1.00  0.00    -0.341 N 
ATOM     24  H82 UNL     1      -1.490   9.946  29.659  1.00  0.00     0.177 HD
ATOM     25  H81 UNL     1      -0.373   9.102  30.704  1.00  0.00     0.177 HD
ENDBRANCH  20  23
ENDBRANCH  15  17
ENDBRANCH  14  15
BRANCH   1  26
HETATM   26  O1  UNL     1       0.758  11.325  21.529  1.00  0.00    -0.283 OA
HETATM   27  C1  UNL     1       1.732  10.366  21.238  1.00  0.00     0.237 C 
ENDBRANCH   1  26
TORSDOF 4
ENDMDL
