MODEL 1
REMARK VINA RESULT: -6.725623179      0.000      0.000
REMARK  7 active torsions:
REMARK  status: ('A' for Active; 'I' for Inactive)
REMARK    1  A    between atoms: O1_2  and  C2_3 
REMARK    2  A    between atoms: C2_3  and  C3_5 
REMARK    3  A    between atoms: C6_10  and  O3_11 
REMARK    4  A    between atoms: C7_13  and  O4_14 
REMARK    5  A    between atoms: C7_13  and  N2_16 
REMARK    6  A    between atoms: N2_16  and  O5_17 
REMARK    7  A    between atoms: N2_16  and  O6_19 
ROOT
HETATM    1  C3  UNL     1      11.367   0.207   3.926  1.00  0.00     0.190 C 
HETATM    2  N1  UNL     1      10.189  -0.272   4.568  1.00  0.00    -0.402 N 
ATOM      3  H1  UNL     1       9.271  -0.174   4.133  1.00  0.00     0.154 HD
HETATM    4  C4  UNL     1      10.343  -0.891   5.835  1.00  0.00     0.106 C 
HETATM    5  C5  UNL     1      10.602   0.079   6.963  1.00  0.00     0.034 C 
HETATM    6  C6  UNL     1      11.382  -1.974   5.748  1.00  0.00     0.195 C 
HETATM    7  C7  UNL     1      12.655  -1.490   5.091  1.00  0.00     0.200 C 
HETATM    8  C8  UNL     1      12.426  -0.856   3.746  1.00  0.00     0.034 C 
HETATM    9  C9  UNL     1      13.734  -0.215   3.337  1.00  0.00     0.022 C 
HETATM   10  C10 UNL     1      12.048  -1.903   2.764  1.00  0.00     0.022 C 
ENDROOT
BRANCH   7  11
HETATM   11  O4  UNL     1      13.294  -0.550   5.950  1.00  0.00    -0.368 OA
ATOM     12  H4  UNL     1      14.120  -0.287   5.562  1.00  0.00     0.212 HD
ENDBRANCH   7  11
BRANCH   7  13
HETATM   13  N2  UNL     1      13.567  -2.597   5.038  1.00  0.00    -0.033 NA
BRANCH  13  14
HETATM   14  O5  UNL     1      13.041  -3.761   4.646  1.00  0.00    -0.286 OA
ATOM     15  H5  UNL     1      13.362  -4.531   5.101  1.00  0.00     0.239 HD
ENDBRANCH  13  14
BRANCH  13  16
HETATM   16  O6  UNL     1      14.374  -2.700   6.095  1.00  0.00    -0.286 OA
ATOM     17  H6  UNL     1      14.289  -3.513   6.578  1.00  0.00     0.239 HD
ENDBRANCH  13  16
ENDBRANCH   7  13
BRANCH   6  18
HETATM   18  O3  UNL     1      11.717  -2.507   6.975  1.00  0.00    -0.389 OA
ATOM     19  H3  UNL     1      11.336  -3.364   7.128  1.00  0.00     0.210 HD
ENDBRANCH   6  18
BRANCH   1  20
HETATM   20  C2  UNL     1      11.001   0.895   2.695  1.00  0.00     0.281 C 
HETATM   21  O2  UNL     1       9.826   0.800   2.249  1.00  0.00    -0.263 OA
BRANCH  20  22
HETATM   22  O1  UNL     1      11.844   1.679   1.925  1.00  0.00    -0.325 OA
HETATM   23  C1  UNL     1      11.378   2.605   0.959  1.00  0.00     0.213 C 
ENDBRANCH  20  22
ENDBRANCH   1  20
TORSDOF 7
ENDMDL
MODEL 2
REMARK VINA RESULT: -6.408976159      1.510      2.971
REMARK  7 active torsions:
REMARK  status: ('A' for Active; 'I' for Inactive)
REMARK    1  A    between atoms: O1_2  and  C2_3 
REMARK    2  A    between atoms: C2_3  and  C3_5 
REMARK    3  A    between atoms: C6_10  and  O3_11 
REMARK    4  A    between atoms: C7_13  and  O4_14 
REMARK    5  A    between atoms: C7_13  and  N2_16 
REMARK    6  A    between atoms: N2_16  and  O5_17 
REMARK    7  A    between atoms: N2_16  and  O6_19 
ROOT
HETATM    1  C3  UNL     1      11.223  -0.213   3.917  1.00  0.00     0.190 C 
HETATM    2  N1  UNL     1      12.352  -0.172   3.049  1.00  0.00    -0.402 N 
ATOM      3  H1  UNL     1      12.621   0.688   2.570  1.00  0.00     0.154 HD
HETATM    4  C4  UNL     1      13.087  -1.373   2.877  1.00  0.00     0.106 C 
HETATM    5  C5  UNL     1      12.403  -2.388   1.992  1.00  0.00     0.034 C 
HETATM    6  C6  UNL     1      13.466  -1.932   4.220  1.00  0.00     0.195 C 
HETATM    7  C7  UNL     1      12.283  -2.012   5.158  1.00  0.00     0.200 C 
HETATM    8  C8  UNL     1      11.555  -0.703   5.308  1.00  0.00     0.034 C 
HETATM    9  C9  UNL     1      10.279  -0.999   6.066  1.00  0.00     0.022 C 
HETATM   10  C10 UNL     1      12.394   0.245   6.081  1.00  0.00     0.022 C 
ENDROOT
BRANCH   7  11
HETATM   11  O4  UNL     1      11.377  -3.002   4.682  1.00  0.00    -0.368 OA
ATOM     12  H4  UNL     1      11.681  -3.859   4.957  1.00  0.00     0.212 HD
ENDBRANCH   7  11
BRANCH   7  13
HETATM   13  N2  UNL     1      12.752  -2.535   6.409  1.00  0.00    -0.033 NA
BRANCH  13  14
HETATM   14  O5  UNL     1      14.081  -2.617   6.540  1.00  0.00    -0.286 OA
ATOM     15  H5  UNL     1      14.445  -2.185   7.303  1.00  0.00     0.239 HD
ENDBRANCH  13  14
BRANCH  13  16
HETATM   16  O6  UNL     1      12.102  -3.619   6.834  1.00  0.00    -0.286 OA
ATOM     17  H6  UNL     1      11.214  -3.456   7.128  1.00  0.00     0.239 HD
ENDBRANCH  13  16
ENDBRANCH   7  13
BRANCH   6  18
HETATM   18  O3  UNL     1      14.031  -3.188   4.147  1.00  0.00    -0.389 OA
ATOM     19  H3  UNL     1      14.664  -3.355   4.835  1.00  0.00     0.210 HD
ENDBRANCH   6  18
BRANCH   1  20
HETATM   20  C2  UNL     1      10.543   1.074   3.888  1.00  0.00     0.281 C 
HETATM   21  O2  UNL     1       9.836   1.432   4.868  1.00  0.00    -0.263 OA
BRANCH  20  22
HETATM   22  O1  UNL     1      10.590   1.991   2.850  1.00  0.00    -0.325 OA
HETATM   23  C1  UNL     1       9.821   1.868   1.667  1.00  0.00     0.213 C 
ENDBRANCH  20  22
ENDBRANCH   1  20
TORSDOF 7
ENDMDL
MODEL 3
REMARK VINA RESULT: -6.167569392      1.470      2.973
REMARK  7 active torsions:
REMARK  status: ('A' for Active; 'I' for Inactive)
REMARK    1  A    between atoms: O1_2  and  C2_3 
REMARK    2  A    between atoms: C2_3  and  C3_5 
REMARK    3  A    between atoms: C6_10  and  O3_11 
REMARK    4  A    between atoms: C7_13  and  O4_14 
REMARK    5  A    between atoms: C7_13  and  N2_16 
REMARK    6  A    between atoms: N2_16  and  O5_17 
REMARK    7  A    between atoms: N2_16  and  O6_19 
ROOT
HETATM    1  C3  UNL     1      11.033   0.084   3.584  1.00  0.00     0.190 C 
HETATM    2  N1  UNL     1      12.360   0.050   3.068  1.00  0.00    -0.402 N 
ATOM      3  H1  UNL     1      12.747   0.837   2.546  1.00  0.00     0.154 HD
HETATM    4  C4  UNL     1      13.124  -1.122   3.308  1.00  0.00     0.106 C 
HETATM    5  C5  UNL     1      12.725  -2.299   2.450  1.00  0.00     0.034 C 
HETATM    6  C6  UNL     1      13.113  -1.441   4.777  1.00  0.00     0.195 C 
HETATM    7  C7  UNL     1      11.714  -1.436   5.350  1.00  0.00     0.200 C 
HETATM    8  C8  UNL     1      10.963  -0.162   5.074  1.00  0.00     0.034 C 
HETATM    9  C9  UNL     1       9.528  -0.404   5.488  1.00  0.00     0.022 C 
HETATM   10  C10 UNL     1      11.543   0.940   5.880  1.00  0.00     0.022 C 
ENDROOT
BRANCH   7  11
HETATM   11  O4  UNL     1      10.987  -2.537   4.814  1.00  0.00    -0.368 OA
ATOM     12  H4  UNL     1      10.485  -2.946   5.510  1.00  0.00     0.212 HD
ENDBRANCH   7  11
BRANCH   7  13
HETATM   13  N2  UNL     1      11.816  -1.730   6.752  1.00  0.00    -0.033 NA
BRANCH  13  14
HETATM   14  O5  UNL     1      13.010  -1.492   7.307  1.00  0.00    -0.286 OA
ATOM     15  H5  UNL     1      13.056  -1.613   8.248  1.00  0.00     0.239 HD
ENDBRANCH  13  14
BRANCH  13  16
HETATM   16  O6  UNL     1      11.277  -2.894   7.114  1.00  0.00    -0.286 OA
ATOM     17  H6  UNL     1      11.702  -3.313   7.853  1.00  0.00     0.239 HD
ENDBRANCH  13  16
ENDBRANCH   7  13
BRANCH   6  18
HETATM   18  O3  UNL     1      13.686  -2.661   5.073  1.00  0.00    -0.389 OA
ATOM     19  H3  UNL     1      13.123  -3.223   5.592  1.00  0.00     0.210 HD
ENDBRANCH   6  18
BRANCH   1  20
HETATM   20  C2  UNL     1      10.378   1.311   3.154  1.00  0.00     0.281 C 
HETATM   21  O2  UNL     1      10.024   2.166   4.010  1.00  0.00    -0.263 OA
BRANCH  20  22
HETATM   22  O1  UNL     1      10.088   1.658   1.844  1.00  0.00    -0.325 OA
HETATM   23  C1  UNL     1      10.683   2.761   1.181  1.00  0.00     0.213 C 
ENDBRANCH  20  22
ENDBRANCH   1  20
TORSDOF 7
ENDMDL
MODEL 4
REMARK VINA RESULT: -5.691768619      3.304      5.427
REMARK  7 active torsions:
REMARK  status: ('A' for Active; 'I' for Inactive)
REMARK    1  A    between atoms: O1_2  and  C2_3 
REMARK    2  A    between atoms: C2_3  and  C3_5 
REMARK    3  A    between atoms: C6_10  and  O3_11 
REMARK    4  A    between atoms: C7_13  and  O4_14 
REMARK    5  A    between atoms: C7_13  and  N2_16 
REMARK    6  A    between atoms: N2_16  and  O5_17 
REMARK    7  A    between atoms: N2_16  and  O6_19 
ROOT
HETATM    1  C3  UNL     1      10.847   0.374   1.538  1.00  0.00     0.190 C 
HETATM    2  N1  UNL     1      10.543   1.319   0.516  1.00  0.00    -0.402 N 
ATOM      3  H1  UNL     1      10.265   2.274   0.742  1.00  0.00     0.154 HD
HETATM    4  C4  UNL     1      10.642   0.879  -0.829  1.00  0.00     0.106 C 
HETATM    5  C5  UNL     1       9.504  -0.011  -1.268  1.00  0.00     0.034 C 
HETATM    6  C6  UNL     1      11.992   0.257  -1.061  1.00  0.00     0.195 C 
HETATM    7  C7  UNL     1      12.334  -0.769  -0.004  1.00  0.00     0.200 C 
HETATM    8  C8  UNL     1      12.223  -0.237   1.399  1.00  0.00     0.034 C 
HETATM    9  C9  UNL     1      12.353  -1.424   2.328  1.00  0.00     0.022 C 
HETATM   10  C10 UNL     1      13.323   0.726   1.652  1.00  0.00     0.022 C 
ENDROOT
BRANCH   7  11
HETATM   11  O4  UNL     1      11.473  -1.893  -0.150  1.00  0.00    -0.368 OA
ATOM     12  H4  UNL     1      11.942  -2.679   0.107  1.00  0.00     0.212 HD
ENDBRANCH   7  11
BRANCH   7  13
HETATM   13  N2  UNL     1      13.640  -1.284  -0.303  1.00  0.00    -0.033 NA
BRANCH  13  14
HETATM   14  O5  UNL     1      14.454  -0.450  -0.959  1.00  0.00    -0.286 OA
ATOM     15  H5  UNL     1      15.307  -0.802  -1.185  1.00  0.00     0.239 HD
ENDBRANCH  13  14
BRANCH  13  16
HETATM   16  O6  UNL     1      13.649  -2.529  -0.778  1.00  0.00    -0.286 OA
ATOM     17  H6  UNL     1      12.881  -3.042  -0.555  1.00  0.00     0.239 HD
ENDBRANCH  13  16
ENDBRANCH   7  13
BRANCH   6  18
HETATM   18  O3  UNL     1      12.106  -0.353  -2.293  1.00  0.00    -0.389 OA
ATOM     19  H3  UNL     1      12.606  -1.160  -2.266  1.00  0.00     0.210 HD
ENDBRANCH   6  18
BRANCH   1  20
HETATM   20  C2  UNL     1      10.593   0.974   2.841  1.00  0.00     0.281 C 
HETATM   21  O2  UNL     1      10.279   2.192   2.920  1.00  0.00    -0.263 OA
BRANCH  20  22
HETATM   22  O1  UNL     1      10.662   0.320   4.060  1.00  0.00    -0.325 OA
HETATM   23  C1  UNL     1       9.822   0.630   5.159  1.00  0.00     0.213 C 
ENDBRANCH  20  22
ENDBRANCH   1  20
TORSDOF 7
ENDMDL
MODEL 5
REMARK VINA RESULT: -5.657140383      2.176      4.753
REMARK  7 active torsions:
REMARK  status: ('A' for Active; 'I' for Inactive)
REMARK    1  A    between atoms: O1_2  and  C2_3 
REMARK    2  A    between atoms: C2_3  and  C3_5 
REMARK    3  A    between atoms: C6_10  and  O3_11 
REMARK    4  A    between atoms: C7_13  and  O4_14 
REMARK    5  A    between atoms: C7_13  and  N2_16 
REMARK    6  A    between atoms: N2_16  and  O5_17 
REMARK    7  A    between atoms: N2_16  and  O6_19 
ROOT
HETATM    1  C3  UNL     1      13.129  -2.991   3.316  1.00  0.00     0.190 C 
HETATM    2  N1  UNL     1      12.366  -2.517   2.210  1.00  0.00    -0.402 N 
ATOM      3  H1  UNL     1      11.989  -3.159   1.512  1.00  0.00     0.154 HD
HETATM    4  C4  UNL     1      12.150  -1.118   2.118  1.00  0.00     0.106 C 
HETATM    5  C5  UNL     1      13.359  -0.340   1.657  1.00  0.00     0.034 C 
HETATM    6  C6  UNL     1      11.587  -0.606   3.415  1.00  0.00     0.195 C 
HETATM    7  C7  UNL     1      12.390  -1.073   4.608  1.00  0.00     0.200 C 
HETATM    8  C8  UNL     1      12.572  -2.565   4.655  1.00  0.00     0.034 C 
HETATM    9  C9  UNL     1      13.583  -2.848   5.745  1.00  0.00     0.022 C 
HETATM   10  C10 UNL     1      11.278  -3.212   4.986  1.00  0.00     0.022 C 
ENDROOT
BRANCH   7  11
HETATM   11  O4  UNL     1      13.667  -0.444   4.584  1.00  0.00    -0.368 OA
ATOM     12  H4  UNL     1      14.322  -1.060   4.893  1.00  0.00     0.212 HD
ENDBRANCH   7  11
BRANCH   7  13
HETATM   13  N2  UNL     1      11.762  -0.550   5.788  1.00  0.00    -0.033 NA
BRANCH  13  14
HETATM   14  O5  UNL     1      10.446  -0.331   5.694  1.00  0.00    -0.286 OA
ATOM     15  H5  UNL     1      10.162   0.552   5.897  1.00  0.00     0.239 HD
ENDBRANCH  13  14
BRANCH  13  16
HETATM   16  O6  UNL     1      12.431   0.440   6.379  1.00  0.00    -0.286 OA
ATOM     17  H6  UNL     1      12.295   0.503   7.317  1.00  0.00     0.239 HD
ENDBRANCH  13  16
ENDBRANCH   7  13
BRANCH   6  18
HETATM   18  O3  UNL     1      11.511   0.770   3.470  1.00  0.00    -0.389 OA
ATOM     19  H3  UNL     1      11.283   1.099   4.332  1.00  0.00     0.210 HD
ENDBRANCH   6  18
BRANCH   1  20
HETATM   20  C2  UNL     1      13.329  -4.427   3.185  1.00  0.00     0.281 C 
HETATM   21  O2  UNL     1      14.443  -4.936   3.488  1.00  0.00    -0.263 OA
BRANCH  20  22
HETATM   22  O1  UNL     1      12.385  -5.339   2.744  1.00  0.00    -0.325 OA
HETATM   23  C1  UNL     1      12.717  -6.537   2.064  1.00  0.00     0.213 C 
ENDBRANCH  20  22
ENDBRANCH   1  20
TORSDOF 7
ENDMDL
