MODEL 1
REMARK VINA RESULT: -7.900676353      0.000      0.000
REMARK  5 active torsions:
REMARK  status: ('A' for Active; 'I' for Inactive)
REMARK    1  A    between atoms: C3_3  and  C4_4 
REMARK    2  A    between atoms: C4_4  and  O1_5 
REMARK    3  A    between atoms: C5_9  and  N2_10 
REMARK    4  A    between atoms: N2_10  and  N3_12 
REMARK    5  A    between atoms: C6_14  and  C7_15 
ROOT
HETATM    1  C1  UNL     1      12.509  -4.311   1.120  1.00  0.00     0.112 C 
HETATM    2  C2  UNL     1      12.593  -3.002   1.764  1.00  0.00    -0.106 C 
HETATM    3  C3  UNL     1      12.683  -1.925   2.292  1.00  0.00    -0.040 C 
ENDROOT
BRANCH   3   4
HETATM    4  C4  UNL     1      12.768  -0.594   2.944  1.00  0.00     0.255 A 
HETATM    5  N1  UNL     1      11.842   0.303   2.329  1.00  0.00    -0.175 N 
HETATM    6  C5  UNL     1      10.752   0.925   2.984  1.00  0.00     0.697 A 
ATOM      7  H1  UNL     1      11.978   0.512   1.340  1.00  0.00     0.182 HD
HETATM    8  N4  UNL     1      10.545   0.693   4.227  1.00  0.00    -0.179 N 
HETATM    9  C8  UNL     1      11.419  -0.188   4.916  1.00  0.00     0.152 A 
ATOM     10  H4  UNL     1       9.764   1.134   4.714  1.00  0.00     0.185 HD
HETATM   11  C9  UNL     1      11.204  -0.470   6.336  1.00  0.00     0.119 C 
HETATM   12  C10 UNL     1      12.450  -0.802   4.375  1.00  0.00     0.128 A 
HETATM   13  N5  UNL     1      11.015  -0.681   7.466  1.00  0.00    -0.190 NA
HETATM   14  C11 UNL     1      13.291  -1.692   5.175  1.00  0.00     0.104 C 
HETATM   15  N6  UNL     1      13.969  -2.384   5.807  1.00  0.00    -0.191 NA
BRANCH   4  16
HETATM   16  O1  UNL     1      14.095  -0.190   2.795  1.00  0.00    -0.356 OA
ATOM     17  H1  UNL     1      14.079   0.498   2.141  1.00  0.00     0.214 HD
ENDBRANCH   4  16
BRANCH   6  18
HETATM   18  N2  UNL     1       9.908   1.807   2.219  1.00  0.00    -0.132 N 
ATOM     19  H2  UNL     1       9.680   2.745   2.550  1.00  0.00     0.205 HD
BRANCH  18  20
HETATM   20  N3  UNL     1       9.422   1.330   1.021  1.00  0.00    -0.291 N 
HETATM   21  C6  UNL     1       9.195   1.997  -0.031  1.00  0.00     0.192 C 
ATOM     22  H3  UNL     1       9.223   0.330   0.977  1.00  0.00     0.186 HD
BRANCH  21  23
HETATM   23  C7  UNL     1       9.412   3.427  -0.169  1.00  0.00     0.216 C 
HETATM   24  O2  UNL     1      10.420   4.013   0.301  1.00  0.00    -0.643 OA
HETATM   25  O3  UNL     1       8.484   4.208  -0.842  1.00  0.00    -0.643 OA
ENDBRANCH  21  23
ENDBRANCH  18  20
ENDBRANCH   6  18
ENDBRANCH   3   4
TORSDOF 5
ENDMDL
MODEL 2
REMARK VINA RESULT: -7.795214344      2.828      5.363
REMARK  5 active torsions:
REMARK  status: ('A' for Active; 'I' for Inactive)
REMARK    1  A    between atoms: C3_3  and  C4_4 
REMARK    2  A    between atoms: C4_4  and  O1_5 
REMARK    3  A    between atoms: C5_9  and  N2_10 
REMARK    4  A    between atoms: N2_10  and  N3_12 
REMARK    5  A    between atoms: C6_14  and  C7_15 
ROOT
HETATM    1  C1  UNL     1       9.500   1.530   1.166  1.00  0.00     0.112 C 
HETATM    2  C2  UNL     1      10.690   0.812   1.615  1.00  0.00    -0.106 C 
HETATM    3  C3  UNL     1      11.658   0.210   1.998  1.00  0.00    -0.040 C 
ENDROOT
BRANCH   3   4
HETATM    4  C4  UNL     1      12.868  -0.521   2.452  1.00  0.00     0.255 A 
HETATM    5  N1  UNL     1      13.021  -0.365   3.864  1.00  0.00    -0.175 N 
HETATM    6  C5  UNL     1      12.990  -1.420   4.809  1.00  0.00     0.697 A 
ATOM      7  H1  UNL     1      13.165   0.580   4.219  1.00  0.00     0.182 HD
HETATM    8  N4  UNL     1      12.815  -2.624   4.407  1.00  0.00    -0.179 N 
HETATM    9  C8  UNL     1      12.653  -2.867   3.018  1.00  0.00     0.152 A 
ATOM     10  H4  UNL     1      12.791  -3.394   5.075  1.00  0.00     0.185 HD
HETATM   11  C9  UNL     1      12.451  -4.234   2.533  1.00  0.00     0.119 C 
HETATM   12  C10 UNL     1      12.670  -1.941   2.084  1.00  0.00     0.128 A 
HETATM   13  N5  UNL     1      12.291  -5.328   2.170  1.00  0.00    -0.190 NA
HETATM   14  C11 UNL     1      12.494  -2.299   0.676  1.00  0.00     0.104 C 
HETATM   15  N6  UNL     1      12.372  -2.578  -0.439  1.00  0.00    -0.191 NA
BRANCH   4  16
HETATM   16  O1  UNL     1      13.928   0.026   1.728  1.00  0.00    -0.356 OA
ATOM     17  H1  UNL     1      14.424  -0.717   1.404  1.00  0.00     0.214 HD
ENDBRANCH   4  16
BRANCH   6  18
HETATM   18  N2  UNL     1      13.161  -1.094   6.202  1.00  0.00    -0.132 N 
ATOM     19  H2  UNL     1      13.991  -0.603   6.535  1.00  0.00     0.205 HD
BRANCH  18  20
HETATM   20  N3  UNL     1      12.156  -1.476   7.065  1.00  0.00    -0.291 N 
HETATM   21  C6  UNL     1      10.998  -0.973   7.156  1.00  0.00     0.192 C 
ATOM     22  H3  UNL     1      12.368  -2.246   7.698  1.00  0.00     0.186 HD
BRANCH  21  23
HETATM   23  C7  UNL     1      10.505   0.128   6.346  1.00  0.00     0.216 C 
HETATM   24  O2  UNL     1      11.198   1.141   6.077  1.00  0.00    -0.643 OA
HETATM   25  O3  UNL     1       9.217   0.089   5.831  1.00  0.00    -0.643 OA
ENDBRANCH  21  23
ENDBRANCH  18  20
ENDBRANCH   6  18
ENDBRANCH   3   4
TORSDOF 5
ENDMDL
MODEL 3
REMARK VINA RESULT: -7.715075199      1.096      1.350
REMARK  5 active torsions:
REMARK  status: ('A' for Active; 'I' for Inactive)
REMARK    1  A    between atoms: C3_3  and  C4_4 
REMARK    2  A    between atoms: C4_4  and  O1_5 
REMARK    3  A    between atoms: C5_9  and  N2_10 
REMARK    4  A    between atoms: N2_10  and  N3_12 
REMARK    5  A    between atoms: C6_14  and  C7_15 
ROOT
HETATM    1  C1  UNL     1      12.503  -4.903   2.503  1.00  0.00     0.112 C 
HETATM    2  C2  UNL     1      12.540  -3.450   2.646  1.00  0.00    -0.106 C 
HETATM    3  C3  UNL     1      12.573  -2.251   2.745  1.00  0.00    -0.040 C 
ENDROOT
BRANCH   3   4
HETATM    4  C4  UNL     1      12.609  -0.774   2.891  1.00  0.00     0.255 A 
HETATM    5  N1  UNL     1      11.978  -0.164   1.764  1.00  0.00    -0.175 N 
HETATM    6  C5  UNL     1      10.818   0.646   1.818  1.00  0.00     0.697 A 
ATOM      7  H1  UNL     1      12.397  -0.324   0.848  1.00  0.00     0.182 HD
HETATM    8  N4  UNL     1      10.259   0.876   2.948  1.00  0.00    -0.179 N 
HETATM    9  C8  UNL     1      10.822   0.307   4.120  1.00  0.00     0.152 A 
ATOM     10  H4  UNL     1       9.424   1.458   3.004  1.00  0.00     0.185 HD
HETATM   11  C9  UNL     1      10.203   0.554   5.423  1.00  0.00     0.119 C 
HETATM   12  C10 UNL     1      11.895  -0.455   4.148  1.00  0.00     0.128 A 
HETATM   13  N5  UNL     1       9.694   0.763   6.450  1.00  0.00    -0.190 NA
HETATM   14  C11 UNL     1      12.395  -0.992   5.413  1.00  0.00     0.104 C 
HETATM   15  N6  UNL     1      12.804  -1.407   6.412  1.00  0.00    -0.191 NA
BRANCH   4  16
HETATM   16  O1  UNL     1      13.960  -0.444   3.002  1.00  0.00    -0.356 OA
ATOM     17  H1  UNL     1      14.254  -0.846   3.810  1.00  0.00     0.214 HD
ENDBRANCH   4  16
BRANCH   6  18
HETATM   18  N2  UNL     1      10.305   1.189   0.586  1.00  0.00    -0.132 N 
ATOM     19  H2  UNL     1      10.929   1.504  -0.157  1.00  0.00     0.205 HD
BRANCH  18  20
HETATM   20  N3  UNL     1       8.935   1.263   0.454  1.00  0.00    -0.291 N 
HETATM   21  C6  UNL     1       8.257   2.269   0.092  1.00  0.00     0.192 C 
ATOM     22  H3  UNL     1       8.410   0.416   0.671  1.00  0.00     0.186 HD
BRANCH  21  23
HETATM   23  C7  UNL     1       8.816   3.564  -0.259  1.00  0.00     0.216 C 
HETATM   24  O2  UNL     1       8.286   4.331  -1.102  1.00  0.00    -0.643 OA
HETATM   25  O3  UNL     1       9.986   4.001   0.345  1.00  0.00    -0.643 OA
ENDBRANCH  21  23
ENDBRANCH  18  20
ENDBRANCH   6  18
ENDBRANCH   3   4
TORSDOF 5
ENDMDL
MODEL 4
REMARK VINA RESULT: -7.640828796      1.651      1.890
REMARK  5 active torsions:
REMARK  status: ('A' for Active; 'I' for Inactive)
REMARK    1  A    between atoms: C3_3  and  C4_4 
REMARK    2  A    between atoms: C4_4  and  O1_5 
REMARK    3  A    between atoms: C5_9  and  N2_10 
REMARK    4  A    between atoms: N2_10  and  N3_12 
REMARK    5  A    between atoms: C6_14  and  C7_15 
ROOT
HETATM    1  C1  UNL     1      12.418  -5.512   2.414  1.00  0.00     0.112 C 
HETATM    2  C2  UNL     1      12.681  -4.142   2.846  1.00  0.00    -0.106 C 
HETATM    3  C3  UNL     1      12.885  -3.016   3.218  1.00  0.00    -0.040 C 
ENDROOT
BRANCH   3   4
HETATM    4  C4  UNL     1      13.155  -1.624   3.657  1.00  0.00     0.255 A 
HETATM    5  N1  UNL     1      13.222  -0.765   2.518  1.00  0.00    -0.175 N 
HETATM    6  C5  UNL     1      12.349   0.321   2.263  1.00  0.00     0.697 A 
ATOM      7  H1  UNL     1      13.958  -0.947   1.836  1.00  0.00     0.182 HD
HETATM    8  N4  UNL     1      11.411   0.588   3.094  1.00  0.00    -0.179 N 
HETATM    9  C8  UNL     1      11.273  -0.218   4.255  1.00  0.00     0.152 A 
ATOM     10  H4  UNL     1      10.775   1.366   2.926  1.00  0.00     0.185 HD
HETATM   11  C9  UNL     1      10.211   0.066   5.221  1.00  0.00     0.119 C 
HETATM   12  C10 UNL     1      12.045  -1.241   4.558  1.00  0.00     0.128 A 
HETATM   13  N5  UNL     1       9.358   0.309   5.976  1.00  0.00    -0.190 NA
HETATM   14  C11 UNL     1      11.817  -2.008   5.783  1.00  0.00     0.104 C 
HETATM   15  N6  UNL     1      11.652  -2.608   6.758  1.00  0.00    -0.191 NA
BRANCH   4  16
HETATM   16  O1  UNL     1      14.356  -1.682   4.364  1.00  0.00    -0.356 OA
ATOM     17  H1  UNL     1      14.477  -0.815   4.733  1.00  0.00     0.214 HD
ENDBRANCH   4  16
BRANCH   6  18
HETATM   18  N2  UNL     1      12.551   1.093   1.064  1.00  0.00    -0.132 N 
ATOM     19  H2  UNL     1      13.351   1.718   0.962  1.00  0.00     0.205 HD
BRANCH  18  20
HETATM   20  N3  UNL     1      11.618   0.951   0.059  1.00  0.00    -0.291 N 
HETATM   21  C6  UNL     1      10.673   1.745  -0.223  1.00  0.00     0.192 C 
ATOM     22  H3  UNL     1      11.697   0.115  -0.520  1.00  0.00     0.186 HD
BRANCH  21  23
HETATM   23  C7  UNL     1      10.393   2.984   0.482  1.00  0.00     0.216 C 
HETATM   24  O2  UNL     1      10.335   4.100  -0.094  1.00  0.00    -0.643 OA
HETATM   25  O3  UNL     1      10.177   2.970   1.852  1.00  0.00    -0.643 OA
ENDBRANCH  21  23
ENDBRANCH  18  20
ENDBRANCH   6  18
ENDBRANCH   3   4
TORSDOF 5
ENDMDL
MODEL 5
REMARK VINA RESULT: -7.635239018      2.965      6.102
REMARK  5 active torsions:
REMARK  status: ('A' for Active; 'I' for Inactive)
REMARK    1  A    between atoms: C3_3  and  C4_4 
REMARK    2  A    between atoms: C4_4  and  O1_5 
REMARK    3  A    between atoms: C5_9  and  N2_10 
REMARK    4  A    between atoms: N2_10  and  N3_12 
REMARK    5  A    between atoms: C6_14  and  C7_15 
ROOT
HETATM    1  C1  UNL     1      10.436   2.972   1.267  1.00  0.00     0.112 C 
HETATM    2  C2  UNL     1      11.478   1.961   1.428  1.00  0.00    -0.106 C 
HETATM    3  C3  UNL     1      12.345   1.140   1.577  1.00  0.00    -0.040 C 
ENDROOT
BRANCH   3   4
HETATM    4  C4  UNL     1      13.403   0.111   1.742  1.00  0.00     0.255 A 
HETATM    5  N1  UNL     1      13.441  -0.324   3.101  1.00  0.00    -0.175 N 
HETATM    6  C5  UNL     1      13.187  -1.646   3.542  1.00  0.00     0.697 A 
ATOM      7  H1  UNL     1      13.671   0.372   3.811  1.00  0.00     0.182 HD
HETATM    8  N4  UNL     1      12.897  -2.553   2.685  1.00  0.00    -0.179 N 
HETATM    9  C8  UNL     1      12.837  -2.205   1.310  1.00  0.00     0.152 A 
ATOM     10  H4  UNL     1      12.712  -3.510   2.986  1.00  0.00     0.185 HD
HETATM   11  C9  UNL     1      12.508  -3.223   0.311  1.00  0.00     0.119 C 
HETATM   12  C10 UNL     1      13.060  -1.001   0.828  1.00  0.00     0.128 A 
HETATM   13  N5  UNL     1      12.243  -4.048  -0.467  1.00  0.00    -0.190 NA
HETATM   14  C11 UNL     1      12.972  -0.747  -0.611  1.00  0.00     0.104 C 
HETATM   15  N6  UNL     1      12.921  -0.544  -1.748  1.00  0.00    -0.191 NA
BRANCH   4  16
HETATM   16  O1  UNL     1      14.587   0.727   1.335  1.00  0.00    -0.356 OA
ATOM     17  H1  UNL     1      14.788   0.354   0.485  1.00  0.00     0.214 HD
ENDBRANCH   4  16
BRANCH   6  18
HETATM   18  N2  UNL     1      13.267  -1.923   4.953  1.00  0.00    -0.132 N 
ATOM     19  H2  UNL     1      13.400  -2.872   5.302  1.00  0.00     0.205 HD
BRANCH  18  20
HETATM   20  N3  UNL     1      13.157  -0.850   5.812  1.00  0.00    -0.291 N 
HETATM   21  C6  UNL     1      12.130  -0.496   6.464  1.00  0.00     0.192 C 
ATOM     22  H3  UNL     1      13.992  -0.279   5.936  1.00  0.00     0.186 HD
BRANCH  21  23
HETATM   23  C7  UNL     1      10.847  -1.177   6.422  1.00  0.00     0.216 C 
HETATM   24  O2  UNL     1       9.777  -0.598   6.105  1.00  0.00    -0.643 OA
HETATM   25  O3  UNL     1      10.764  -2.524   6.742  1.00  0.00    -0.643 OA
ENDBRANCH  21  23
ENDBRANCH  18  20
ENDBRANCH   6  18
ENDBRANCH   3   4
TORSDOF 5
ENDMDL
