MODEL 1
REMARK VINA RESULT: -7.200472533      0.000      0.000
REMARK  3 active torsions:
REMARK  status: ('A' for Active; 'I' for Inactive)
REMARK    1  A    between atoms: N1_4  and  C4_5 
REMARK    2  A    between atoms: C7_11  and  N3_12 
REMARK    3  A    between atoms: C8_19  and  N7_21 
ROOT
HETATM    1  C4  UNL     1      12.553  -1.452   3.886  1.00  0.00     0.142 A 
HETATM    2  C5  UNL     1      13.429  -2.299   4.536  1.00  0.00     0.125 A 
HETATM    3  C6  UNL     1      13.484  -2.364   5.913  1.00  0.00     0.263 A 
HETATM    4  O1  UNL     1      14.279  -3.133   6.512  1.00  0.00    -0.268 OA
HETATM    5  N2  UNL     1      12.672  -1.595   6.642  1.00  0.00    -0.156 N 
ATOM      6  H2  UNL     1      12.707  -1.640   7.661  1.00  0.00     0.187 HD
HETATM    7  C7  UNL     1      11.814  -0.767   6.040  1.00  0.00     0.680 A 
HETATM    8  N4  UNL     1      11.777  -0.718   4.701  1.00  0.00    -0.175 N 
ATOM      9  H4  UNL     1      11.111  -0.077   4.269  1.00  0.00     0.186 HD
ENDROOT
BRANCH   1  10
HETATM   10  N1  UNL     1      12.504  -1.383   2.458  1.00  0.00    -0.250 N 
HETATM   11  C2  UNL     1      12.202  -0.251   1.622  1.00  0.00     0.093 C 
HETATM   12  C1  UNL     1      13.301   0.762   1.778  1.00  0.00     0.044 C 
HETATM   13  C3  UNL     1      10.840   0.333   1.910  1.00  0.00     0.044 C 
HETATM   14  C8  UNL     1      12.208  -0.864   0.240  1.00  0.00     0.205 C 
HETATM   15  N6  UNL     1      11.948  -2.292   0.520  1.00  0.00    -0.085 NA
HETATM   16  C9  UNL     1      13.609  -0.808  -0.379  1.00  0.00     0.069 C 
HETATM   17  N5  UNL     1      12.772  -2.458   1.634  1.00  0.00    -0.024 NA
BRANCH  14  18
HETATM   18  N7  UNL     1      11.277  -0.315  -0.680  1.00  0.00    -0.124 N 
HETATM   19  O2  UNL     1      11.523   0.777  -1.247  1.00  0.00    -0.535 OA
HETATM   20  O3  UNL     1      10.088  -0.920  -1.002  1.00  0.00    -0.535 OA
ENDBRANCH  14  18
ENDBRANCH   1  10
BRANCH   7  21
HETATM   21  N3  UNL     1      11.015  -0.010   6.762  1.00  0.00    -0.234 N 
ATOM     22  H32 UNL     1      11.394   0.724   7.361  1.00  0.00     0.174 HD
ATOM     23  H31 UNL     1      10.006  -0.155   6.725  1.00  0.00     0.174 HD
ENDBRANCH   7  21
TORSDOF 3
ENDMDL
MODEL 2
REMARK VINA RESULT: -7.071840217      2.195      5.876
REMARK  3 active torsions:
REMARK  status: ('A' for Active; 'I' for Inactive)
REMARK    1  A    between atoms: N1_4  and  C4_5 
REMARK    2  A    between atoms: C7_11  and  N3_12 
REMARK    3  A    between atoms: C8_19  and  N7_21 
ROOT
HETATM    1  C4  UNL     1      12.391  -2.262   1.269  1.00  0.00     0.142 A 
HETATM    2  C5  UNL     1      12.806  -3.246   0.393  1.00  0.00     0.125 A 
HETATM    3  C6  UNL     1      12.829  -3.037  -0.971  1.00  0.00     0.263 A 
HETATM    4  O1  UNL     1      13.206  -3.928  -1.775  1.00  0.00    -0.268 OA
HETATM    5  N2  UNL     1      12.445  -1.857  -1.464  1.00  0.00    -0.156 N 
ATOM      6  H2  UNL     1      12.461  -1.696  -2.471  1.00  0.00     0.187 HD
HETATM    7  C7  UNL     1      12.040  -0.887  -0.639  1.00  0.00     0.680 A 
HETATM    8  N4  UNL     1      12.024  -1.110   0.682  1.00  0.00    -0.175 N 
ATOM      9  H4  UNL     1      11.710  -0.351   1.287  1.00  0.00     0.186 HD
ENDROOT
BRANCH   1  10
HETATM   10  N1  UNL     1      12.362  -2.486   2.681  1.00  0.00    -0.250 N 
HETATM   11  C2  UNL     1      12.518  -1.531   3.746  1.00  0.00     0.093 C 
HETATM   12  C1  UNL     1      11.340  -0.597   3.724  1.00  0.00     0.044 C 
HETATM   13  C3  UNL     1      13.834  -0.793   3.673  1.00  0.00     0.044 C 
HETATM   14  C8  UNL     1      12.500  -2.413   4.973  1.00  0.00     0.205 C 
HETATM   15  N6  UNL     1      12.902  -3.727   4.429  1.00  0.00    -0.085 NA
HETATM   16  C9  UNL     1      11.070  -2.597   5.494  1.00  0.00     0.069 C 
HETATM   17  N5  UNL     1      12.153  -3.726   3.252  1.00  0.00    -0.024 NA
BRANCH  14  18
HETATM   18  N7  UNL     1      13.329  -1.994   6.045  1.00  0.00    -0.124 N 
HETATM   19  O2  UNL     1      14.350  -2.657   6.348  1.00  0.00    -0.535 OA
HETATM   20  O3  UNL     1      13.080  -0.873   6.798  1.00  0.00    -0.535 OA
ENDBRANCH  14  18
ENDBRANCH   1  10
BRANCH   7  21
HETATM   21  N3  UNL     1      11.662   0.275  -1.129  1.00  0.00    -0.234 N 
ATOM     22  H32 UNL     1      12.352   0.980  -1.390  1.00  0.00     0.174 HD
ATOM     23  H31 UNL     1      10.669   0.477  -1.250  1.00  0.00     0.174 HD
ENDBRANCH   7  21
TORSDOF 3
ENDMDL
MODEL 3
REMARK VINA RESULT: -7.030923451      2.100      6.118
REMARK  3 active torsions:
REMARK  status: ('A' for Active; 'I' for Inactive)
REMARK    1  A    between atoms: N1_4  and  C4_5 
REMARK    2  A    between atoms: C7_11  and  N3_12 
REMARK    3  A    between atoms: C8_19  and  N7_21 
ROOT
HETATM    1  C4  UNL     1      11.224   0.554   2.201  1.00  0.00     0.142 A 
HETATM    2  C5  UNL     1      10.999   1.892   1.943  1.00  0.00     0.125 A 
HETATM    3  C6  UNL     1      10.843   2.363   0.656  1.00  0.00     0.263 A 
HETATM    4  O1  UNL     1      10.638   3.581   0.413  1.00  0.00    -0.268 OA
HETATM    5  N2  UNL     1      10.907   1.512  -0.371  1.00  0.00    -0.156 N 
ATOM      6  H2  UNL     1      10.792   1.855  -1.324  1.00  0.00     0.187 HD
HETATM    7  C7  UNL     1      11.123   0.212  -0.151  1.00  0.00     0.680 A 
HETATM    8  N4  UNL     1      11.273  -0.226   1.107  1.00  0.00    -0.175 N 
ATOM      9  H4  UNL     1      11.435  -1.224   1.245  1.00  0.00     0.186 HD
ENDROOT
BRANCH   1  10
HETATM   10  N1  UNL     1      11.392   0.070   3.536  1.00  0.00    -0.250 N 
HETATM   11  C2  UNL     1      12.248  -0.986   4.010  1.00  0.00     0.093 C 
HETATM   12  C1  UNL     1      13.677  -0.554   3.833  1.00  0.00     0.044 C 
HETATM   13  C3  UNL     1      11.962  -2.307   3.338  1.00  0.00     0.044 C 
HETATM   14  C8  UNL     1      11.874  -1.069   5.472  1.00  0.00     0.205 C 
HETATM   15  N6  UNL     1      10.518  -0.482   5.491  1.00  0.00    -0.085 NA
HETATM   16  C9  UNL     1      12.746  -0.132   6.315  1.00  0.00     0.069 C 
HETATM   17  N5  UNL     1      10.723   0.593   4.626  1.00  0.00    -0.024 NA
BRANCH  14  18
HETATM   18  N7  UNL     1      11.911  -2.368   6.043  1.00  0.00    -0.124 N 
HETATM   19  O2  UNL     1      10.846  -2.928   6.400  1.00  0.00    -0.535 OA
HETATM   20  O3  UNL     1      13.071  -3.074   6.237  1.00  0.00    -0.535 OA
ENDBRANCH  14  18
ENDBRANCH   1  10
BRANCH   7  21
HETATM   21  N3  UNL     1      11.186  -0.624  -1.165  1.00  0.00    -0.234 N 
ATOM     22  H32 UNL     1      10.394  -0.733  -1.799  1.00  0.00     0.174 HD
ATOM     23  H31 UNL     1      12.033  -1.170  -1.323  1.00  0.00     0.174 HD
ENDBRANCH   7  21
TORSDOF 3
ENDMDL
MODEL 4
REMARK VINA RESULT: -6.995041270      1.542      6.048
REMARK  3 active torsions:
REMARK  status: ('A' for Active; 'I' for Inactive)
REMARK    1  A    between atoms: N1_4  and  C4_5 
REMARK    2  A    between atoms: C7_11  and  N3_12 
REMARK    3  A    between atoms: C8_19  and  N7_21 
ROOT
HETATM    1  C4  UNL     1      12.267  -1.384   1.397  1.00  0.00     0.142 A 
HETATM    2  C5  UNL     1      11.598  -0.216   1.089  1.00  0.00     0.125 A 
HETATM    3  C6  UNL     1      11.588   0.295  -0.193  1.00  0.00     0.263 A 
HETATM    4  O1  UNL     1      10.981   1.359  -0.481  1.00  0.00    -0.268 OA
HETATM    5  N2  UNL     1      12.237  -0.350  -1.165  1.00  0.00    -0.156 N 
ATOM      6  H2  UNL     1      12.233   0.023  -2.114  1.00  0.00     0.187 HD
HETATM    7  C7  UNL     1      12.893  -1.483  -0.895  1.00  0.00     0.680 A 
HETATM    8  N4  UNL     1      12.890  -1.963   0.357  1.00  0.00    -0.175 N 
ATOM      9  H4  UNL     1      13.398  -2.829   0.532  1.00  0.00     0.186 HD
ENDROOT
BRANCH   1  10
HETATM   10  N1  UNL     1      12.279  -1.907   2.729  1.00  0.00    -0.250 N 
HETATM   11  C2  UNL     1      12.462  -1.203   3.970  1.00  0.00     0.093 C 
HETATM   12  C1  UNL     1      11.280  -0.299   4.181  1.00  0.00     0.044 C 
HETATM   13  C3  UNL     1      13.772  -0.454   4.023  1.00  0.00     0.044 C 
HETATM   14  C8  UNL     1      12.482  -2.329   4.977  1.00  0.00     0.205 C 
HETATM   15  N6  UNL     1      12.874  -3.491   4.152  1.00  0.00    -0.085 NA
HETATM   16  C9  UNL     1      11.068  -2.636   5.485  1.00  0.00     0.069 C 
HETATM   17  N5  UNL     1      12.091  -3.243   3.024  1.00  0.00    -0.024 NA
BRANCH  14  18
HETATM   18  N7  UNL     1      13.339  -2.143   6.092  1.00  0.00    -0.124 N 
HETATM   19  O2  UNL     1      13.136  -1.197   6.891  1.00  0.00    -0.535 OA
HETATM   20  O3  UNL     1      14.411  -2.956   6.364  1.00  0.00    -0.535 OA
ENDBRANCH  14  18
ENDBRANCH   1  10
BRANCH   7  21
HETATM   21  N3  UNL     1      13.531  -2.116  -1.856  1.00  0.00    -0.234 N 
ATOM     22  H32 UNL     1      13.027  -2.714  -2.511  1.00  0.00     0.174 HD
ATOM     23  H31 UNL     1      14.542  -2.011  -1.950  1.00  0.00     0.174 HD
ENDBRANCH   7  21
TORSDOF 3
ENDMDL
MODEL 5
REMARK VINA RESULT: -6.858555531      1.905      5.774
REMARK  3 active torsions:
REMARK  status: ('A' for Active; 'I' for Inactive)
REMARK    1  A    between atoms: N1_4  and  C4_5 
REMARK    2  A    between atoms: C7_11  and  N3_12 
REMARK    3  A    between atoms: C8_19  and  N7_21 
ROOT
HETATM    1  C4  UNL     1      12.187  -1.085   1.444  1.00  0.00     0.142 A 
HETATM    2  C5  UNL     1      13.287  -1.060   0.609  1.00  0.00     0.125 A 
HETATM    3  C6  UNL     1      13.240  -0.455  -0.630  1.00  0.00     0.263 A 
HETATM    4  O1  UNL     1      14.238  -0.429  -1.396  1.00  0.00    -0.268 OA
HETATM    5  N2  UNL     1      12.109   0.124  -1.039  1.00  0.00    -0.156 N 
ATOM      6  H2  UNL     1      12.069   0.574  -1.953  1.00  0.00     0.187 HD
HETATM    7  C7  UNL     1      11.030   0.116  -0.251  1.00  0.00     0.680 A 
HETATM    8  N4  UNL     1      11.096  -0.477   0.949  1.00  0.00    -0.175 N 
ATOM      9  H4  UNL     1      10.256  -0.467   1.529  1.00  0.00     0.186 HD
ENDROOT
BRANCH   1  10
HETATM   10  N1  UNL     1      12.238  -1.719   2.726  1.00  0.00    -0.250 N 
HETATM   11  C2  UNL     1      12.412  -1.116   4.021  1.00  0.00     0.093 C 
HETATM   12  C1  UNL     1      11.200  -0.280   4.322  1.00  0.00     0.044 C 
HETATM   13  C3  UNL     1      13.693  -0.324   4.123  1.00  0.00     0.044 C 
HETATM   14  C8  UNL     1      12.488  -2.323   4.927  1.00  0.00     0.205 C 
HETATM   15  N6  UNL     1      12.912  -3.394   4.002  1.00  0.00    -0.085 NA
HETATM   16  C9  UNL     1      11.095  -2.726   5.422  1.00  0.00     0.069 C 
HETATM   17  N5  UNL     1      12.105  -3.081   2.907  1.00  0.00    -0.024 NA
BRANCH  14  18
HETATM   18  N7  UNL     1      13.354  -2.199   6.045  1.00  0.00    -0.124 N 
HETATM   19  O2  UNL     1      13.148  -1.309   6.905  1.00  0.00    -0.535 OA
HETATM   20  O3  UNL     1      14.437  -3.015   6.254  1.00  0.00    -0.535 OA
ENDBRANCH  14  18
ENDBRANCH   1  10
BRANCH   7  21
HETATM   21  N3  UNL     1       9.917   0.688  -0.657  1.00  0.00    -0.234 N 
ATOM     22  H32 UNL     1       9.331   0.244  -1.365  1.00  0.00     0.174 HD
ATOM     23  H31 UNL     1       9.633   1.585  -0.263  1.00  0.00     0.174 HD
ENDBRANCH   7  21
TORSDOF 3
ENDMDL
