MODEL 1
REMARK VINA RESULT: -6.075128964      0.000      0.000
REMARK  8 active torsions:
REMARK  status: ('A' for Active; 'I' for Inactive)
REMARK    1  A    between atoms: O1_2  and  C2_3 
REMARK       I    between atoms: C2_3  and  N1_5 
REMARK    2  A    between atoms: N1_5  and  C3_6 
REMARK    3  A    between atoms: C3_6  and  C4_7 
REMARK    4  A    between atoms: C5_9  and  O4_10 
REMARK    5  A    between atoms: C6_12  and  O5_13 
REMARK    6  A    between atoms: C6_12  and  C7_15 
REMARK    7  A    between atoms: C7_15  and  O6_17 
REMARK    8  A    between atoms: C9_20  and  O8_21 
ROOT
HETATM    1  C4  UNL     1      13.165  -0.065   2.881  1.00  0.00     0.231 C 
HETATM    2  O3  UNL     1      13.978  -0.817   3.678  1.00  0.00    -0.339 OA
HETATM    3  C5  UNL     1      13.451  -1.169   4.896  1.00  0.00     0.323 C 
HETATM    4  C6  UNL     1      12.051  -1.665   4.862  1.00  0.00     0.241 C 
HETATM    5  O7  UNL     1      11.293  -0.871   4.012  1.00  0.00    -0.316 OA
HETATM    6  C9  UNL     1      11.838  -0.784   2.735  1.00  0.00     0.295 C 
ENDROOT
BRANCH   1   7
HETATM    7  C3  UNL     1      13.786  -0.173   1.474  1.00  0.00     0.198 C 
BRANCH   7   8
HETATM    8  N1  UNL     1      13.255  -0.154   0.464  1.00  0.00    -0.360 NA
HETATM    9  C2  UNL     1      12.778  -0.230  -0.765  1.00  0.00     0.438 C 
HETATM   10  O2  UNL     1      11.517  -0.250  -1.081  1.00  0.00    -0.221 OA
BRANCH   9  11
HETATM   11  O1  UNL     1      13.609  -0.301  -1.896  1.00  0.00    -0.298 OA
HETATM   12  C1  UNL     1      13.024  -0.294  -3.173  1.00  0.00     0.216 C 
ENDBRANCH   9  11
ENDBRANCH   7   8
ENDBRANCH   1   7
BRANCH   6  13
HETATM   13  O8  UNL     1      12.126  -2.042   2.202  1.00  0.00    -0.368 OA
ATOM     14  H8  UNL     1      11.343  -2.568   2.313  1.00  0.00     0.212 HD
ENDBRANCH   6  13
BRANCH   3  15
HETATM   15  O4  UNL     1      14.320  -2.138   5.445  1.00  0.00    -0.366 OA
ATOM     16  H4  UNL     1      14.596  -1.805   6.290  1.00  0.00     0.212 HD
ENDBRANCH   3  15
BRANCH   4  17
HETATM   17  O5  UNL     1      11.936  -2.970   4.383  1.00  0.00    -0.360 OA
ATOM     18  H5  UNL     1      11.065  -3.182   4.066  1.00  0.00     0.213 HD
ENDBRANCH   4  17
BRANCH   4  19
HETATM   19  C7  UNL     1      11.425  -1.630   6.230  1.00  0.00     0.181 C 
HETATM   20  C8  UNL     1      10.405  -0.524   6.364  1.00  0.00     0.045 C 
BRANCH  19  21
HETATM   21  O6  UNL     1      12.417  -1.343   7.193  1.00  0.00    -0.390 OA
ATOM     22  H6  UNL     1      12.006  -1.202   8.039  1.00  0.00     0.210 HD
ENDBRANCH  19  21
ENDBRANCH   4  19
TORSDOF 8
ENDMDL
MODEL 2
REMARK VINA RESULT: -6.014679826      2.952      4.941
REMARK  8 active torsions:
REMARK  status: ('A' for Active; 'I' for Inactive)
REMARK    1  A    between atoms: O1_2  and  C2_3 
REMARK       I    between atoms: C2_3  and  N1_5 
REMARK    2  A    between atoms: N1_5  and  C3_6 
REMARK    3  A    between atoms: C3_6  and  C4_7 
REMARK    4  A    between atoms: C5_9  and  O4_10 
REMARK    5  A    between atoms: C6_12  and  O5_13 
REMARK    6  A    between atoms: C6_12  and  C7_15 
REMARK    7  A    between atoms: C7_15  and  O6_17 
REMARK    8  A    between atoms: C9_20  and  O8_21 
ROOT
HETATM    1  C4  UNL     1      13.353  -1.160   5.091  1.00  0.00     0.231 C 
HETATM    2  O3  UNL     1      12.782  -1.077   3.855  1.00  0.00    -0.339 OA
HETATM    3  C5  UNL     1      13.064  -2.115   3.002  1.00  0.00     0.323 C 
HETATM    4  C6  UNL     1      12.960  -3.472   3.599  1.00  0.00     0.241 C 
HETATM    5  O7  UNL     1      13.534  -3.473   4.862  1.00  0.00    -0.316 OA
HETATM    6  C9  UNL     1      12.990  -2.503   5.697  1.00  0.00     0.295 C 
ENDROOT
BRANCH   1   7
HETATM    7  C3  UNL     1      12.566  -0.155   5.955  1.00  0.00     0.198 C 
BRANCH   7   8
HETATM    8  N1  UNL     1      11.509   0.242   5.792  1.00  0.00    -0.360 NA
HETATM    9  C2  UNL     1      10.335   0.729   5.432  1.00  0.00     0.438 C 
HETATM   10  O2  UNL     1       9.189   0.375   5.934  1.00  0.00    -0.221 OA
BRANCH   9  11
HETATM   11  O1  UNL     1      10.196   1.712   4.437  1.00  0.00    -0.298 OA
HETATM   12  C1  UNL     1      10.325   1.340   3.089  1.00  0.00     0.216 C 
ENDBRANCH   9  11
ENDBRANCH   7   8
ENDBRANCH   1   7
BRANCH   6  13
HETATM   13  O8  UNL     1      11.595  -2.560   5.726  1.00  0.00    -0.368 OA
ATOM     14  H8  UNL     1      11.366  -3.254   6.332  1.00  0.00     0.212 HD
ENDBRANCH   6  13
BRANCH   3  15
HETATM   15  O4  UNL     1      12.191  -1.977   1.900  1.00  0.00    -0.366 OA
ATOM     16  H4  UNL     1      11.312  -1.931   2.256  1.00  0.00     0.212 HD
ENDBRANCH   3  15
BRANCH   4  17
HETATM   17  O5  UNL     1      11.645  -3.906   3.767  1.00  0.00    -0.360 OA
ATOM     18  H5  UNL     1      11.035  -3.202   3.956  1.00  0.00     0.213 HD
ENDBRANCH   4  17
BRANCH   4  19
HETATM   19  C7  UNL     1      13.668  -4.496   2.753  1.00  0.00     0.181 C 
HETATM   20  C8  UNL     1      12.747  -5.608   2.310  1.00  0.00     0.045 C 
BRANCH  19  21
HETATM   21  O6  UNL     1      14.672  -5.125   3.520  1.00  0.00    -0.390 OA
ATOM     22  H6  UNL     1      14.857  -5.984   3.157  1.00  0.00     0.210 HD
ENDBRANCH  19  21
ENDBRANCH   4  19
TORSDOF 8
ENDMDL
MODEL 3
REMARK VINA RESULT: -6.003251268      2.167      5.811
REMARK  8 active torsions:
REMARK  status: ('A' for Active; 'I' for Inactive)
REMARK    1  A    between atoms: O1_2  and  C2_3 
REMARK       I    between atoms: C2_3  and  N1_5 
REMARK    2  A    between atoms: N1_5  and  C3_6 
REMARK    3  A    between atoms: C3_6  and  C4_7 
REMARK    4  A    between atoms: C5_9  and  O4_10 
REMARK    5  A    between atoms: C6_12  and  O5_13 
REMARK    6  A    between atoms: C6_12  and  C7_15 
REMARK    7  A    between atoms: C7_15  and  O6_17 
REMARK    8  A    between atoms: C9_20  and  O8_21 
ROOT
HETATM    1  C4  UNL     1      12.116  -1.769   2.742  1.00  0.00     0.231 C 
HETATM    2  O3  UNL     1      12.524  -1.802   1.441  1.00  0.00    -0.339 OA
HETATM    3  C5  UNL     1      12.091  -0.759   0.659  1.00  0.00     0.323 C 
HETATM    4  C6  UNL     1      12.216   0.588   1.272  1.00  0.00     0.241 C 
HETATM    5  O7  UNL     1      11.812   0.538   2.600  1.00  0.00    -0.316 OA
HETATM    6  C9  UNL     1      12.500  -0.425   3.331  1.00  0.00     0.295 C 
ENDROOT
BRANCH   1   7
HETATM    7  C3  UNL     1      13.050  -2.756   3.471  1.00  0.00     0.198 C 
BRANCH   7   8
HETATM    8  N1  UNL     1      13.369  -2.750   4.567  1.00  0.00    -0.360 NA
HETATM    9  C2  UNL     1      13.584  -2.656   5.866  1.00  0.00     0.438 C 
HETATM   10  O2  UNL     1      14.223  -3.530   6.587  1.00  0.00    -0.221 OA
BRANCH   9  11
HETATM   11  O1  UNL     1      13.131  -1.568   6.632  1.00  0.00    -0.298 OA
HETATM   12  C1  UNL     1      11.751  -1.333   6.731  1.00  0.00     0.216 C 
ENDBRANCH   9  11
ENDBRANCH   7   8
ENDBRANCH   1   7
BRANCH   6  13
HETATM   13  O8  UNL     1      13.883  -0.307   3.180  1.00  0.00    -0.368 OA
ATOM     14  H8  UNL     1      14.272  -0.668   3.968  1.00  0.00     0.212 HD
ENDBRANCH   6  13
BRANCH   3  15
HETATM   15  O4  UNL     1      12.817  -0.836  -0.550  1.00  0.00    -0.366 OA
ATOM     16  H4  UNL     1      12.541  -0.096  -1.078  1.00  0.00     0.212 HD
ENDBRANCH   3  15
BRANCH   4  17
HETATM   17  O5  UNL     1      13.522   1.076   1.280  1.00  0.00    -0.360 OA
ATOM     18  H5  UNL     1      13.573   2.022   1.356  1.00  0.00     0.213 HD
ENDBRANCH   4  17
BRANCH   4  19
HETATM   19  C7  UNL     1      11.361   1.597   0.553  1.00  0.00     0.181 C 
HETATM   20  C8  UNL     1      10.557   2.449   1.507  1.00  0.00     0.045 C 
BRANCH  19  21
HETATM   21  O6  UNL     1      10.409   0.924  -0.243  1.00  0.00    -0.390 OA
ATOM     22  H6  UNL     1       9.537   1.231  -0.020  1.00  0.00     0.210 HD
ENDBRANCH  19  21
ENDBRANCH   4  19
TORSDOF 8
ENDMDL
MODEL 4
REMARK VINA RESULT: -6.000927647      3.041      3.851
REMARK  8 active torsions:
REMARK  status: ('A' for Active; 'I' for Inactive)
REMARK    1  A    between atoms: O1_2  and  C2_3 
REMARK       I    between atoms: C2_3  and  N1_5 
REMARK    2  A    between atoms: N1_5  and  C3_6 
REMARK    3  A    between atoms: C3_6  and  C4_7 
REMARK    4  A    between atoms: C5_9  and  O4_10 
REMARK    5  A    between atoms: C6_12  and  O5_13 
REMARK    6  A    between atoms: C6_12  and  C7_15 
REMARK    7  A    between atoms: C7_15  and  O6_17 
REMARK    8  A    between atoms: C9_20  and  O8_21 
ROOT
HETATM    1  C4  UNL     1      10.615   0.534   2.977  1.00  0.00     0.231 C 
HETATM    2  O3  UNL     1      11.291   0.469   4.161  1.00  0.00    -0.339 OA
HETATM    3  C5  UNL     1      12.005  -0.684   4.371  1.00  0.00     0.323 C 
HETATM    4  C6  UNL     1      12.814  -1.149   3.215  1.00  0.00     0.241 C 
HETATM    5  O7  UNL     1      12.075  -1.028   2.046  1.00  0.00    -0.316 OA
HETATM    6  C9  UNL     1      11.594   0.263   1.851  1.00  0.00     0.295 C 
ENDROOT
BRANCH   1   7
HETATM    7  C3  UNL     1      10.275   2.027   2.801  1.00  0.00     0.198 C 
BRANCH   7   8
HETATM    8  N1  UNL     1      10.178   2.621   1.831  1.00  0.00    -0.360 NA
HETATM    9  C2  UNL     1       9.902   3.353   0.767  1.00  0.00     0.438 C 
HETATM   10  O2  UNL     1      10.770   4.031   0.076  1.00  0.00    -0.221 OA
BRANCH   9  11
HETATM   11  O1  UNL     1       8.601   3.480   0.253  1.00  0.00    -0.298 OA
HETATM   12  C1  UNL     1       8.429   3.675  -1.127  1.00  0.00     0.216 C 
ENDBRANCH   9  11
ENDBRANCH   7   8
ENDBRANCH   1   7
BRANCH   6  13
HETATM   13  O8  UNL     1      12.604   1.220   1.965  1.00  0.00    -0.368 OA
ATOM     14  H8  UNL     1      13.317   0.928   1.409  1.00  0.00     0.212 HD
ENDBRANCH   6  13
BRANCH   3  15
HETATM   15  O4  UNL     1      12.822  -0.451   5.500  1.00  0.00    -0.366 OA
ATOM     16  H4  UNL     1      12.616   0.425   5.805  1.00  0.00     0.212 HD
ENDBRANCH   3  15
BRANCH   4  17
HETATM   17  O5  UNL     1      13.980  -0.409   3.018  1.00  0.00    -0.360 OA
ATOM     18  H5  UNL     1      14.305  -0.446   2.126  1.00  0.00     0.213 HD
ENDBRANCH   4  17
BRANCH   4  19
HETATM   19  C7  UNL     1      13.217  -2.591   3.374  1.00  0.00     0.181 C 
HETATM   20  C8  UNL     1      12.024  -3.506   3.514  1.00  0.00     0.045 C 
BRANCH  19  21
HETATM   21  O6  UNL     1      13.949  -2.744   4.572  1.00  0.00    -0.390 OA
ATOM     22  H6  UNL     1      13.971  -1.916   5.038  1.00  0.00     0.210 HD
ENDBRANCH  19  21
ENDBRANCH   4  19
TORSDOF 8
ENDMDL
MODEL 5
REMARK VINA RESULT: -5.928988237      2.857      3.872
REMARK  8 active torsions:
REMARK  status: ('A' for Active; 'I' for Inactive)
REMARK    1  A    between atoms: O1_2  and  C2_3 
REMARK       I    between atoms: C2_3  and  N1_5 
REMARK    2  A    between atoms: N1_5  and  C3_6 
REMARK    3  A    between atoms: C3_6  and  C4_7 
REMARK    4  A    between atoms: C5_9  and  O4_10 
REMARK    5  A    between atoms: C6_12  and  O5_13 
REMARK    6  A    between atoms: C6_12  and  C7_15 
REMARK    7  A    between atoms: C7_15  and  O6_17 
REMARK    8  A    between atoms: C9_20  and  O8_21 
ROOT
HETATM    1  C4  UNL     1      11.967  -3.022   3.509  1.00  0.00     0.231 C 
HETATM    2  O3  UNL     1      12.383  -1.893   2.865  1.00  0.00    -0.339 OA
HETATM    3  C5  UNL     1      11.836  -0.718   3.318  1.00  0.00     0.323 C 
HETATM    4  C6  UNL     1      11.798  -0.564   4.795  1.00  0.00     0.241 C 
HETATM    5  O7  UNL     1      11.396  -1.756   5.381  1.00  0.00    -0.316 OA
HETATM    6  C9  UNL     1      12.188  -2.833   4.998  1.00  0.00     0.295 C 
ENDROOT
BRANCH   1   7
HETATM    7  C3  UNL     1      13.006  -4.095   3.129  1.00  0.00     0.198 C 
BRANCH   7   8
HETATM    8  N1  UNL     1      13.146  -4.621   2.125  1.00  0.00    -0.360 NA
HETATM    9  C2  UNL     1      13.140  -5.175   0.926  1.00  0.00     0.438 C 
HETATM   10  O2  UNL     1      14.177  -5.306   0.154  1.00  0.00    -0.221 OA
BRANCH   9  11
HETATM   11  O1  UNL     1      11.975  -5.699   0.341  1.00  0.00    -0.298 OA
HETATM   12  C1  UNL     1      11.614  -5.282  -0.951  1.00  0.00     0.216 C 
ENDBRANCH   9  11
ENDBRANCH   7   8
ENDBRANCH   1   7
BRANCH   6  13
HETATM   13  O8  UNL     1      13.548  -2.569   5.167  1.00  0.00    -0.368 OA
ATOM     14  H8  UNL     1      13.699  -1.697   4.820  1.00  0.00     0.212 HD
ENDBRANCH   6  13
BRANCH   3  15
HETATM   15  O4  UNL     1      12.573   0.326   2.717  1.00  0.00    -0.366 OA
ATOM     16  H4  UNL     1      12.606   1.033   3.351  1.00  0.00     0.212 HD
ENDBRANCH   3  15
BRANCH   4  17
HETATM   17  O5  UNL     1      13.039  -0.254   5.353  1.00  0.00    -0.360 OA
ATOM     18  H5  UNL     1      12.993  -0.022   6.273  1.00  0.00     0.213 HD
ENDBRANCH   4  17
BRANCH   4  19
HETATM   19  C7  UNL     1      10.836   0.518   5.207  1.00  0.00     0.181 C 
HETATM   20  C8  UNL     1       9.695  -0.019   6.039  1.00  0.00     0.045 C 
BRANCH  19  21
HETATM   21  O6  UNL     1      10.232   1.072   4.058  1.00  0.00    -0.390 OA
ATOM     22  H6  UNL     1      10.013   1.982   4.223  1.00  0.00     0.210 HD
ENDBRANCH  19  21
ENDBRANCH   4  19
TORSDOF 8
ENDMDL
