MODEL 1
REMARK VINA RESULT: -6.401178944      0.000      0.000
REMARK  5 active torsions:
REMARK  status: ('A' for Active; 'I' for Inactive)
REMARK    1  A    between atoms: N3_7  and  C4_8 
REMARK    2  A    between atoms: C4_8  and  C5_9 
REMARK    3  A    between atoms: C6_10  and  O1_11 
REMARK    4  A    between atoms: N4_14  and  O2_16 
REMARK    5  A    between atoms: N5_19  and  O3_20 
ROOT
HETATM    1  C5  UNL     1      11.958  -0.453   4.293  1.00  0.00     0.134 C 
HETATM    2  C6  UNL     1      12.589  -1.797   4.526  1.00  0.00     0.188 C 
HETATM    3  C7  UNL     1      12.332  -1.982   5.998  1.00  0.00     0.055 C 
HETATM    4  N4  UNL     1      13.060  -2.540   6.882  1.00  0.00    -0.274 N 
ATOM      5  H4  UNL     1      12.738  -2.584   7.849  1.00  0.00     0.193 HD
HETATM    6  C8  UNL     1      10.994  -1.350   6.209  1.00  0.00     0.178 C 
HETATM    7  N5  UNL     1      10.888  -0.296   5.225  1.00  0.00    -0.186 NA
ENDROOT
BRANCH   1   8
HETATM    8  C4  UNL     1      11.473  -0.274   2.877  1.00  0.00     0.129 C 
BRANCH   8   9
HETATM    9  N3  UNL     1      11.677   1.068   2.404  1.00  0.00    -0.236 NA
HETATM   10  C3  UNL     1      12.443   1.047   1.186  1.00  0.00     0.125 C 
HETATM   11  C2  UNL     1      11.673   0.587  -0.006  1.00  0.00     0.155 C 
HETATM   12  N2  UNL     1      10.663   1.456  -0.469  1.00  0.00    -0.327 N 
HETATM   13  N1  UNL     1      10.179   2.385   0.398  1.00  0.00    -0.260 N 
ATOM     14  H2  UNL     1      10.308   1.390  -1.423  1.00  0.00     0.180 HD
HETATM   15  C1  UNL     1      10.580   3.733   0.171  1.00  0.00     0.187 C 
HETATM   16  S1  UNL     1      10.167   1.907   2.077  1.00  0.00     0.056 SA
ENDBRANCH   8   9
ENDBRANCH   1   8
BRANCH   2  17
HETATM   17  O1  UNL     1      11.940  -2.815   3.828  1.00  0.00    -0.388 OA
ATOM     18  H1  UNL     1      11.191  -3.157   4.303  1.00  0.00     0.210 HD
ENDBRANCH   2  17
BRANCH   7  19
HETATM   19  O3  UNL     1      10.891   0.920   5.836  1.00  0.00    -0.312 OA
ATOM     20  H3  UNL     1      11.709   1.110   6.279  1.00  0.00     0.237 HD
ENDBRANCH   7  19
BRANCH   4  21
HETATM   21  O2  UNL     1      14.269  -3.079   6.548  1.00  0.00    -0.290 OA
ATOM     22  H2  UNL     1      14.708  -3.682   7.136  1.00  0.00     0.244 HD
ENDBRANCH   4  21
TORSDOF 5
ENDMDL
MODEL 2
REMARK VINA RESULT: -5.955726974      4.071      5.972
REMARK  5 active torsions:
REMARK  status: ('A' for Active; 'I' for Inactive)
REMARK    1  A    between atoms: N3_7  and  C4_8 
REMARK    2  A    between atoms: C4_8  and  C5_9 
REMARK    3  A    between atoms: C6_10  and  O1_11 
REMARK    4  A    between atoms: N4_14  and  O2_16 
REMARK    5  A    between atoms: N5_19  and  O3_20 
ROOT
HETATM    1  C5  UNL     1      12.352  -3.525   1.986  1.00  0.00     0.134 C 
HETATM    2  C6  UNL     1      12.641  -4.976   2.253  1.00  0.00     0.188 C 
HETATM    3  C7  UNL     1      12.674  -5.524   0.852  1.00  0.00     0.055 C 
HETATM    4  N4  UNL     1      12.286  -6.658   0.418  1.00  0.00    -0.274 N 
ATOM      5  H4  UNL     1      12.379  -6.878  -0.574  1.00  0.00     0.193 HD
HETATM    6  C8  UNL     1      13.279  -4.417   0.049  1.00  0.00     0.178 C 
HETATM    7  N5  UNL     1      12.903  -3.188   0.712  1.00  0.00    -0.186 NA
ENDROOT
BRANCH   1   8
HETATM    8  C4  UNL     1      12.883  -2.616   3.064  1.00  0.00     0.129 C 
BRANCH   8   9
HETATM    9  N3  UNL     1      11.836  -2.117   3.912  1.00  0.00    -0.236 NA
HETATM   10  C3  UNL     1      11.773  -2.893   5.122  1.00  0.00     0.125 C 
HETATM   11  C2  UNL     1      12.883  -2.612   6.079  1.00  0.00     0.155 C 
HETATM   12  N2  UNL     1      12.865  -1.347   6.702  1.00  0.00    -0.327 N 
HETATM   13  N1  UNL     1      12.149  -0.357   6.105  1.00  0.00    -0.260 N 
ATOM     14  H2  UNL     1      13.371  -1.180   7.572  1.00  0.00     0.180 HD
HETATM   15  C1  UNL     1      10.922   0.005   6.733  1.00  0.00     0.187 C 
HETATM   16  S1  UNL     1      12.074  -0.434   4.363  1.00  0.00     0.056 SA
ENDBRANCH   8   9
ENDBRANCH   1   8
BRANCH   2  17
HETATM   17  O1  UNL     1      13.894  -5.166   2.836  1.00  0.00    -0.388 OA
ATOM     18  H1  UNL     1      14.513  -5.569   2.238  1.00  0.00     0.210 HD
ENDBRANCH   2  17
BRANCH   7  19
HETATM   19  O3  UNL     1      12.044  -2.477  -0.066  1.00  0.00    -0.312 OA
ATOM     20  H3  UNL     1      11.457  -1.925   0.438  1.00  0.00     0.237 HD
ENDBRANCH   7  19
BRANCH   4  21
HETATM   21  O2  UNL     1      11.749  -7.580   1.268  1.00  0.00    -0.290 OA
ATOM     22  H2  UNL     1      10.958  -7.385   1.756  1.00  0.00     0.244 HD
ENDBRANCH   4  21
TORSDOF 5
ENDMDL
MODEL 3
REMARK VINA RESULT: -5.946796033      3.634      4.228
REMARK  5 active torsions:
REMARK  status: ('A' for Active; 'I' for Inactive)
REMARK    1  A    between atoms: N3_7  and  C4_8 
REMARK    2  A    between atoms: C4_8  and  C5_9 
REMARK    3  A    between atoms: C6_10  and  O1_11 
REMARK    4  A    between atoms: N4_14  and  O2_16 
REMARK    5  A    between atoms: N5_19  and  O3_20 
ROOT
HETATM    1  C5  UNL     1      13.238  -2.224   2.707  1.00  0.00     0.134 C 
HETATM    2  C6  UNL     1      12.971  -3.009   3.960  1.00  0.00     0.188 C 
HETATM    3  C7  UNL     1      13.334  -1.998   5.015  1.00  0.00     0.055 C 
HETATM    4  N4  UNL     1      13.884  -2.176   6.150  1.00  0.00    -0.274 N 
ATOM      5  H4  UNL     1      14.065  -1.375   6.755  1.00  0.00     0.193 HD
HETATM    6  C8  UNL     1      12.898  -0.695   4.425  1.00  0.00     0.178 C 
HETATM    7  N5  UNL     1      13.019  -0.842   2.992  1.00  0.00    -0.186 NA
ENDROOT
BRANCH   1   8
HETATM    8  C4  UNL     1      12.394  -2.677   1.544  1.00  0.00     0.129 C 
BRANCH   8   9
HETATM    9  N3  UNL     1      13.157  -2.767   0.328  1.00  0.00    -0.236 NA
HETATM   10  C3  UNL     1      13.234  -4.138  -0.102  1.00  0.00     0.125 C 
HETATM   11  C2  UNL     1      11.965  -4.662  -0.687  1.00  0.00     0.155 C 
HETATM   12  N2  UNL     1      11.586  -4.126  -1.935  1.00  0.00    -0.327 N 
HETATM   13  N1  UNL     1      12.115  -2.927  -2.297  1.00  0.00    -0.260 N 
ATOM     14  H2  UNL     1      10.935  -4.620  -2.545  1.00  0.00     0.180 HD
HETATM   15  C1  UNL     1      13.115  -2.957  -3.313  1.00  0.00     0.187 C 
HETATM   16  S1  UNL     1      12.454  -1.829  -0.983  1.00  0.00     0.056 SA
ENDBRANCH   8   9
ENDBRANCH   1   8
BRANCH   2  17
HETATM   17  O1  UNL     1      11.621  -3.336   4.102  1.00  0.00    -0.388 OA
ATOM     18  H1  UNL     1      11.417  -4.189   3.737  1.00  0.00     0.210 HD
ENDBRANCH   2  17
BRANCH   7  19
HETATM   19  O3  UNL     1      14.010  -0.039   2.518  1.00  0.00    -0.312 OA
ATOM     20  H3  UNL     1      13.786   0.379   1.694  1.00  0.00     0.237 HD
ENDBRANCH   7  19
BRANCH   4  21
HETATM   21  O2  UNL     1      14.233  -3.428   6.565  1.00  0.00    -0.290 OA
ATOM     22  H2  UNL     1      14.882  -3.548   7.248  1.00  0.00     0.244 HD
ENDBRANCH   4  21
TORSDOF 5
ENDMDL
MODEL 4
REMARK VINA RESULT: -5.939079903      2.349      2.577
REMARK  5 active torsions:
REMARK  status: ('A' for Active; 'I' for Inactive)
REMARK    1  A    between atoms: N3_7  and  C4_8 
REMARK    2  A    between atoms: C4_8  and  C5_9 
REMARK    3  A    between atoms: C6_10  and  O1_11 
REMARK    4  A    between atoms: N4_14  and  O2_16 
REMARK    5  A    between atoms: N5_19  and  O3_20 
ROOT
HETATM    1  C5  UNL     1      12.815  -1.572   3.069  1.00  0.00     0.134 C 
HETATM    2  C6  UNL     1      13.225  -2.711   3.959  1.00  0.00     0.188 C 
HETATM    3  C7  UNL     1      12.674  -2.253   5.283  1.00  0.00     0.055 C 
HETATM    4  N4  UNL     1      13.150  -2.408   6.454  1.00  0.00    -0.274 N 
ATOM      5  H4  UNL     1      12.648  -2.032   7.259  1.00  0.00     0.193 HD
HETATM    6  C8  UNL     1      11.406  -1.551   4.918  1.00  0.00     0.178 C 
HETATM    7  N5  UNL     1      11.614  -1.005   3.595  1.00  0.00    -0.186 NA
ENDROOT
BRANCH   1   8
HETATM    8  C4  UNL     1      12.631  -1.990   1.633  1.00  0.00     0.129 C 
BRANCH   8   9
HETATM    9  N3  UNL     1      12.038  -0.948   0.840  1.00  0.00    -0.236 NA
HETATM   10  C3  UNL     1      13.039   0.021   0.478  1.00  0.00     0.125 C 
HETATM   11  C2  UNL     1      13.982  -0.448  -0.579  1.00  0.00     0.155 C 
HETATM   12  N2  UNL     1      13.441  -0.608  -1.872  1.00  0.00    -0.327 N 
HETATM   13  N1  UNL     1      12.093  -0.750  -1.982  1.00  0.00    -0.260 N 
ATOM     14  H2  UNL     1      14.040  -0.616  -2.697  1.00  0.00     0.180 HD
HETATM   15  C1  UNL     1      11.377   0.370  -2.495  1.00  0.00     0.187 C 
HETATM   16  S1  UNL     1      11.313  -1.554  -0.643  1.00  0.00     0.056 SA
ENDBRANCH   8   9
ENDBRANCH   1   8
BRANCH   2  17
HETATM   17  O1  UNL     1      12.601  -3.908   3.607  1.00  0.00    -0.388 OA
ATOM     18  H1  UNL     1      11.842  -4.092   4.147  1.00  0.00     0.210 HD
ENDBRANCH   2  17
BRANCH   7  19
HETATM   19  O3  UNL     1      11.648   0.355   3.647  1.00  0.00    -0.312 OA
ATOM     20  H3  UNL     1      10.786   0.743   3.741  1.00  0.00     0.237 HD
ENDBRANCH   7  19
BRANCH   4  21
HETATM   21  O2  UNL     1      14.326  -3.074   6.643  1.00  0.00    -0.290 OA
ATOM     22  H2  UNL     1      14.328  -3.988   6.904  1.00  0.00     0.244 HD
ENDBRANCH   4  21
TORSDOF 5
ENDMDL
MODEL 5
REMARK VINA RESULT: -5.898583081      3.485      4.538
REMARK  5 active torsions:
REMARK  status: ('A' for Active; 'I' for Inactive)
REMARK    1  A    between atoms: N3_7  and  C4_8 
REMARK    2  A    between atoms: C4_8  and  C5_9 
REMARK    3  A    between atoms: C6_10  and  O1_11 
REMARK    4  A    between atoms: N4_14  and  O2_16 
REMARK    5  A    between atoms: N5_19  and  O3_20 
ROOT
HETATM    1  C5  UNL     1      12.463  -1.976   4.625  1.00  0.00     0.134 C 
HETATM    2  C6  UNL     1      11.459  -0.864   4.503  1.00  0.00     0.188 C 
HETATM    3  C7  UNL     1      11.464  -0.318   5.906  1.00  0.00     0.055 C 
HETATM    4  N4  UNL     1      10.502   0.163   6.589  1.00  0.00    -0.274 N 
ATOM      5  H4  UNL     1      10.673   0.495   7.539  1.00  0.00     0.193 HD
HETATM    6  C8  UNL     1      12.887  -0.464   6.341  1.00  0.00     0.178 C 
HETATM    7  N5  UNL     1      13.407  -1.615   5.636  1.00  0.00    -0.186 NA
ENDROOT
BRANCH   1   8
HETATM    8  C4  UNL     1      13.156  -2.283   3.323  1.00  0.00     0.129 C 
BRANCH   8   9
HETATM    9  N3  UNL     1      12.261  -2.864   2.360  1.00  0.00    -0.236 NA
HETATM   10  C3  UNL     1      12.152  -2.004   1.211  1.00  0.00     0.125 C 
HETATM   11  C2  UNL     1      13.353  -2.024   0.325  1.00  0.00     0.155 C 
HETATM   12  N2  UNL     1      13.579  -3.218  -0.391  1.00  0.00    -0.327 N 
HETATM   13  N1  UNL     1      12.996  -4.356   0.072  1.00  0.00    -0.260 N 
ATOM     14  H2  UNL     1      14.162  -3.228  -1.229  1.00  0.00     0.180 HD
HETATM   15  C1  UNL     1      11.887  -4.849  -0.675  1.00  0.00     0.187 C 
HETATM   16  S1  UNL     1      12.796  -4.443   1.804  1.00  0.00     0.056 SA
ENDBRANCH   8   9
ENDBRANCH   1   8
BRANCH   2  17
HETATM   17  O1  UNL     1      11.885   0.139   3.632  1.00  0.00    -0.388 OA
ATOM     18  H1  UNL     1      12.681   0.562   3.932  1.00  0.00     0.210 HD
ENDBRANCH   2  17
BRANCH   7  19
HETATM   19  O3  UNL     1      13.663  -2.627   6.508  1.00  0.00    -0.312 OA
ATOM     20  H3  UNL     1      13.107  -2.601   7.279  1.00  0.00     0.237 HD
ENDBRANCH   7  19
BRANCH   4  21
HETATM   21  O2  UNL     1       9.245   0.237   6.063  1.00  0.00    -0.290 OA
ATOM     22  H2  UNL     1       9.036  -0.201   5.247  1.00  0.00     0.244 HD
ENDBRANCH   4  21
TORSDOF 5
ENDMDL
