MODEL 1
REMARK VINA RESULT: -7.482380431      0.000      0.000
REMARK  1 active torsions:
REMARK  status: ('A' for Active; 'I' for Inactive)
REMARK    1  A    between atoms: N1_1  and  C1_4 
ROOT
HETATM    1  C1  UNL     1      41.284   1.938  41.249  1.00  0.00     0.706 A 
HETATM    2  N2  UNL     1      40.724   2.201  42.442  1.00  0.00    -0.019 N 
ATOM      3  H2  UNL     1      41.216   2.202  43.335  1.00  0.00     0.203 HD
HETATM    4  C2  UNL     1      39.404   2.465  42.276  1.00  0.00     0.727 A 
HETATM    5  N3  UNL     1      38.407   2.782  43.135  1.00  0.00    -0.138 N 
ATOM      6  H3  UNL     1      38.620   2.857  44.130  1.00  0.00     0.189 HD
HETATM    7  C3  UNL     1      37.144   3.004  42.724  1.00  0.00     0.342 A 
HETATM    8  O1  UNL     1      36.229   3.299  43.548  1.00  0.00    -0.246 OA
HETATM    9  N4  UNL     1      36.911   2.894  41.403  1.00  0.00    -0.258 N 
ATOM     10  H4  UNL     1      35.966   3.054  41.055  1.00  0.00     0.175 HD
HETATM   11  C4  UNL     1      37.882   2.580  40.522  1.00  0.00     0.365 A 
HETATM   12  O2  UNL     1      37.627   2.489  39.316  1.00  0.00    -0.244 OA
HETATM   13  N5  UNL     1      39.151   2.360  40.959  1.00  0.00    -0.016 N 
HETATM   14  N6  UNL     1      40.286   2.044  40.354  1.00  0.00    -0.106 N 
ATOM     15  H6  UNL     1      40.389   1.901  39.349  1.00  0.00     0.207 HD
ENDROOT
BRANCH   1  16
HETATM   16  N1  UNL     1      42.512   1.639  40.958  1.00  0.00    -0.233 N 
ATOM     17  H12 UNL     1      43.182   2.278  40.530  1.00  0.00     0.174 HD
ATOM     18  H11 UNL     1      43.018   0.763  41.091  1.00  0.00     0.174 HD
ENDBRANCH   1  16
TORSDOF 1
ENDMDL
MODEL 2
REMARK VINA RESULT: -6.972574243      1.713      3.892
REMARK  1 active torsions:
REMARK  status: ('A' for Active; 'I' for Inactive)
REMARK    1  A    between atoms: N1_1  and  C1_4 
ROOT
HETATM    1  C1  UNL     1      36.778   3.065  43.161  1.00  0.00     0.706 A 
HETATM    2  N2  UNL     1      38.063   3.096  43.554  1.00  0.00    -0.019 N 
ATOM      3  H2  UNL     1      38.384   3.297  44.501  1.00  0.00     0.203 HD
HETATM    4  C2  UNL     1      38.868   2.819  42.498  1.00  0.00     0.727 A 
HETATM    5  N3  UNL     1      40.211   2.725  42.355  1.00  0.00    -0.138 N 
ATOM      6  H3  UNL     1      40.804   2.883  43.169  1.00  0.00     0.189 HD
HETATM    7  C3  UNL     1      40.792   2.431  41.176  1.00  0.00     0.342 A 
HETATM    8  O1  UNL     1      42.050   2.350  41.069  1.00  0.00    -0.246 OA
HETATM    9  N4  UNL     1      39.968   2.233  40.131  1.00  0.00    -0.258 N 
ATOM     10  H4  UNL     1      40.373   2.009  39.221  1.00  0.00     0.175 HD
HETATM   11  C4  UNL     1      38.628   2.318  40.240  1.00  0.00     0.365 A 
HETATM   12  O2  UNL     1      37.906   2.128  39.254  1.00  0.00    -0.244 OA
HETATM   13  N5  UNL     1      38.061   2.616  41.440  1.00  0.00    -0.016 N 
HETATM   14  N6  UNL     1      36.811   2.766  41.851  1.00  0.00    -0.106 N 
ATOM     15  H6  UNL     1      35.988   2.668  41.256  1.00  0.00     0.207 HD
ENDROOT
BRANCH   1  16
HETATM   16  N1  UNL     1      35.697   3.271  43.848  1.00  0.00    -0.233 N 
ATOM     17  H12 UNL     1      35.311   4.189  44.067  1.00  0.00     0.174 HD
ATOM     18  H11 UNL     1      35.061   2.599  44.277  1.00  0.00     0.174 HD
ENDBRANCH   1  16
TORSDOF 1
ENDMDL
MODEL 3
REMARK VINA RESULT: -6.784392671      1.148      2.388
REMARK  1 active torsions:
REMARK  status: ('A' for Active; 'I' for Inactive)
REMARK    1  A    between atoms: N1_1  and  C1_4 
ROOT
HETATM    1  C1  UNL     1      41.201   2.091  41.078  1.00  0.00     0.706 A 
HETATM    2  N2  UNL     1      40.356   1.901  40.051  1.00  0.00    -0.019 N 
ATOM      3  H2  UNL     1      40.624   1.571  39.123  1.00  0.00     0.203 HD
HETATM    4  C2  UNL     1      39.094   2.216  40.435  1.00  0.00     0.727 A 
HETATM    5  N3  UNL     1      37.900   2.202  39.798  1.00  0.00    -0.138 N 
ATOM      6  H3  UNL     1      37.866   1.902  38.824  1.00  0.00     0.189 HD
HETATM    7  C3  UNL     1      36.755   2.568  40.404  1.00  0.00     0.342 A 
HETATM    8  O1  UNL     1      35.651   2.546  39.786  1.00  0.00    -0.246 OA
HETATM    9  N4  UNL     1      36.850   2.956  41.689  1.00  0.00    -0.258 N 
ATOM     10  H4  UNL     1      36.003   3.241  42.181  1.00  0.00     0.175 HD
HETATM   11  C4  UNL     1      38.023   2.981  42.352  1.00  0.00     0.365 A 
HETATM   12  O2  UNL     1      38.068   3.344  43.533  1.00  0.00    -0.244 OA
HETATM   13  N5  UNL     1      39.169   2.607  41.721  1.00  0.00    -0.016 N 
HETATM   14  N6  UNL     1      40.437   2.527  42.095  1.00  0.00    -0.106 N 
ATOM     15  H6  UNL     1      40.784   2.763  43.024  1.00  0.00     0.207 HD
ENDROOT
BRANCH   1  16
HETATM   16  N1  UNL     1      42.485   1.912  41.139  1.00  0.00    -0.233 N 
ATOM     17  H12 UNL     1      43.068   2.145  41.943  1.00  0.00     0.174 HD
ATOM     18  H11 UNL     1      43.123   1.530  40.442  1.00  0.00     0.174 HD
ENDBRANCH   1  16
TORSDOF 1
ENDMDL
MODEL 4
REMARK VINA RESULT: -6.611234525      1.425      2.857
REMARK  1 active torsions:
REMARK  status: ('A' for Active; 'I' for Inactive)
REMARK    1  A    between atoms: N1_1  and  C1_4 
ROOT
HETATM    1  C1  UNL     1      40.219   2.308  41.699  1.00  0.00     0.706 A 
HETATM    2  N2  UNL     1      39.897   2.359  40.395  1.00  0.00    -0.019 N 
ATOM      3  H2  UNL     1      40.566   2.378  39.625  1.00  0.00     0.203 HD
HETATM    4  C2  UNL     1      38.548   2.382  40.260  1.00  0.00     0.727 A 
HETATM    5  N3  UNL     1      37.724   2.431  39.187  1.00  0.00    -0.138 N 
ATOM      6  H3  UNL     1      38.134   2.458  38.253  1.00  0.00     0.189 HD
HETATM    7  C3  UNL     1      36.383   2.445  39.307  1.00  0.00     0.342 A 
HETATM    8  O1  UNL     1      35.635   2.492  38.287  1.00  0.00    -0.246 OA
HETATM    9  N4  UNL     1      35.889   2.409  40.558  1.00  0.00    -0.258 N 
ATOM     10  H4  UNL     1      34.877   2.419  40.687  1.00  0.00     0.175 HD
HETATM   11  C4  UNL     1      36.682   2.359  41.646  1.00  0.00     0.365 A 
HETATM   12  O2  UNL     1      36.188   2.326  42.779  1.00  0.00    -0.244 OA
HETATM   13  N5  UNL     1      38.035   2.345  41.503  1.00  0.00    -0.016 N 
HETATM   14  N6  UNL     1      39.046   2.301  42.357  1.00  0.00    -0.106 N 
ATOM     15  H6  UNL     1      38.948   2.266  43.371  1.00  0.00     0.207 HD
ENDROOT
BRANCH   1  16
HETATM   16  N1  UNL     1      41.386   2.272  42.264  1.00  0.00    -0.233 N 
ATOM     17  H12 UNL     1      41.813   3.049  42.770  1.00  0.00     0.174 HD
ATOM     18  H11 UNL     1      42.063   1.512  42.311  1.00  0.00     0.174 HD
ENDBRANCH   1  16
TORSDOF 1
ENDMDL
MODEL 5
REMARK VINA RESULT: -6.479872210      1.954      4.304
REMARK  1 active torsions:
REMARK  status: ('A' for Active; 'I' for Inactive)
REMARK    1  A    between atoms: N1_1  and  C1_4 
ROOT
HETATM    1  C1  UNL     1      36.473   2.442  39.914  1.00  0.00     0.706 A 
HETATM    2  N2  UNL     1      37.658   2.135  39.360  1.00  0.00    -0.019 N 
ATOM      3  H2  UNL     1      37.792   1.803  38.404  1.00  0.00     0.203 HD
HETATM    4  C2  UNL     1      38.649   2.331  40.265  1.00  0.00     0.727 A 
HETATM    5  N3  UNL     1      39.992   2.175  40.218  1.00  0.00    -0.138 N 
ATOM      6  H3  UNL     1      40.419   1.845  39.352  1.00  0.00     0.189 HD
HETATM    7  C3  UNL     1      40.787   2.441  41.272  1.00  0.00     0.342 A 
HETATM    8  O1  UNL     1      42.041   2.287  41.202  1.00  0.00    -0.246 OA
HETATM    9  N4  UNL     1      40.179   2.875  42.392  1.00  0.00    -0.258 N 
ATOM     10  H4  UNL     1      40.749   3.085  43.211  1.00  0.00     0.175 HD
HETATM   11  C4  UNL     1      38.844   3.041  42.471  1.00  0.00     0.365 A 
HETATM   12  O2  UNL     1      38.324   3.441  43.519  1.00  0.00    -0.244 OA
HETATM   13  N5  UNL     1      38.059   2.766  41.394  1.00  0.00    -0.016 N 
HETATM   14  N6  UNL     1      36.755   2.829  41.171  1.00  0.00    -0.106 N 
ATOM     15  H6  UNL     1      36.062   3.129  41.856  1.00  0.00     0.207 HD
ENDROOT
BRANCH   1  16
HETATM   16  N1  UNL     1      35.282   2.397  39.402  1.00  0.00    -0.233 N 
ATOM     17  H12 UNL     1      34.590   1.673  39.598  1.00  0.00     0.174 HD
ATOM     18  H11 UNL     1      34.831   3.033  38.745  1.00  0.00     0.174 HD
ENDBRANCH   1  16
TORSDOF 1
ENDMDL
