MODEL 1
REMARK VINA RESULT: -5.732751183      0.000      0.000
REMARK  1 active torsions:
REMARK  status: ('A' for Active; 'I' for Inactive)
REMARK       I    between atoms: C1_4  and  N3_6 
REMARK    1  A    between atoms: C4_14  and  N6_15 
ROOT
HETATM    1  N1  UNL     1      41.467   3.064  41.395  1.00  0.00    -0.372 N 
ATOM      2  H11 UNL     1      41.093   3.992  41.195  1.00  0.00     0.158 HD
ATOM      3  H12 UNL     1      42.474   2.936  41.497  1.00  0.00     0.158 HD
HETATM    4  C1  UNL     1      40.655   2.083  41.510  1.00  0.00     0.209 C 
HETATM    5  N2  UNL     1      41.172   0.799  41.785  1.00  0.00    -0.062 NA
HETATM    6  N3  UNL     1      39.259   2.261  41.369  1.00  0.00    -0.205 N 
HETATM    7  N4  UNL     1      38.685   1.935  40.211  1.00  0.00    -0.285 N 
ATOM      8  H4  UNL     1      39.262   1.567  39.456  1.00  0.00     0.188 HD
HETATM    9  C2  UNL     1      37.378   2.078  40.017  1.00  0.00     0.201 A 
HETATM   10  N5  UNL     1      36.574   2.559  40.981  1.00  0.00    -0.315 N 
ATOM     11  H5  UNL     1      35.572   2.669  40.831  1.00  0.00     0.170 HD
HETATM   12  C3  UNL     1      37.147   2.891  42.151  1.00  0.00     0.292 A 
HETATM   13  O1  UNL     1      36.461   3.355  43.124  1.00  0.00    -0.264 OA
HETATM   14  C4  UNL     1      38.490   2.749  42.367  1.00  0.00     0.192 A 
ENDROOT
BRANCH  14  15
HETATM   15  N6  UNL     1      39.078   3.055  43.476  1.00  0.00    -0.379 N 
ATOM     16  H62 UNL     1      38.586   3.336  44.325  1.00  0.00     0.158 HD
ATOM     17  H61 UNL     1      40.097   3.012  43.494  1.00  0.00     0.158 HD
ENDBRANCH  14  15
TORSDOF 1
ENDMDL
MODEL 2
REMARK VINA RESULT: -5.651960662      1.250      2.394
REMARK  1 active torsions:
REMARK  status: ('A' for Active; 'I' for Inactive)
REMARK       I    between atoms: C1_4  and  N3_6 
REMARK    1  A    between atoms: C4_14  and  N6_15 
ROOT
HETATM    1  N1  UNL     1      40.898   0.802  41.892  1.00  0.00    -0.372 N 
ATOM      2  H11 UNL     1      40.240   0.079  42.181  1.00  0.00     0.158 HD
ATOM      3  H12 UNL     1      41.876   0.560  41.732  1.00  0.00     0.158 HD
HETATM    4  C1  UNL     1      40.474   1.998  41.738  1.00  0.00     0.209 C 
HETATM    5  N2  UNL     1      41.386   2.999  41.338  1.00  0.00    -0.062 NA
HETATM    6  N3  UNL     1      39.118   2.334  41.958  1.00  0.00    -0.205 N 
HETATM    7  N4  UNL     1      38.779   2.908  43.113  1.00  0.00    -0.285 N 
ATOM      8  H4  UNL     1      39.502   3.090  43.808  1.00  0.00     0.188 HD
HETATM    9  C2  UNL     1      37.522   3.248  43.379  1.00  0.00     0.201 A 
HETATM   10  N5  UNL     1      36.534   3.027  42.496  1.00  0.00    -0.315 N 
ATOM     11  H5  UNL     1      35.570   3.287  42.702  1.00  0.00     0.170 HD
HETATM   12  C3  UNL     1      36.868   2.448  41.330  1.00  0.00     0.292 A 
HETATM   13  O1  UNL     1      35.996   2.201  40.430  1.00  0.00    -0.264 OA
HETATM   14  C4  UNL     1      38.157   2.094  41.039  1.00  0.00     0.192 A 
ENDROOT
BRANCH  14  15
HETATM   15  N6  UNL     1      38.520   1.536  39.932  1.00  0.00    -0.379 N 
ATOM     16  H62 UNL     1      39.439   1.121  39.777  1.00  0.00     0.158 HD
ATOM     17  H61 UNL     1      37.840   1.516  39.172  1.00  0.00     0.158 HD
ENDBRANCH  14  15
TORSDOF 1
ENDMDL
MODEL 3
REMARK VINA RESULT: -5.288436500      2.142      4.064
REMARK  1 active torsions:
REMARK  status: ('A' for Active; 'I' for Inactive)
REMARK       I    between atoms: C1_4  and  N3_6 
REMARK    1  A    between atoms: C4_14  and  N6_15 
ROOT
HETATM    1  N1  UNL     1      35.760   3.105  40.026  1.00  0.00    -0.372 N 
ATOM      2  H11 UNL     1      36.304   3.911  39.718  1.00  0.00     0.158 HD
ATOM      3  H12 UNL     1      34.833   2.941  39.633  1.00  0.00     0.158 HD
HETATM    4  C1  UNL     1      36.261   2.320  40.902  1.00  0.00     0.209 C 
HETATM    5  N2  UNL     1      35.509   1.204  41.328  1.00  0.00    -0.062 NA
HETATM    6  N3  UNL     1      37.547   2.547  41.447  1.00  0.00    -0.205 N 
HETATM    7  N4  UNL     1      37.643   3.117  42.648  1.00  0.00    -0.285 N 
ATOM      8  H4  UNL     1      36.791   3.377  43.144  1.00  0.00     0.188 HD
HETATM    9  C2  UNL     1      38.821   3.356  43.213  1.00  0.00     0.201 A 
HETATM   10  N5  UNL     1      39.973   3.034  42.599  1.00  0.00    -0.315 N 
ATOM     11  H5  UNL     1      40.876   3.218  43.033  1.00  0.00     0.170 HD
HETATM   12  C3  UNL     1      39.883   2.459  41.387  1.00  0.00     0.292 A 
HETATM   13  O1  UNL     1      40.924   2.118  40.729  1.00  0.00    -0.264 OA
HETATM   14  C4  UNL     1      38.678   2.205  40.792  1.00  0.00     0.192 A 
ENDROOT
BRANCH  14  15
HETATM   15  N6  UNL     1      38.549   1.654  39.630  1.00  0.00    -0.379 N 
ATOM     16  H62 UNL     1      37.801   1.878  38.973  1.00  0.00     0.158 HD
ATOM     17  H61 UNL     1      39.241   0.954  39.363  1.00  0.00     0.158 HD
ENDBRANCH  14  15
TORSDOF 1
ENDMDL
MODEL 4
REMARK VINA RESULT: -5.110838513      1.777      2.653
REMARK  1 active torsions:
REMARK  status: ('A' for Active; 'I' for Inactive)
REMARK       I    between atoms: C1_4  and  N3_6 
REMARK    1  A    between atoms: C4_14  and  N6_15 
ROOT
HETATM    1  N1  UNL     1      40.649   1.441  42.172  1.00  0.00    -0.372 N 
ATOM      2  H11 UNL     1      40.163   0.560  42.006  1.00  0.00     0.158 HD
ATOM      3  H12 UNL     1      41.608   1.431  42.521  1.00  0.00     0.158 HD
HETATM    4  C1  UNL     1      40.037   2.538  41.937  1.00  0.00     0.209 C 
HETATM    5  N2  UNL     1      40.709   3.758  42.168  1.00  0.00    -0.062 NA
HETATM    6  N3  UNL     1      38.708   2.552  41.453  1.00  0.00    -0.205 N 
HETATM    7  N4  UNL     1      37.714   2.776  42.313  1.00  0.00    -0.285 N 
ATOM      8  H4  UNL     1      37.933   2.931  43.296  1.00  0.00     0.188 HD
HETATM    9  C2  UNL     1      36.445   2.802  41.919  1.00  0.00     0.201 A 
HETATM   10  N5  UNL     1      36.105   2.602  40.634  1.00  0.00    -0.315 N 
ATOM     11  H5  UNL     1      35.131   2.621  40.334  1.00  0.00     0.170 HD
HETATM   12  C3  UNL     1      37.102   2.375  39.762  1.00  0.00     0.292 A 
HETATM   13  O1  UNL     1      36.873   2.176  38.521  1.00  0.00    -0.264 OA
HETATM   14  C4  UNL     1      38.413   2.346  40.150  1.00  0.00     0.192 A 
ENDROOT
BRANCH  14  15
HETATM   15  N6  UNL     1      39.400   2.132  39.344  1.00  0.00    -0.379 N 
ATOM     16  H62 UNL     1      40.195   2.761  39.236  1.00  0.00     0.158 HD
ATOM     17  H61 UNL     1      39.372   1.279  38.785  1.00  0.00     0.158 HD
ENDBRANCH  14  15
TORSDOF 1
ENDMDL
MODEL 5
REMARK VINA RESULT: -5.035981490      2.120      3.880
REMARK  1 active torsions:
REMARK  status: ('A' for Active; 'I' for Inactive)
REMARK       I    between atoms: C1_4  and  N3_6 
REMARK    1  A    between atoms: C4_14  and  N6_15 
ROOT
HETATM    1  N1  UNL     1      35.851   3.855  43.404  1.00  0.00    -0.372 N 
ATOM      2  H11 UNL     1      35.965   4.588  42.704  1.00  0.00     0.158 HD
ATOM      3  H12 UNL     1      35.091   3.919  44.083  1.00  0.00     0.158 HD
HETATM    4  C1  UNL     1      36.668   2.873  43.410  1.00  0.00     0.209 C 
HETATM    5  N2  UNL     1      36.510   1.859  44.379  1.00  0.00    -0.062 NA
HETATM    6  N3  UNL     1      37.721   2.784  42.469  1.00  0.00    -0.205 N 
HETATM    7  N4  UNL     1      38.948   3.145  42.844  1.00  0.00    -0.285 N 
ATOM      8  H4  UNL     1      39.100   3.476  43.796  1.00  0.00     0.188 HD
HETATM    9  C2  UNL     1      39.978   3.083  42.006  1.00  0.00     0.201 A 
HETATM   10  N5  UNL     1      39.829   2.655  40.741  1.00  0.00    -0.315 N 
ATOM     11  H5  UNL     1      40.620   2.610  40.099  1.00  0.00     0.170 HD
HETATM   12  C3  UNL     1      38.594   2.291  40.356  1.00  0.00     0.292 A 
HETATM   13  O1  UNL     1      38.358   1.870  39.173  1.00  0.00    -0.264 OA
HETATM   14  C4  UNL     1      37.524   2.346  41.206  1.00  0.00     0.192 A 
ENDROOT
BRANCH  14  15
HETATM   15  N6  UNL     1      36.322   2.006  40.876  1.00  0.00    -0.379 N 
ATOM     16  H62 UNL     1      35.702   1.454  41.470  1.00  0.00     0.158 HD
ATOM     17  H61 UNL     1      35.982   2.310  39.963  1.00  0.00     0.158 HD
ENDBRANCH  14  15
TORSDOF 1
ENDMDL
