MODEL 1
REMARK VINA RESULT: -6.231040766      0.000      0.000
REMARK  18 active torsions:
REMARK  status: ('A' for Active; 'I' for Inactive)
REMARK    1  A    between atoms: N1_1  and  C1_5 
REMARK    2  A    between atoms: C1_5  and  C2_6 
REMARK    3  A    between atoms: C2_6  and  C3_7 
REMARK    4  A    between atoms: C3_7  and  N2_8 
REMARK    5  A    between atoms: N2_8  and  C4_10 
REMARK    6  A    between atoms: C4_10  and  N3_12 
REMARK    7  A    between atoms: N3_12  and  C5_14 
REMARK    8  A    between atoms: C5_14  and  C6_15 
REMARK    9  A    between atoms: C6_15  and  C7_16 
REMARK   10  A    between atoms: C7_16  and  N4_17 
REMARK   11  A    between atoms: N4_17  and  C8_19 
REMARK   12  A    between atoms: C8_19  and  C9_20 
REMARK   13  A    between atoms: C9_20  and  C10_21 
REMARK   14  A    between atoms: C10_21  and  C11_22 
REMARK   15  A    between atoms: C11_22  and  C12_23 
REMARK   16  A    between atoms: C12_23  and  C13_24 
REMARK   17  A    between atoms: C13_24  and  N5_25 
REMARK   18  A    between atoms: N5_25  and  C14_27 
ROOT
HETATM    1  N4  UNL     1      -3.568  55.479  38.392  1.00  0.00    -0.402 N 
ATOM      2  H4  UNL     1      -3.214  56.290  38.899  1.00  0.00     0.158 HD
ENDROOT
BRANCH   1   3
HETATM    3  C7  UNL     1      -4.854  55.483  37.817  1.00  0.00     0.120 C 
BRANCH   3   4
HETATM    4  C6  UNL     1      -5.923  56.167  38.681  1.00  0.00     0.039 C 
BRANCH   4   5
HETATM    5  C5  UNL     1      -5.351  56.881  39.851  1.00  0.00     0.123 C 
BRANCH   5   6
HETATM    6  N3  UNL     1      -5.017  58.246  39.631  1.00  0.00    -0.367 N 
ATOM      7  H3  UNL     1      -4.260  58.666  40.170  1.00  0.00     0.161 HD
BRANCH   6   8
HETATM    8  C4  UNL     1      -5.709  59.036  38.682  1.00  0.00     0.167 C 
HETATM    9  S1  UNL     1      -4.972  59.380  37.261  1.00  0.00    -0.041 SA
BRANCH   8  10
HETATM   10  N2  UNL     1      -7.008  59.550  38.889  1.00  0.00    -0.367 N 
ATOM     11  H2  UNL     1      -7.761  59.281  38.257  1.00  0.00     0.161 HD
BRANCH  10  12
HETATM   12  C3  UNL     1      -7.290  60.467  40.006  1.00  0.00     0.123 C 
BRANCH  12  13
HETATM   13  C2  UNL     1      -6.528  61.729  39.742  1.00  0.00     0.047 C 
BRANCH  13  14
HETATM   14  C1  UNL     1      -6.888  62.891  40.603  1.00  0.00     0.231 C 
BRANCH  14  15
HETATM   15  N1  UNL     1      -5.767  63.396  41.366  1.00  0.00    -0.079 N 
ATOM     16  H13 UNL     1      -5.297  62.642  41.866  1.00  0.00     0.274 HD
ATOM     17  H12 UNL     1      -5.007  63.685  40.750  1.00  0.00     0.274 HD
ATOM     18  H11 UNL     1      -6.027  64.151  42.002  1.00  0.00     0.274 HD
ENDBRANCH  14  15
ENDBRANCH  13  14
ENDBRANCH  12  13
ENDBRANCH  10  12
ENDBRANCH   8  10
ENDBRANCH   6   8
ENDBRANCH   5   6
ENDBRANCH   4   5
ENDBRANCH   3   4
ENDBRANCH   1   3
BRANCH   1  19
HETATM   19  C8  UNL     1      -2.800  54.335  38.246  1.00  0.00     0.055 C 
BRANCH  19  20
HETATM   20  C9  UNL     1      -1.699  54.208  37.255  1.00  0.00     0.044 C 
BRANCH  20  21
HETATM   21  C10 UNL     1      -1.885  53.307  36.118  1.00  0.00     0.005 C 
BRANCH  21  22
HETATM   22  C11 UNL     1      -1.988  53.881  34.764  1.00  0.00     0.002 C 
BRANCH  22  23
HETATM   23  C12 UNL     1      -2.113  55.319  34.503  1.00  0.00     0.020 C 
BRANCH  23  24
HETATM   24  C13 UNL     1      -2.299  55.836  33.147  1.00  0.00     0.121 C 
BRANCH  24  25
HETATM   25  N5  UNL     1      -2.826  54.961  32.155  1.00  0.00    -0.376 N 
ATOM     26  H5  UNL     1      -3.560  54.320  32.454  1.00  0.00     0.161 HD
BRANCH  25  27
HETATM   27  C14 UNL     1      -2.434  54.889  30.790  1.00  0.00     0.114 A 
HETATM   28  C15 UNL     1      -2.395  55.806  29.838  1.00  0.00     0.034 A 
HETATM   29  C16 UNL     1      -2.611  57.135  29.446  1.00  0.00     0.017 A 
HETATM   30  C20 UNL     1      -1.924  54.902  28.920  1.00  0.00     0.047 A 
HETATM   31  C17 UNL     1      -2.347  57.508  28.157  1.00  0.00     0.001 A 
HETATM   32  C18 UNL     1      -1.867  56.569  27.240  1.00  0.00     0.002 A 
HETATM   33  C19 UNL     1      -1.653  55.272  27.606  1.00  0.00     0.030 A 
HETATM   34  N6  UNL     1      -1.955  53.996  29.836  1.00  0.00    -0.341 N 
ATOM     35  H6  UNL     1      -1.719  53.004  29.854  1.00  0.00     0.167 HD
ENDBRANCH  25  27
ENDBRANCH  24  25
ENDBRANCH  23  24
ENDBRANCH  22  23
ENDBRANCH  21  22
ENDBRANCH  20  21
ENDBRANCH  19  20
ENDBRANCH   1  19
TORSDOF 18
ENDMDL
MODEL 2
REMARK VINA RESULT: -6.145133619      5.552      8.035
REMARK  18 active torsions:
REMARK  status: ('A' for Active; 'I' for Inactive)
REMARK    1  A    between atoms: N1_1  and  C1_5 
REMARK    2  A    between atoms: C1_5  and  C2_6 
REMARK    3  A    between atoms: C2_6  and  C3_7 
REMARK    4  A    between atoms: C3_7  and  N2_8 
REMARK    5  A    between atoms: N2_8  and  C4_10 
REMARK    6  A    between atoms: C4_10  and  N3_12 
REMARK    7  A    between atoms: N3_12  and  C5_14 
REMARK    8  A    between atoms: C5_14  and  C6_15 
REMARK    9  A    between atoms: C6_15  and  C7_16 
REMARK   10  A    between atoms: C7_16  and  N4_17 
REMARK   11  A    between atoms: N4_17  and  C8_19 
REMARK   12  A    between atoms: C8_19  and  C9_20 
REMARK   13  A    between atoms: C9_20  and  C10_21 
REMARK   14  A    between atoms: C10_21  and  C11_22 
REMARK   15  A    between atoms: C11_22  and  C12_23 
REMARK   16  A    between atoms: C12_23  and  C13_24 
REMARK   17  A    between atoms: C13_24  and  N5_25 
REMARK   18  A    between atoms: N5_25  and  C14_27 
ROOT
HETATM    1  N4  UNL     1      -9.689  56.661  31.485  1.00  0.00    -0.402 N 
ATOM      2  H4  UNL     1      -9.823  56.149  30.612  1.00  0.00     0.158 HD
ENDROOT
BRANCH   1   3
HETATM    3  C7  UNL     1     -10.788  57.041  32.281  1.00  0.00     0.120 C 
BRANCH   3   4
HETATM    4  C6  UNL     1     -11.759  55.896  32.595  1.00  0.00     0.039 C 
BRANCH   4   5
HETATM    5  C5  UNL     1     -11.399  55.153  33.830  1.00  0.00     0.123 C 
BRANCH   5   6
HETATM    6  N3  UNL     1     -12.474  54.899  34.726  1.00  0.00    -0.367 N 
ATOM      7  H3  UNL     1     -13.431  55.064  34.413  1.00  0.00     0.161 HD
BRANCH   6   8
HETATM    8  C4  UNL     1     -12.251  54.423  36.040  1.00  0.00     0.167 C 
HETATM    9  S1  UNL     1     -10.851  53.637  36.362  1.00  0.00    -0.041 SA
BRANCH   8  10
HETATM   10  N2  UNL     1     -13.171  54.588  37.099  1.00  0.00    -0.367 N 
ATOM     11  H2  UNL     1     -13.541  55.516  37.302  1.00  0.00     0.161 HD
BRANCH  10  12
HETATM   12  C3  UNL     1     -13.603  53.440  37.913  1.00  0.00     0.123 C 
BRANCH  12  13
HETATM   13  C2  UNL     1     -13.596  53.887  39.342  1.00  0.00     0.047 C 
BRANCH  13  14
HETATM   14  C1  UNL     1     -12.418  54.701  39.756  1.00  0.00     0.231 C 
BRANCH  14  15
HETATM   15  N1  UNL     1     -12.788  55.985  40.314  1.00  0.00    -0.079 N 
ATOM     16  H13 UNL     1     -13.558  56.401  39.791  1.00  0.00     0.274 HD
ATOM     17  H12 UNL     1     -13.243  55.871  41.219  1.00  0.00     0.274 HD
ATOM     18  H11 UNL     1     -12.000  56.631  40.380  1.00  0.00     0.274 HD
ENDBRANCH  14  15
ENDBRANCH  13  14
ENDBRANCH  12  13
ENDBRANCH  10  12
ENDBRANCH   8  10
ENDBRANCH   6   8
ENDBRANCH   5   6
ENDBRANCH   4   5
ENDBRANCH   3   4
ENDBRANCH   1   3
BRANCH   1  19
HETATM   19  C8  UNL     1      -8.423  57.004  31.926  1.00  0.00     0.055 C 
BRANCH  19  20
HETATM   20  C9  UNL     1      -7.188  56.286  31.515  1.00  0.00     0.044 C 
BRANCH  20  21
HETATM   21  C10 UNL     1      -6.026  56.330  32.402  1.00  0.00     0.005 C 
BRANCH  21  22
HETATM   22  C11 UNL     1      -4.795  56.992  31.932  1.00  0.00     0.002 C 
BRANCH  22  23
HETATM   23  C12 UNL     1      -3.729  56.291  31.208  1.00  0.00     0.020 C 
BRANCH  23  24
HETATM   24  C13 UNL     1      -2.541  55.788  31.900  1.00  0.00     0.121 C 
BRANCH  24  25
HETATM   25  N5  UNL     1      -2.718  54.850  32.955  1.00  0.00    -0.376 N 
ATOM     26  H5  UNL     1      -3.212  53.988  32.724  1.00  0.00     0.161 HD
BRANCH  25  27
HETATM   27  C14 UNL     1      -2.276  54.989  34.300  1.00  0.00     0.114 A 
HETATM   28  C15 UNL     1      -1.970  54.092  35.221  1.00  0.00     0.034 A 
HETATM   29  C16 UNL     1      -1.847  52.743  35.584  1.00  0.00     0.017 A 
HETATM   30  C20 UNL     1      -1.672  55.066  36.139  1.00  0.00     0.047 A 
HETATM   31  C17 UNL     1      -1.430  52.421  36.847  1.00  0.00     0.001 A 
HETATM   32  C18 UNL     1      -1.131  53.432  37.764  1.00  0.00     0.002 A 
HETATM   33  C19 UNL     1      -1.247  54.748  37.427  1.00  0.00     0.030 A 
HETATM   34  N6  UNL     1      -1.966  55.954  35.254  1.00  0.00    -0.341 N 
ATOM     35  H6  UNL     1      -1.970  56.975  35.253  1.00  0.00     0.167 HD
ENDBRANCH  25  27
ENDBRANCH  24  25
ENDBRANCH  23  24
ENDBRANCH  22  23
ENDBRANCH  21  22
ENDBRANCH  20  21
ENDBRANCH  19  20
ENDBRANCH   1  19
TORSDOF 18
ENDMDL
MODEL 3
REMARK VINA RESULT: -6.143304894      4.006      6.295
REMARK  18 active torsions:
REMARK  status: ('A' for Active; 'I' for Inactive)
REMARK    1  A    between atoms: N1_1  and  C1_5 
REMARK    2  A    between atoms: C1_5  and  C2_6 
REMARK    3  A    between atoms: C2_6  and  C3_7 
REMARK    4  A    between atoms: C3_7  and  N2_8 
REMARK    5  A    between atoms: N2_8  and  C4_10 
REMARK    6  A    between atoms: C4_10  and  N3_12 
REMARK    7  A    between atoms: N3_12  and  C5_14 
REMARK    8  A    between atoms: C5_14  and  C6_15 
REMARK    9  A    between atoms: C6_15  and  C7_16 
REMARK   10  A    between atoms: C7_16  and  N4_17 
REMARK   11  A    between atoms: N4_17  and  C8_19 
REMARK   12  A    between atoms: C8_19  and  C9_20 
REMARK   13  A    between atoms: C9_20  and  C10_21 
REMARK   14  A    between atoms: C10_21  and  C11_22 
REMARK   15  A    between atoms: C11_22  and  C12_23 
REMARK   16  A    between atoms: C12_23  and  C13_24 
REMARK   17  A    between atoms: C13_24  and  N5_25 
REMARK   18  A    between atoms: N5_25  and  C14_27 
ROOT
HETATM    1  N4  UNL     1      -5.019  57.960  39.318  1.00  0.00    -0.402 N 
ATOM      2  H4  UNL     1      -4.163  58.104  39.856  1.00  0.00     0.158 HD
ENDROOT
BRANCH   1   3
HETATM    3  C7  UNL     1      -5.885  59.032  39.026  1.00  0.00     0.120 C 
BRANCH   3   4
HETATM    4  C6  UNL     1      -5.424  59.907  37.853  1.00  0.00     0.039 C 
BRANCH   4   5
HETATM    5  C5  UNL     1      -6.229  61.147  37.704  1.00  0.00     0.123 C 
BRANCH   5   6
HETATM    6  N3  UNL     1      -6.830  61.335  36.428  1.00  0.00    -0.367 N 
ATOM      7  H3  UNL     1      -7.631  60.760  36.167  1.00  0.00     0.161 HD
BRANCH   6   8
HETATM    8  C4  UNL     1      -6.344  62.299  35.512  1.00  0.00     0.167 C 
HETATM    9  S1  UNL     1      -5.155  61.866  34.475  1.00  0.00    -0.041 SA
BRANCH   8  10
HETATM   10  N2  UNL     1      -6.831  63.623  35.440  1.00  0.00    -0.367 N 
ATOM     11  H2  UNL     1      -6.836  64.203  36.279  1.00  0.00     0.161 HD
BRANCH  10  12
HETATM   12  C3  UNL     1      -7.330  64.178  34.171  1.00  0.00     0.123 C 
BRANCH  12  13
HETATM   13  C2  UNL     1      -8.632  63.498  33.875  1.00  0.00     0.047 C 
BRANCH  13  14
HETATM   14  C1  UNL     1      -8.919  63.255  32.433  1.00  0.00     0.231 C 
BRANCH  14  15
HETATM   15  N1  UNL     1      -9.985  62.299  32.223  1.00  0.00    -0.079 N 
ATOM     16  H13 UNL     1     -10.896  62.727  32.389  1.00  0.00     0.274 HD
ATOM     17  H12 UNL     1     -10.084  62.076  31.234  1.00  0.00     0.274 HD
ATOM     18  H11 UNL     1      -9.874  61.451  32.780  1.00  0.00     0.274 HD
ENDBRANCH  14  15
ENDBRANCH  13  14
ENDBRANCH  12  13
ENDBRANCH  10  12
ENDBRANCH   8  10
ENDBRANCH   6   8
ENDBRANCH   5   6
ENDBRANCH   4   5
ENDBRANCH   3   4
ENDBRANCH   1   3
BRANCH   1  19
HETATM   19  C8  UNL     1      -5.367  56.703  38.852  1.00  0.00     0.055 C 
BRANCH  19  20
HETATM   20  C9  UNL     1      -4.520  55.496  39.036  1.00  0.00     0.044 C 
BRANCH  20  21
HETATM   21  C10 UNL     1      -4.933  54.249  38.394  1.00  0.00     0.005 C 
BRANCH  21  22
HETATM   22  C11 UNL     1      -4.740  52.978  39.116  1.00  0.00     0.002 C 
BRANCH  22  23
HETATM   23  C12 UNL     1      -3.679  52.018  38.792  1.00  0.00     0.020 C 
BRANCH  23  24
HETATM   24  C13 UNL     1      -2.368  52.083  39.440  1.00  0.00     0.121 C 
BRANCH  24  25
HETATM   25  N5  UNL     1      -1.275  52.621  38.705  1.00  0.00    -0.376 N 
ATOM     26  H5  UNL     1      -0.398  52.102  38.742  1.00  0.00     0.161 HD
BRANCH  25  27
HETATM   27  C14 UNL     1      -1.280  53.809  37.922  1.00  0.00     0.114 A 
HETATM   28  C15 UNL     1      -1.624  54.031  36.665  1.00  0.00     0.034 A 
HETATM   29  C16 UNL     1      -2.102  53.526  35.447  1.00  0.00     0.017 A 
HETATM   30  C20 UNL     1      -1.325  55.365  36.769  1.00  0.00     0.047 A 
HETATM   31  C17 UNL     1      -2.262  54.371  34.384  1.00  0.00     0.001 A 
HETATM   32  C18 UNL     1      -1.950  55.727  34.515  1.00  0.00     0.002 A 
HETATM   33  C19 UNL     1      -1.484  56.234  35.693  1.00  0.00     0.030 A 
HETATM   34  N6  UNL     1      -0.985  55.167  37.995  1.00  0.00    -0.341 N 
ATOM     35  H6  UNL     1      -0.634  55.774  38.737  1.00  0.00     0.167 HD
ENDBRANCH  25  27
ENDBRANCH  24  25
ENDBRANCH  23  24
ENDBRANCH  22  23
ENDBRANCH  21  22
ENDBRANCH  20  21
ENDBRANCH  19  20
ENDBRANCH   1  19
TORSDOF 18
ENDMDL
MODEL 4
REMARK VINA RESULT: -6.132392893      3.884      5.486
REMARK  18 active torsions:
REMARK  status: ('A' for Active; 'I' for Inactive)
REMARK    1  A    between atoms: N1_1  and  C1_5 
REMARK    2  A    between atoms: C1_5  and  C2_6 
REMARK    3  A    between atoms: C2_6  and  C3_7 
REMARK    4  A    between atoms: C3_7  and  N2_8 
REMARK    5  A    between atoms: N2_8  and  C4_10 
REMARK    6  A    between atoms: C4_10  and  N3_12 
REMARK    7  A    between atoms: N3_12  and  C5_14 
REMARK    8  A    between atoms: C5_14  and  C6_15 
REMARK    9  A    between atoms: C6_15  and  C7_16 
REMARK   10  A    between atoms: C7_16  and  N4_17 
REMARK   11  A    between atoms: N4_17  and  C8_19 
REMARK   12  A    between atoms: C8_19  and  C9_20 
REMARK   13  A    between atoms: C9_20  and  C10_21 
REMARK   14  A    between atoms: C10_21  and  C11_22 
REMARK   15  A    between atoms: C11_22  and  C12_23 
REMARK   16  A    between atoms: C12_23  and  C13_24 
REMARK   17  A    between atoms: C13_24  and  N5_25 
REMARK   18  A    between atoms: N5_25  and  C14_27 
ROOT
HETATM    1  N4  UNL     1      -4.989  56.098  39.622  1.00  0.00    -0.402 N 
ATOM      2  H4  UNL     1      -4.578  56.318  40.530  1.00  0.00     0.158 HD
ENDROOT
BRANCH   1   3
HETATM    3  C7  UNL     1      -6.249  56.606  39.249  1.00  0.00     0.120 C 
BRANCH   3   4
HETATM    4  C6  UNL     1      -6.220  58.067  38.781  1.00  0.00     0.039 C 
BRANCH   4   5
HETATM    5  C5  UNL     1      -5.348  58.927  39.622  1.00  0.00     0.123 C 
BRANCH   5   6
HETATM    6  N3  UNL     1      -5.141  60.248  39.135  1.00  0.00    -0.367 N 
ATOM      7  H3  UNL     1      -4.190  60.566  38.948  1.00  0.00     0.161 HD
BRANCH   6   8
HETATM    8  C4  UNL     1      -6.222  61.133  38.904  1.00  0.00     0.167 C 
HETATM    9  S1  UNL     1      -7.024  61.745  40.193  1.00  0.00    -0.041 SA
BRANCH   8  10
HETATM   10  N2  UNL     1      -6.652  61.523  37.616  1.00  0.00    -0.367 N 
ATOM     11  H2  UNL     1      -7.476  62.115  37.520  1.00  0.00     0.161 HD
BRANCH  10  12
HETATM   12  C3  UNL     1      -5.927  61.085  36.412  1.00  0.00     0.123 C 
BRANCH  12  13
HETATM   13  C2  UNL     1      -6.540  61.800  35.246  1.00  0.00     0.047 C 
BRANCH  13  14
HETATM   14  C1  UNL     1      -6.004  63.163  34.973  1.00  0.00     0.231 C 
BRANCH  14  15
HETATM   15  N1  UNL     1      -6.990  64.205  35.166  1.00  0.00    -0.079 N 
ATOM     16  H13 UNL     1      -7.694  63.920  35.846  1.00  0.00     0.274 HD
ATOM     17  H12 UNL     1      -6.589  64.998  35.666  1.00  0.00     0.274 HD
ATOM     18  H11 UNL     1      -7.426  64.507  34.294  1.00  0.00     0.274 HD
ENDBRANCH  14  15
ENDBRANCH  13  14
ENDBRANCH  12  13
ENDBRANCH  10  12
ENDBRANCH   8  10
ENDBRANCH   6   8
ENDBRANCH   5   6
ENDBRANCH   4   5
ENDBRANCH   3   4
ENDBRANCH   1   3
BRANCH   1  19
HETATM   19  C8  UNL     1      -4.326  55.287  38.715  1.00  0.00     0.055 C 
BRANCH  19  20
HETATM   20  C9  UNL     1      -4.987  54.192  37.959  1.00  0.00     0.044 C 
BRANCH  20  21
HETATM   21  C10 UNL     1      -4.569  52.814  38.216  1.00  0.00     0.005 C 
BRANCH  21  22
HETATM   22  C11 UNL     1      -4.222  52.421  39.594  1.00  0.00     0.002 C 
BRANCH  22  23
HETATM   23  C12 UNL     1      -2.882  51.976  39.993  1.00  0.00     0.020 C 
BRANCH  23  24
HETATM   24  C13 UNL     1      -1.819  51.776  39.007  1.00  0.00     0.121 C 
BRANCH  24  25
HETATM   25  N5  UNL     1      -0.883  52.827  38.797  1.00  0.00    -0.376 N 
ATOM     26  H5  UNL     1      -0.013  52.777  39.326  1.00  0.00     0.161 HD
BRANCH  25  27
HETATM   27  C14 UNL     1      -1.036  53.940  37.925  1.00  0.00     0.114 A 
HETATM   28  C15 UNL     1      -1.471  54.027  36.680  1.00  0.00     0.034 A 
HETATM   29  C16 UNL     1      -1.975  53.385  35.540  1.00  0.00     0.017 A 
HETATM   30  C20 UNL     1      -1.282  55.386  36.659  1.00  0.00     0.047 A 
HETATM   31  C17 UNL     1      -2.270  54.122  34.426  1.00  0.00     0.001 A 
HETATM   32  C18 UNL     1      -2.068  55.505  34.429  1.00  0.00     0.002 A 
HETATM   33  C19 UNL     1      -1.579  56.145  35.530  1.00  0.00     0.030 A 
HETATM   34  N6  UNL     1      -0.855  55.319  37.872  1.00  0.00    -0.341 N 
ATOM     35  H6  UNL     1      -0.514  56.013  38.539  1.00  0.00     0.167 HD
ENDBRANCH  25  27
ENDBRANCH  24  25
ENDBRANCH  23  24
ENDBRANCH  22  23
ENDBRANCH  21  22
ENDBRANCH  20  21
ENDBRANCH  19  20
ENDBRANCH   1  19
TORSDOF 18
ENDMDL
MODEL 5
REMARK VINA RESULT: -6.118414854      3.367      5.793
REMARK  18 active torsions:
REMARK  status: ('A' for Active; 'I' for Inactive)
REMARK    1  A    between atoms: N1_1  and  C1_5 
REMARK    2  A    between atoms: C1_5  and  C2_6 
REMARK    3  A    between atoms: C2_6  and  C3_7 
REMARK    4  A    between atoms: C3_7  and  N2_8 
REMARK    5  A    between atoms: N2_8  and  C4_10 
REMARK    6  A    between atoms: C4_10  and  N3_12 
REMARK    7  A    between atoms: N3_12  and  C5_14 
REMARK    8  A    between atoms: C5_14  and  C6_15 
REMARK    9  A    between atoms: C6_15  and  C7_16 
REMARK   10  A    between atoms: C7_16  and  N4_17 
REMARK   11  A    between atoms: N4_17  and  C8_19 
REMARK   12  A    between atoms: C8_19  and  C9_20 
REMARK   13  A    between atoms: C9_20  and  C10_21 
REMARK   14  A    between atoms: C10_21  and  C11_22 
REMARK   15  A    between atoms: C11_22  and  C12_23 
REMARK   16  A    between atoms: C12_23  and  C13_24 
REMARK   17  A    between atoms: C13_24  and  N5_25 
REMARK   18  A    between atoms: N5_25  and  C14_27 
ROOT
HETATM    1  N4  UNL     1      -4.956  58.236  39.710  1.00  0.00    -0.402 N 
ATOM      2  H4  UNL     1      -4.275  58.618  40.367  1.00  0.00     0.158 HD
ENDROOT
BRANCH   1   3
HETATM    3  C7  UNL     1      -5.383  58.977  38.590  1.00  0.00     0.120 C 
BRANCH   3   4
HETATM    4  C6  UNL     1      -5.822  60.410  38.920  1.00  0.00     0.039 C 
BRANCH   4   5
HETATM    5  C5  UNL     1      -6.297  61.159  37.728  1.00  0.00     0.123 C 
BRANCH   5   6
HETATM    6  N3  UNL     1      -5.902  60.620  36.471  1.00  0.00    -0.367 N 
ATOM      7  H3  UNL     1      -5.213  59.869  36.447  1.00  0.00     0.161 HD
BRANCH   6   8
HETATM    8  C4  UNL     1      -6.442  61.101  35.254  1.00  0.00     0.167 C 
HETATM    9  S1  UNL     1      -5.919  60.442  33.849  1.00  0.00    -0.041 SA
BRANCH   8  10
HETATM   10  N2  UNL     1      -7.413  62.124  35.178  1.00  0.00    -0.367 N 
ATOM     11  H2  UNL     1      -7.241  63.015  35.644  1.00  0.00     0.161 HD
BRANCH  10  12
HETATM   12  C3  UNL     1      -8.669  61.922  34.438  1.00  0.00     0.123 C 
BRANCH  12  13
HETATM   13  C2  UNL     1      -8.924  63.174  33.655  1.00  0.00     0.047 C 
BRANCH  13  14
HETATM   14  C1  UNL     1      -9.244  62.978  32.213  1.00  0.00     0.231 C 
BRANCH  14  15
HETATM   15  N1  UNL     1      -9.956  61.745  31.956  1.00  0.00    -0.079 N 
ATOM     16  H13 UNL     1     -10.902  61.785  32.334  1.00  0.00     0.274 HD
ATOM     17  H12 UNL     1     -10.178  61.652  30.965  1.00  0.00     0.274 HD
ATOM     18  H11 UNL     1      -9.461  60.921  32.298  1.00  0.00     0.274 HD
ENDBRANCH  14  15
ENDBRANCH  13  14
ENDBRANCH  12  13
ENDBRANCH  10  12
ENDBRANCH   8  10
ENDBRANCH   6   8
ENDBRANCH   5   6
ENDBRANCH   4   5
ENDBRANCH   3   4
ENDBRANCH   1   3
BRANCH   1  19
HETATM   19  C8  UNL     1      -5.492  56.971  39.889  1.00  0.00     0.055 C 
BRANCH  19  20
HETATM   20  C9  UNL     1      -5.713  56.010  38.778  1.00  0.00     0.044 C 
BRANCH  20  21
HETATM   21  C10 UNL     1      -4.631  55.092  38.423  1.00  0.00     0.005 C 
BRANCH  21  22
HETATM   22  C11 UNL     1      -3.631  54.739  39.448  1.00  0.00     0.002 C 
BRANCH  22  23
HETATM   23  C12 UNL     1      -2.739  53.579  39.340  1.00  0.00     0.020 C 
BRANCH  23  24
HETATM   24  C13 UNL     1      -1.537  53.616  38.505  1.00  0.00     0.121 C 
BRANCH  24  25
HETATM   25  N5  UNL     1      -0.990  54.884  38.161  1.00  0.00    -0.376 N 
ATOM     26  H5  UNL     1      -0.388  55.326  38.855  1.00  0.00     0.161 HD
BRANCH  25  27
HETATM   27  C14 UNL     1      -1.197  55.599  36.949  1.00  0.00     0.114 A 
HETATM   28  C15 UNL     1      -1.654  55.214  35.769  1.00  0.00     0.034 A 
HETATM   29  C16 UNL     1      -2.150  54.186  34.955  1.00  0.00     0.017 A 
HETATM   30  C20 UNL     1      -1.515  56.476  35.251  1.00  0.00     0.047 A 
HETATM   31  C17 UNL     1      -2.489  54.459  33.658  1.00  0.00     0.001 A 
HETATM   32  C18 UNL     1      -2.338  55.753  33.152  1.00  0.00     0.002 A 
HETATM   33  C19 UNL     1      -1.856  56.764  33.932  1.00  0.00     0.030 A 
HETATM   34  N6  UNL     1      -1.067  56.869  36.393  1.00  0.00    -0.341 N 
ATOM     35  H6  UNL     1      -0.743  57.767  36.753  1.00  0.00     0.167 HD
ENDBRANCH  25  27
ENDBRANCH  24  25
ENDBRANCH  23  24
ENDBRANCH  22  23
ENDBRANCH  21  22
ENDBRANCH  20  21
ENDBRANCH  19  20
ENDBRANCH   1  19
TORSDOF 18
ENDMDL
