MODEL 1
REMARK VINA RESULT: -9.918603173      0.000      0.000
REMARK  6 active torsions:
REMARK  status: ('A' for Active; 'I' for Inactive)
REMARK    1  A    between atoms: O1_1  and  C1_3 
REMARK    2  A    between atoms: C9_13  and  O2_14 
REMARK    3  A    between atoms: O2_14  and  C10_15 
REMARK    4  A    between atoms: C10_15  and  C11_16 
REMARK    5  A    between atoms: C11_16  and  O3_17 
REMARK    6  A    between atoms: C11_16  and  C12_19 
ROOT
HETATM    1  C1  UNL     1      29.583  60.876  90.640  1.00  0.00     0.152 C 
HETATM    2  C2  UNL     1      29.224  59.610  89.905  1.00  0.00     0.043 C 
HETATM    3  C3  UNL     1      29.731  58.376  90.622  1.00  0.00     0.087 C 
HETATM    4  C4  UNL     1      29.062  58.420  92.003  1.00  0.00     0.268 C 
HETATM    5  F1  UNL     1      27.751  58.730  91.806  1.00  0.00    -0.201 F 
HETATM    6  F2  UNL     1      29.283  57.217  92.607  1.00  0.00    -0.201 F 
HETATM    7  C5  UNL     1      29.786  59.532  92.731  1.00  0.00     0.001 A 
HETATM    8  C6  UNL     1      29.986  60.623  92.038  1.00  0.00    -0.011 A 
HETATM    9  C7  UNL     1      30.696  61.719  92.736  1.00  0.00    -0.018 A 
HETATM   10  C8  UNL     1      30.957  62.918  92.109  1.00  0.00     0.052 A 
HETATM   11  C9  UNL     1      31.612  63.944  92.753  1.00  0.00     0.108 A 
HETATM   12  C17 UNL     1      32.028  63.795  94.055  1.00  0.00     0.150 A 
HETATM   13  F4  UNL     1      32.683  64.783  94.739  1.00  0.00    -0.203 F 
HETATM   14  C18 UNL     1      31.772  62.606  94.684  1.00  0.00     0.053 A 
HETATM   15  C19 UNL     1      31.109  61.560  94.038  1.00  0.00    -0.044 A 
HETATM   16  C20 UNL     1      30.898  60.332  94.813  1.00  0.00     0.044 A 
HETATM   17  C21 UNL     1      30.169  59.257  94.115  1.00  0.00     0.045 A 
ENDROOT
BRANCH  11  18
HETATM   18  O2  UNL     1      31.851  65.116  92.097  1.00  0.00    -0.345 OA
BRANCH  18  19
HETATM   19  C10 UNL     1      30.920  66.186  92.127  1.00  0.00     0.210 C 
BRANCH  19  20
HETATM   20  C11 UNL     1      31.547  67.367  92.848  1.00  0.00     0.171 C 
BRANCH  20  21
HETATM   21  O3  UNL     1      32.562  67.917  92.074  1.00  0.00    -0.391 OA
ATOM     22  H3  UNL     1      32.830  68.756  92.433  1.00  0.00     0.210 HD
ENDBRANCH  20  21
BRANCH  20  23
HETATM   23  C12 UNL     1      30.445  68.401  93.053  1.00  0.00     0.152 C 
HETATM   24  C13 UNL     1      29.455  68.201  91.897  1.00  0.00     0.037 C 
HETATM   25  C14 UNL     1      28.363  69.226  91.934  1.00  0.00     0.042 C 
HETATM   26  C15 UNL     1      27.988  69.462  93.381  1.00  0.00     0.194 C 
HETATM   27  F3  UNL     1      26.627  69.602  93.472  1.00  0.00    -0.247 F 
HETATM   28  C16 UNL     1      28.445  68.258  94.192  1.00  0.00     0.205 C 
HETATM   29  O4  UNL     1      29.831  68.235  94.268  1.00  0.00    -0.380 OA
ENDBRANCH  20  23
ENDBRANCH  19  20
ENDBRANCH  18  19
ENDBRANCH  11  18
BRANCH   1  30
HETATM   30  O1  UNL     1      28.476  61.719  90.556  1.00  0.00    -0.391 OA
ATOM     31  H1  UNL     1      27.980  61.601  91.358  1.00  0.00     0.210 HD
ENDBRANCH   1  30
TORSDOF 6
ENDMDL
MODEL 2
REMARK VINA RESULT: -9.841530979      1.482      1.853
REMARK  6 active torsions:
REMARK  status: ('A' for Active; 'I' for Inactive)
REMARK    1  A    between atoms: O1_1  and  C1_3 
REMARK    2  A    between atoms: C9_13  and  O2_14 
REMARK    3  A    between atoms: O2_14  and  C10_15 
REMARK    4  A    between atoms: C10_15  and  C11_16 
REMARK    5  A    between atoms: C11_16  and  O3_17 
REMARK    6  A    between atoms: C11_16  and  C12_19 
ROOT
HETATM    1  C1  UNL     1      29.515  61.294  90.536  1.00  0.00     0.152 C 
HETATM    2  C2  UNL     1      29.224  60.183  89.560  1.00  0.00     0.043 C 
HETATM    3  C3  UNL     1      29.705  58.841  90.071  1.00  0.00     0.087 C 
HETATM    4  C4  UNL     1      28.949  58.628  91.391  1.00  0.00     0.268 C 
HETATM    5  F1  UNL     1      27.648  58.963  91.169  1.00  0.00    -0.201 F 
HETATM    6  F2  UNL     1      29.151  57.336  91.778  1.00  0.00    -0.201 F 
HETATM    7  C5  UNL     1      29.607  59.592  92.355  1.00  0.00     0.001 A 
HETATM    8  C6  UNL     1      29.833  60.791  91.887  1.00  0.00    -0.011 A 
HETATM    9  C7  UNL     1      30.480  61.744  92.818  1.00  0.00    -0.018 A 
HETATM   10  C8  UNL     1      30.760  63.039  92.439  1.00  0.00     0.052 A 
HETATM   11  C9  UNL     1      31.357  63.932  93.300  1.00  0.00     0.108 A 
HETATM   12  C17 UNL     1      31.692  63.549  94.578  1.00  0.00     0.150 A 
HETATM   13  F4  UNL     1      32.287  64.398  95.472  1.00  0.00    -0.203 F 
HETATM   14  C18 UNL     1      31.417  62.264  94.961  1.00  0.00     0.053 A 
HETATM   15  C19 UNL     1      30.813  61.351  94.094  1.00  0.00    -0.044 A 
HETATM   16  C20 UNL     1      30.572  60.001  94.616  1.00  0.00     0.044 A 
HETATM   17  C21 UNL     1      29.907  59.069  93.687  1.00  0.00     0.045 A 
ENDROOT
BRANCH  11  18
HETATM   18  O2  UNL     1      31.618  65.206  92.887  1.00  0.00    -0.345 OA
BRANCH  18  19
HETATM   19  C10 UNL     1      32.869  65.825  93.135  1.00  0.00     0.210 C 
BRANCH  19  20
HETATM   20  C11 UNL     1      32.641  67.296  93.438  1.00  0.00     0.171 C 
BRANCH  20  21
HETATM   21  O3  UNL     1      33.852  67.980  93.434  1.00  0.00    -0.391 OA
ATOM     22  H3  UNL     1      34.071  68.263  94.315  1.00  0.00     0.210 HD
ENDBRANCH  20  21
BRANCH  20  23
HETATM   23  C12 UNL     1      31.744  67.845  92.334  1.00  0.00     0.152 C 
HETATM   24  C13 UNL     1      30.728  68.762  93.030  1.00  0.00     0.037 C 
HETATM   25  C14 UNL     1      29.723  69.298  92.055  1.00  0.00     0.042 C 
HETATM   26  C15 UNL     1      30.443  69.606  90.760  1.00  0.00     0.194 C 
HETATM   27  F3  UNL     1      29.944  70.773  90.240  1.00  0.00    -0.247 F 
HETATM   28  C16 UNL     1      31.925  69.764  91.067  1.00  0.00     0.205 C 
HETATM   29  O4  UNL     1      32.475  68.533  91.398  1.00  0.00    -0.380 OA
ENDBRANCH  20  23
ENDBRANCH  19  20
ENDBRANCH  18  19
ENDBRANCH  11  18
BRANCH   1  30
HETATM   30  O1  UNL     1      28.402  62.134  90.536  1.00  0.00    -0.391 OA
ATOM     31  H1  UNL     1      28.632  62.895  90.016  1.00  0.00     0.210 HD
ENDBRANCH   1  30
TORSDOF 6
ENDMDL
MODEL 3
REMARK VINA RESULT: -9.579016683      1.133      1.455
REMARK  6 active torsions:
REMARK  status: ('A' for Active; 'I' for Inactive)
REMARK    1  A    between atoms: O1_1  and  C1_3 
REMARK    2  A    between atoms: C9_13  and  O2_14 
REMARK    3  A    between atoms: O2_14  and  C10_15 
REMARK    4  A    between atoms: C10_15  and  C11_16 
REMARK    5  A    between atoms: C11_16  and  O3_17 
REMARK    6  A    between atoms: C11_16  and  C12_19 
ROOT
HETATM    1  C1  UNL     1      29.501  62.898  90.316  1.00  0.00     0.152 C 
HETATM    2  C2  UNL     1      29.072  62.137  89.087  1.00  0.00     0.043 C 
HETATM    3  C3  UNL     1      29.496  60.684  89.145  1.00  0.00     0.087 C 
HETATM    4  C4  UNL     1      28.817  60.126  90.404  1.00  0.00     0.268 C 
HETATM    5  F1  UNL     1      27.530  60.569  90.397  1.00  0.00    -0.201 F 
HETATM    6  F2  UNL     1      28.957  58.770  90.381  1.00  0.00    -0.201 F 
HETATM    7  C5  UNL     1      29.600  60.733  91.548  1.00  0.00     0.001 A 
HETATM    8  C6  UNL     1      29.874  62.006  91.432  1.00  0.00    -0.011 A 
HETATM    9  C7  UNL     1      30.644  62.612  92.542  1.00  0.00    -0.018 A 
HETATM   10  C8  UNL     1      30.984  63.948  92.533  1.00  0.00     0.052 A 
HETATM   11  C9  UNL     1      31.695  64.520  93.564  1.00  0.00     0.108 A 
HETATM   12  C17 UNL     1      32.087  63.763  94.643  1.00  0.00     0.150 A 
HETATM   13  F4  UNL     1      32.795  64.284  95.692  1.00  0.00    -0.203 F 
HETATM   14  C18 UNL     1      31.753  62.436  94.658  1.00  0.00     0.053 A 
HETATM   15  C19 UNL     1      31.033  61.847  93.616  1.00  0.00    -0.044 A 
HETATM   16  C20 UNL     1      30.739  60.415  93.742  1.00  0.00     0.044 A 
HETATM   17  C21 UNL     1      29.952  59.828  92.642  1.00  0.00     0.045 A 
ENDROOT
BRANCH  11  18
HETATM   18  O2  UNL     1      32.012  65.847  93.518  1.00  0.00    -0.345 OA
BRANCH  18  19
HETATM   19  C10 UNL     1      31.661  66.655  92.406  1.00  0.00     0.210 C 
BRANCH  19  20
HETATM   20  C11 UNL     1      31.968  68.106  92.735  1.00  0.00     0.171 C 
BRANCH  20  21
HETATM   21  O3  UNL     1      32.620  68.712  91.666  1.00  0.00    -0.391 OA
ATOM     22  H3  UNL     1      31.991  69.150  91.105  1.00  0.00     0.210 HD
ENDBRANCH  20  21
BRANCH  20  23
HETATM   23  C12 UNL     1      30.633  68.801  92.976  1.00  0.00     0.152 C 
HETATM   24  C13 UNL     1      29.686  68.293  91.881  1.00  0.00     0.037 C 
HETATM   25  C14 UNL     1      28.353  68.976  91.954  1.00  0.00     0.042 C 
HETATM   26  C15 UNL     1      27.995  69.151  93.414  1.00  0.00     0.194 C 
HETATM   27  F3  UNL     1      26.655  68.911  93.575  1.00  0.00    -0.247 F 
HETATM   28  C16 UNL     1      28.806  68.150  94.225  1.00  0.00     0.205 C 
HETATM   29  O4  UNL     1      30.146  68.516  94.227  1.00  0.00    -0.380 OA
ENDBRANCH  20  23
ENDBRANCH  19  20
ENDBRANCH  18  19
ENDBRANCH  11  18
BRANCH   1  30
HETATM   30  O1  UNL     1      28.449  63.749  90.652  1.00  0.00    -0.391 OA
ATOM     31  H1  UNL     1      28.179  63.517  91.532  1.00  0.00     0.210 HD
ENDBRANCH   1  30
TORSDOF 6
ENDMDL
MODEL 4
REMARK VINA RESULT: -9.208587838      2.261      3.302
REMARK  6 active torsions:
REMARK  status: ('A' for Active; 'I' for Inactive)
REMARK    1  A    between atoms: O1_1  and  C1_3 
REMARK    2  A    between atoms: C9_13  and  O2_14 
REMARK    3  A    between atoms: O2_14  and  C10_15 
REMARK    4  A    between atoms: C10_15  and  C11_16 
REMARK    5  A    between atoms: C11_16  and  O3_17 
REMARK    6  A    between atoms: C11_16  and  C12_19 
ROOT
HETATM    1  C1  UNL     1      29.233  61.600  89.699  1.00  0.00     0.152 C 
HETATM    2  C2  UNL     1      28.648  61.354  88.331  1.00  0.00     0.043 C 
HETATM    3  C3  UNL     1      28.221  59.913  88.149  1.00  0.00     0.087 C 
HETATM    4  C4  UNL     1      27.176  59.670  89.248  1.00  0.00     0.268 C 
HETATM    5  F1  UNL     1      26.338  60.744  89.250  1.00  0.00    -0.201 F 
HETATM    6  F2  UNL     1      26.575  58.474  88.988  1.00  0.00    -0.201 F 
HETATM    7  C5  UNL     1      27.987  59.605  90.524  1.00  0.00     0.001 A 
HETATM    8  C6  UNL     1      28.909  60.522  90.654  1.00  0.00    -0.011 A 
HETATM    9  C7  UNL     1      29.713  60.468  91.896  1.00  0.00    -0.018 A 
HETATM   10  C8  UNL     1      30.708  61.387  92.147  1.00  0.00     0.052 A 
HETATM   11  C9  UNL     1      31.457  61.347  93.302  1.00  0.00     0.108 A 
HETATM   12  C17 UNL     1      31.226  60.375  94.247  1.00  0.00     0.150 A 
HETATM   13  F4  UNL     1      31.943  60.290  95.410  1.00  0.00    -0.203 F 
HETATM   14  C18 UNL     1      30.240  59.458  94.004  1.00  0.00     0.053 A 
HETATM   15  C19 UNL     1      29.476  59.490  92.835  1.00  0.00    -0.044 A 
HETATM   16  C20 UNL     1      28.451  58.452  92.684  1.00  0.00     0.044 A 
HETATM   17  C21 UNL     1      27.642  58.531  91.454  1.00  0.00     0.045 A 
ENDROOT
BRANCH  11  18
HETATM   18  O2  UNL     1      32.433  62.276  93.513  1.00  0.00    -0.345 OA
BRANCH  18  19
HETATM   19  C10 UNL     1      32.474  63.489  92.780  1.00  0.00     0.210 C 
BRANCH  19  20
HETATM   20  C11 UNL     1      32.019  64.626  93.678  1.00  0.00     0.171 C 
BRANCH  20  21
HETATM   21  O3  UNL     1      32.925  64.809  94.717  1.00  0.00    -0.391 OA
ATOM     22  H3  UNL     1      32.912  65.714  95.007  1.00  0.00     0.210 HD
ENDBRANCH  20  21
BRANCH  20  23
HETATM   23  C12 UNL     1      31.970  65.884  92.817  1.00  0.00     0.152 C 
HETATM   24  C13 UNL     1      30.643  66.578  93.155  1.00  0.00     0.037 C 
HETATM   25  C14 UNL     1      30.432  67.791  92.300  1.00  0.00     0.042 C 
HETATM   26  C15 UNL     1      31.767  68.483  92.128  1.00  0.00     0.194 C 
HETATM   27  F3  UNL     1      31.577  69.839  92.190  1.00  0.00    -0.247 F 
HETATM   28  C16 UNL     1      32.684  68.033  93.257  1.00  0.00     0.205 C 
HETATM   29  O4  UNL     1      33.040  66.702  93.077  1.00  0.00    -0.380 OA
ENDBRANCH  20  23
ENDBRANCH  19  20
ENDBRANCH  18  19
ENDBRANCH  11  18
BRANCH   1  30
HETATM   30  O1  UNL     1      28.759  62.840  90.124  1.00  0.00    -0.391 OA
ATOM     31  H1  UNL     1      29.503  63.313  90.476  1.00  0.00     0.210 HD
ENDBRANCH   1  30
TORSDOF 6
ENDMDL
MODEL 5
REMARK VINA RESULT: -9.121119474      3.909      5.846
REMARK  6 active torsions:
REMARK  status: ('A' for Active; 'I' for Inactive)
REMARK    1  A    between atoms: O1_1  and  C1_3 
REMARK    2  A    between atoms: C9_13  and  O2_14 
REMARK    3  A    between atoms: O2_14  and  C10_15 
REMARK    4  A    between atoms: C10_15  and  C11_16 
REMARK    5  A    between atoms: C11_16  and  O3_17 
REMARK    6  A    between atoms: C11_16  and  C12_19 
ROOT
HETATM    1  C1  UNL     1      28.167  60.333  87.977  1.00  0.00     0.152 C 
HETATM    2  C2  UNL     1      27.612  60.261  86.578  1.00  0.00     0.043 C 
HETATM    3  C3  UNL     1      27.003  58.906  86.280  1.00  0.00     0.087 C 
HETATM    4  C4  UNL     1      25.890  58.736  87.324  1.00  0.00     0.268 C 
HETATM    5  F1  UNL     1      25.204  59.911  87.376  1.00  0.00    -0.201 F 
HETATM    6  F2  UNL     1      25.146  57.653  86.960  1.00  0.00    -0.201 F 
HETATM    7  C5  UNL     1      26.631  58.476  88.617  1.00  0.00     0.001 A 
HETATM    8  C6  UNL     1      27.662  59.248  88.843  1.00  0.00    -0.011 A 
HETATM    9  C7  UNL     1      28.399  59.002  90.102  1.00  0.00    -0.018 A 
HETATM   10  C8  UNL     1      29.497  59.758  90.450  1.00  0.00     0.052 A 
HETATM   11  C9  UNL     1      30.185  59.539  91.623  1.00  0.00     0.108 A 
HETATM   12  C17 UNL     1      29.788  58.546  92.488  1.00  0.00     0.150 A 
HETATM   13  F4  UNL     1      30.437  58.288  93.665  1.00  0.00    -0.203 F 
HETATM   14  C18 UNL     1      28.698  57.791  92.148  1.00  0.00     0.053 A 
HETATM   15  C19 UNL     1      27.995  58.005  90.960  1.00  0.00    -0.044 A 
HETATM   16  C20 UNL     1      26.847  57.129  90.703  1.00  0.00     0.044 A 
HETATM   17  C21 UNL     1      26.107  57.399  89.457  1.00  0.00     0.045 A 
ENDROOT
BRANCH  11  18
HETATM   18  O2  UNL     1      31.268  60.310  91.931  1.00  0.00    -0.345 OA
BRANCH  18  19
HETATM   19  C10 UNL     1      31.123  61.654  92.361  1.00  0.00     0.210 C 
BRANCH  19  20
HETATM   20  C11 UNL     1      32.229  61.977  93.352  1.00  0.00     0.171 C 
BRANCH  20  21
HETATM   21  O3  UNL     1      32.853  63.169  93.001  1.00  0.00    -0.391 OA
ATOM     22  H3  UNL     1      33.645  63.287  93.513  1.00  0.00     0.210 HD
ENDBRANCH  20  21
BRANCH  20  23
HETATM   23  C12 UNL     1      31.572  62.129  94.719  1.00  0.00     0.152 C 
HETATM   24  C13 UNL     1      30.360  63.047  94.508  1.00  0.00     0.037 C 
HETATM   25  C14 UNL     1      29.676  63.350  95.807  1.00  0.00     0.042 C 
HETATM   26  C15 UNL     1      29.691  62.094  96.650  1.00  0.00     0.194 C 
HETATM   27  F3  UNL     1      28.489  61.981  97.302  1.00  0.00    -0.247 F 
HETATM   28  C16 UNL     1      29.897  60.903  95.725  1.00  0.00     0.205 C 
HETATM   29  O4  UNL     1      31.192  60.911  95.223  1.00  0.00    -0.380 OA
ENDBRANCH  20  23
ENDBRANCH  19  20
ENDBRANCH  18  19
ENDBRANCH  11  18
BRANCH   1  30
HETATM   30  O1  UNL     1      27.846  61.595  88.475  1.00  0.00    -0.391 OA
ATOM     31  H1  UNL     1      27.635  62.139  87.726  1.00  0.00     0.210 HD
ENDBRANCH   1  30
TORSDOF 6
ENDMDL
