MODEL 1
REMARK VINA RESULT: -7.749414871      0.000      0.000
REMARK  3 active torsions:
REMARK  status: ('A' for Active; 'I' for Inactive)
REMARK    1  A    between atoms: S1_2  and  C2_3 
REMARK    2  A    between atoms: C16_26  and  C17_27 
REMARK    3  A    between atoms: C17_27  and  C18_28 
ROOT
HETATM    1  C2  UNL     1      29.895  67.368  93.229  1.00  0.00     0.146 A 
HETATM    2  N1  UNL     1      29.313  66.697  94.229  1.00  0.00    -0.303 N 
ATOM      3  H1  UNL     1      28.571  67.143  94.768  1.00  0.00     0.171 HD
HETATM    4  C3  UNL     1      29.698  65.416  94.542  1.00  0.00     0.256 A 
HETATM    5  O1  UNL     1      29.138  64.825  95.468  1.00  0.00    -0.268 OA
HETATM    6  C4  UNL     1      30.691  64.755  93.858  1.00  0.00     0.043 A 
HETATM    7  C5  UNL     1      31.242  65.526  92.829  1.00  0.00     0.023 A 
HETATM    8  N2  UNL     1      30.867  66.768  92.530  1.00  0.00    -0.340 N 
ATOM      9  H2  UNL     1      31.322  67.264  91.764  1.00  0.00     0.168 HD
HETATM   10  C6  UNL     1      32.268  64.871  91.973  1.00  0.00     0.059 C 
HETATM   11  C7  UNL     1      31.577  63.551  91.608  1.00  0.00     0.017 C 
HETATM   12  C8  UNL     1      31.520  62.673  92.865  1.00  0.00    -0.021 C 
HETATM   13  C9  UNL     1      32.892  62.049  92.858  1.00  0.00     0.017 C 
HETATM   14  C10 UNL     1      31.196  63.467  94.118  1.00  0.00     0.108 C 
HETATM   15  C11 UNL     1      30.586  62.458  94.952  1.00  0.00     0.256 C 
HETATM   16  F1  UNL     1      30.257  62.621  96.239  1.00  0.00    -0.205 F 
HETATM   17  F2  UNL     1      31.570  61.435  95.132  1.00  0.00    -0.205 F 
HETATM   18  C12 UNL     1      29.605  61.741  94.062  1.00  0.00     0.074 C 
HETATM   19  C13 UNL     1      29.361  60.336  94.556  1.00  0.00     0.090 C 
HETATM   20  C14 UNL     1      30.158  59.390  93.728  1.00  0.00     0.245 C 
HETATM   21  F3  UNL     1      29.338  58.414  93.158  1.00  0.00    -0.206 F 
HETATM   22  F4  UNL     1      31.035  58.622  94.518  1.00  0.00    -0.206 F 
HETATM   23  C15 UNL     1      30.892  60.222  92.721  1.00  0.00     0.090 C 
HETATM   24  C16 UNL     1      30.411  61.624  92.761  1.00  0.00    -0.008 C 
ENDROOT
BRANCH  24  25
HETATM   25  C17 UNL     1      29.494  61.987  91.633  1.00  0.00     0.124 C 
BRANCH  25  26
HETATM   26  C18 UNL     1      28.957  60.858  90.852  1.00  0.00     0.173 C 
HETATM   27  O2  UNL     1      29.517  60.386  89.831  1.00  0.00    -0.648 OA
HETATM   28  O3  UNL     1      27.751  60.211  91.201  1.00  0.00    -0.648 OA
ENDBRANCH  25  26
ENDBRANCH  24  25
BRANCH   1  29
HETATM   29  S1  UNL     1      29.344  69.030  92.880  1.00  0.00    -0.098 SA
HETATM   30  C1  UNL     1      27.569  69.226  93.192  1.00  0.00     0.099 C 
ENDBRANCH   1  29
TORSDOF 3
ENDMDL
MODEL 2
REMARK VINA RESULT: -7.354045859      4.051      6.242
REMARK  3 active torsions:
REMARK  status: ('A' for Active; 'I' for Inactive)
REMARK    1  A    between atoms: S1_2  and  C2_3 
REMARK    2  A    between atoms: C16_26  and  C17_27 
REMARK    3  A    between atoms: C17_27  and  C18_28 
ROOT
HETATM    1  C2  UNL     1      31.198  62.112  92.363  1.00  0.00     0.146 A 
HETATM    2  N1  UNL     1      30.480  62.306  91.250  1.00  0.00    -0.303 N 
ATOM      3  H1  UNL     1      30.694  63.101  90.648  1.00  0.00     0.171 HD
HETATM    4  C3  UNL     1      29.461  61.452  90.906  1.00  0.00     0.256 A 
HETATM    5  O1  UNL     1      28.822  61.659  89.871  1.00  0.00    -0.268 OA
HETATM    6  C4  UNL     1      29.119  60.362  91.672  1.00  0.00     0.043 A 
HETATM    7  C5  UNL     1      29.919  60.232  92.812  1.00  0.00     0.023 A 
HETATM    8  N2  UNL     1      30.905  61.063  93.143  1.00  0.00    -0.340 N 
ATOM      9  H2  UNL     1      31.441  60.900  93.995  1.00  0.00     0.168 HD
HETATM   10  C6  UNL     1      29.685  59.035  93.666  1.00  0.00     0.059 C 
HETATM   11  C7  UNL     1      29.698  57.904  92.630  1.00  0.00     0.017 C 
HETATM   12  C8  UNL     1      28.425  58.014  91.780  1.00  0.00    -0.021 C 
HETATM   13  C9  UNL     1      27.419  57.311  92.654  1.00  0.00     0.017 C 
HETATM   14  C10 UNL     1      28.071  59.451  91.442  1.00  0.00     0.108 C 
HETATM   15  C11 UNL     1      27.330  59.287  90.213  1.00  0.00     0.256 C 
HETATM   16  F1  UNL     1      26.662  60.261  89.583  1.00  0.00    -0.205 F 
HETATM   17  F2  UNL     1      26.210  58.454  90.526  1.00  0.00    -0.205 F 
HETATM   18  C12 UNL     1      28.149  58.341  89.375  1.00  0.00     0.074 C 
HETATM   19  C13 UNL     1      27.275  57.603  88.391  1.00  0.00     0.090 C 
HETATM   20  C14 UNL     1      27.007  56.236  88.916  1.00  0.00     0.245 C 
HETATM   21  F3  UNL     1      27.392  55.263  87.991  1.00  0.00    -0.206 F 
HETATM   22  F4  UNL     1      25.626  55.995  89.049  1.00  0.00    -0.206 F 
HETATM   23  C15 UNL     1      27.723  56.138  90.228  1.00  0.00     0.090 C 
HETATM   24  C16 UNL     1      28.597  57.318  90.428  1.00  0.00    -0.008 C 
ENDROOT
BRANCH  24  25
HETATM   25  C17 UNL     1      30.052  57.047  90.196  1.00  0.00     0.124 C 
BRANCH  25  26
HETATM   26  C18 UNL     1      30.395  55.666  89.811  1.00  0.00     0.173 C 
HETATM   27  O2  UNL     1      30.516  55.281  88.621  1.00  0.00    -0.648 OA
HETATM   28  O3  UNL     1      30.617  54.654  90.771  1.00  0.00    -0.648 OA
ENDBRANCH  25  26
ENDBRANCH  24  25
BRANCH   1  29
HETATM   29  S1  UNL     1      32.506  63.264  92.748  1.00  0.00    -0.098 SA
HETATM   30  C1  UNL     1      32.096  64.287  94.186  1.00  0.00     0.099 C 
ENDBRANCH   1  29
TORSDOF 3
ENDMDL
MODEL 3
REMARK VINA RESULT: -7.272649740      7.180      9.926
REMARK  3 active torsions:
REMARK  status: ('A' for Active; 'I' for Inactive)
REMARK    1  A    between atoms: S1_2  and  C2_3 
REMARK    2  A    between atoms: C16_26  and  C17_27 
REMARK    3  A    between atoms: C17_27  and  C18_28 
ROOT
HETATM    1  C2  UNL     1      24.008  54.013  88.864  1.00  0.00     0.146 A 
HETATM    2  N1  UNL     1      24.039  55.314  88.555  1.00  0.00    -0.303 N 
ATOM      3  H1  UNL     1      23.199  55.763  88.189  1.00  0.00     0.171 HD
HETATM    4  C3  UNL     1      25.183  56.056  88.722  1.00  0.00     0.256 A 
HETATM    5  O1  UNL     1      25.175  57.254  88.430  1.00  0.00    -0.268 OA
HETATM    6  C4  UNL     1      26.350  55.516  89.209  1.00  0.00     0.043 A 
HETATM    7  C5  UNL     1      26.230  54.154  89.509  1.00  0.00     0.023 A 
HETATM    8  N2  UNL     1      25.119  53.439  89.344  1.00  0.00    -0.340 N 
ATOM      9  H2  UNL     1      25.115  52.447  89.585  1.00  0.00     0.168 HD
HETATM   10  C6  UNL     1      27.414  53.493  90.122  1.00  0.00     0.059 C 
HETATM   11  C7  UNL     1      27.763  54.464  91.257  1.00  0.00     0.017 C 
HETATM   12  C8  UNL     1      28.329  55.748  90.635  1.00  0.00    -0.021 C 
HETATM   13  C9  UNL     1      29.770  55.364  90.412  1.00  0.00     0.017 C 
HETATM   14  C10 UNL     1      27.587  56.165  89.378  1.00  0.00     0.108 C 
HETATM   15  C11 UNL     1      27.817  57.591  89.364  1.00  0.00     0.256 C 
HETATM   16  F1  UNL     1      27.490  58.412  88.359  1.00  0.00    -0.205 F 
HETATM   17  F2  UNL     1      29.235  57.770  89.306  1.00  0.00    -0.205 F 
HETATM   18  C12 UNL     1      27.539  58.056  90.769  1.00  0.00     0.074 C 
HETATM   19  C13 UNL     1      28.298  59.324  91.075  1.00  0.00     0.090 C 
HETATM   20  C14 UNL     1      29.505  58.981  91.877  1.00  0.00     0.245 C 
HETATM   21  F3  UNL     1      29.526  59.698  93.075  1.00  0.00    -0.206 F 
HETATM   22  F4  UNL     1      30.686  59.415  91.246  1.00  0.00    -0.206 F 
HETATM   23  C15 UNL     1      29.481  57.495  92.065  1.00  0.00     0.090 C 
HETATM   24  C16 UNL     1      28.193  56.936  91.590  1.00  0.00    -0.008 C 
ENDROOT
BRANCH  24  25
HETATM   25  C17 UNL     1      27.242  56.575  92.691  1.00  0.00     0.124 C 
BRANCH  25  26
HETATM   26  C18 UNL     1      25.853  57.041  92.518  1.00  0.00     0.173 C 
HETATM   27  O2  UNL     1      25.488  58.230  92.690  1.00  0.00    -0.648 OA
HETATM   28  O3  UNL     1      24.811  56.166  92.139  1.00  0.00    -0.648 OA
ENDBRANCH  25  26
ENDBRANCH  24  25
BRANCH   1  29
HETATM   29  S1  UNL     1      22.487  53.112  88.619  1.00  0.00    -0.098 SA
HETATM   30  C1  UNL     1      22.588  52.004  87.188  1.00  0.00     0.099 C 
ENDBRANCH   1  29
TORSDOF 3
ENDMDL
MODEL 4
REMARK VINA RESULT: -7.148085884      3.823      5.907
REMARK  3 active torsions:
REMARK  status: ('A' for Active; 'I' for Inactive)
REMARK    1  A    between atoms: S1_2  and  C2_3 
REMARK    2  A    between atoms: C16_26  and  C17_27 
REMARK    3  A    between atoms: C17_27  and  C18_28 
ROOT
HETATM    1  C2  UNL     1      27.708  60.023  89.171  1.00  0.00     0.146 A 
HETATM    2  N1  UNL     1      27.643  61.359  89.231  1.00  0.00    -0.303 N 
ATOM      3  H1  UNL     1      26.876  61.844  88.766  1.00  0.00     0.171 HD
HETATM    4  C3  UNL     1      28.592  62.086  89.907  1.00  0.00     0.256 A 
HETATM    5  O1  UNL     1      28.500  63.314  89.944  1.00  0.00    -0.268 OA
HETATM    6  C4  UNL     1      29.652  61.495  90.554  1.00  0.00     0.043 A 
HETATM    7  C5  UNL     1      29.642  60.100  90.445  1.00  0.00     0.023 A 
HETATM    8  N2  UNL     1      28.720  59.400  89.788  1.00  0.00    -0.340 N 
ATOM      9  H2  UNL     1      28.786  58.383  89.753  1.00  0.00     0.168 HD
HETATM   10  C6  UNL     1      30.702  59.360  91.183  1.00  0.00     0.059 C 
HETATM   11  C7  UNL     1      30.607  59.985  92.580  1.00  0.00     0.017 C 
HETATM   12  C8  UNL     1      31.138  61.423  92.502  1.00  0.00    -0.021 C 
HETATM   13  C9  UNL     1      32.625  61.200  92.614  1.00  0.00     0.017 C 
HETATM   14  C10 UNL     1      30.703  62.138  91.236  1.00  0.00     0.108 C 
HETATM   15  C11 UNL     1      30.734  63.520  91.656  1.00  0.00     0.256 C 
HETATM   16  F1  UNL     1      30.575  64.574  90.847  1.00  0.00    -0.205 F 
HETATM   17  F2  UNL     1      32.080  63.788  92.060  1.00  0.00    -0.205 F 
HETATM   18  C12 UNL     1      30.037  63.548  92.991  1.00  0.00     0.074 C 
HETATM   19  C13 UNL     1      30.512  64.717  93.819  1.00  0.00     0.090 C 
HETATM   20  C14 UNL     1      31.500  64.229  94.820  1.00  0.00     0.245 C 
HETATM   21  F3  UNL     1      31.109  64.575  96.115  1.00  0.00    -0.206 F 
HETATM   22  F4  UNL     1      32.736  64.891  94.692  1.00  0.00    -0.206 F 
HETATM   23  C15 UNL     1      31.629  62.752  94.603  1.00  0.00     0.090 C 
HETATM   24  C16 UNL     1      30.598  62.279  93.649  1.00  0.00    -0.008 C 
ENDROOT
BRANCH  24  25
HETATM   25  C17 UNL     1      29.448  61.567  94.295  1.00  0.00     0.124 C 
BRANCH  25  26
HETATM   26  C18 UNL     1      29.634  61.199  95.711  1.00  0.00     0.173 C 
HETATM   27  O2  UNL     1      30.071  60.085  96.092  1.00  0.00    -0.648 OA
HETATM   28  O3  UNL     1      29.329  62.090  96.763  1.00  0.00    -0.648 OA
ENDBRANCH  25  26
ENDBRANCH  24  25
BRANCH   1  29
HETATM   29  S1  UNL     1      26.440  59.145  88.273  1.00  0.00    -0.098 SA
HETATM   30  C1  UNL     1      26.461  59.558  86.509  1.00  0.00     0.099 C 
ENDBRANCH   1  29
TORSDOF 3
ENDMDL
MODEL 5
REMARK VINA RESULT: -7.125473917      6.824      9.661
REMARK  3 active torsions:
REMARK  status: ('A' for Active; 'I' for Inactive)
REMARK    1  A    between atoms: S1_2  and  C2_3 
REMARK    2  A    between atoms: C16_26  and  C17_27 
REMARK    3  A    between atoms: C17_27  and  C18_28 
ROOT
HETATM    1  C2  UNL     1      25.020  53.564  91.903  1.00  0.00     0.146 A 
HETATM    2  N1  UNL     1      24.477  54.480  91.093  1.00  0.00    -0.303 N 
ATOM      3  H1  UNL     1      23.462  54.525  90.997  1.00  0.00     0.171 HD
HETATM    4  C3  UNL     1      25.262  55.361  90.390  1.00  0.00     0.256 A 
HETATM    5  O1  UNL     1      24.727  56.195  89.656  1.00  0.00    -0.268 OA
HETATM    6  C4  UNL     1      26.634  55.356  90.473  1.00  0.00     0.043 A 
HETATM    7  C5  UNL     1      27.119  54.371  91.342  1.00  0.00     0.023 A 
HETATM    8  N2  UNL     1      26.354  53.519  92.020  1.00  0.00    -0.340 N 
ATOM      9  H2  UNL     1      26.786  52.827  92.632  1.00  0.00     0.168 HD
HETATM   10  C6  UNL     1      28.589  54.337  91.567  1.00  0.00     0.059 C 
HETATM   11  C7  UNL     1      28.893  55.806  91.884  1.00  0.00     0.017 C 
HETATM   12  C8  UNL     1      28.729  56.622  90.595  1.00  0.00    -0.021 C 
HETATM   13  C9  UNL     1      30.065  56.405  89.931  1.00  0.00     0.017 C 
HETATM   14  C10 UNL     1      27.536  56.176  89.769  1.00  0.00     0.108 C 
HETATM   15  C11 UNL     1      27.213  57.385  89.047  1.00  0.00     0.256 C 
HETATM   16  F1  UNL     1      26.315  57.472  88.059  1.00  0.00    -0.205 F 
HETATM   17  F2  UNL     1      28.375  57.720  88.283  1.00  0.00    -0.205 F 
HETATM   18  C12 UNL     1      27.235  58.484  90.077  1.00  0.00     0.074 C 
HETATM   19  C13 UNL     1      27.533  59.815  89.432  1.00  0.00     0.090 C 
HETATM   20  C14 UNL     1      28.966  60.150  89.660  1.00  0.00     0.245 C 
HETATM   21  F3  UNL     1      29.094  61.393  90.284  1.00  0.00    -0.206 F 
HETATM   22  F4  UNL     1      29.650  60.351  88.446  1.00  0.00    -0.206 F 
HETATM   23  C15 UNL     1      29.546  59.017  90.450  1.00  0.00     0.090 C 
HETATM   24  C16 UNL     1      28.472  58.099  90.900  1.00  0.00    -0.008 C 
ENDROOT
BRANCH  24  25
HETATM   25  C17 UNL     1      28.109  58.247  92.346  1.00  0.00     0.124 C 
BRANCH  25  26
HETATM   26  C18 UNL     1      29.018  59.079  93.155  1.00  0.00     0.173 C 
HETATM   27  O2  UNL     1      30.000  58.624  93.794  1.00  0.00    -0.648 OA
HETATM   28  O3  UNL     1      28.849  60.476  93.275  1.00  0.00    -0.648 OA
ENDBRANCH  25  26
ENDBRANCH  24  25
BRANCH   1  29
HETATM   29  S1  UNL     1      23.937  52.451  92.784  1.00  0.00    -0.098 SA
HETATM   30  C1  UNL     1      23.162  51.251  91.669  1.00  0.00     0.099 C 
ENDBRANCH   1  29
TORSDOF 3
ENDMDL
