MODEL 1
REMARK VINA RESULT: -7.475838113      0.000      0.000
REMARK  6 active torsions:
REMARK  status: ('A' for Active; 'I' for Inactive)
REMARK    1  A    between atoms: O1_1  and  C1_3 
REMARK    2  A    between atoms: C3_5  and  C4_6 
REMARK    3  A    between atoms: C4_6  and  N1_7 
REMARK    4  A    between atoms: C4_6  and  C15_26 
REMARK    5  A    between atoms: N1_7  and  C5_9 
REMARK    6  A    between atoms: C5_9  and  C6_10 
ROOT
HETATM    1  C5  UNL     1      28.767  57.076  91.303  1.00  0.00     0.096 C 
HETATM    2  C11 UNL     1      29.850  56.422  90.466  1.00  0.00     0.041 C 
HETATM    3  C12 UNL     1      30.307  55.147  91.184  1.00  0.00     0.030 C 
HETATM    4  C13 UNL     1      29.165  54.208  91.328  1.00  0.00     0.232 C 
HETATM    5  N3  UNL     1      28.032  54.824  92.020  1.00  0.00    -0.072 N 
ATOM      6  H31 UNL     1      27.708  54.255  92.801  1.00  0.00     0.277 HD
ATOM      7  H32 UNL     1      27.183  54.802  91.454  1.00  0.00     0.277 HD
HETATM    8  C14 UNL     1      28.372  56.171  92.434  1.00  0.00     0.269 C 
ENDROOT
BRANCH   1   9
HETATM    9  N1  UNL     1      27.752  57.702  90.556  1.00  0.00    -0.401 N 
ATOM     10  H1  UNL     1      27.283  58.512  90.962  1.00  0.00     0.154 HD
BRANCH   9  11
HETATM   11  C4  UNL     1      27.351  57.273  89.282  1.00  0.00     0.088 C 
BRANCH  11  12
HETATM   12  C3  UNL     1      26.107  56.537  89.138  1.00  0.00     0.039 A 
HETATM   13  C1  UNL     1      25.447  55.688  90.134  1.00  0.00     0.124 A 
HETATM   14  C2  UNL     1      26.115  55.038  88.919  1.00  0.00     0.041 A 
BRANCH  13  15
HETATM   15  O1  UNL     1      24.054  55.617  90.163  1.00  0.00    -0.395 OA
ATOM     16  H1  UNL     1      23.657  55.722  91.020  1.00  0.00     0.210 HD
ENDBRANCH  13  15
ENDBRANCH  11  12
BRANCH  11  17
HETATM   17  C15 UNL     1      27.588  58.402  88.299  1.00  0.00     0.014 C 
HETATM   18  C16 UNL     1      26.637  58.282  87.107  1.00  0.00     0.007 C 
HETATM   19  C17 UNL     1      26.330  59.610  86.486  1.00  0.00     0.006 C 
HETATM   20  C18 UNL     1      27.476  60.575  86.504  1.00  0.00     0.079 C 
HETATM   21  C19 UNL     1      28.143  60.725  87.829  1.00  0.00     0.244 C 
HETATM   22  F2  UNL     1      28.012  62.011  88.334  1.00  0.00    -0.206 F 
HETATM   23  F3  UNL     1      29.486  60.421  87.644  1.00  0.00    -0.206 F 
HETATM   24  C20 UNL     1      27.505  59.766  88.817  1.00  0.00     0.085 C 
ENDBRANCH  11  17
ENDBRANCH   9  11
ENDBRANCH   1   9
BRANCH   1  25
HETATM   25  C6  UNL     1      29.470  58.227  92.004  1.00  0.00     0.078 A 
HETATM   26  N2  UNL     1      29.400  58.397  93.333  1.00  0.00    -0.363 N 
HETATM   27  C7  UNL     1      30.015  59.387  93.981  1.00  0.00     0.112 A 
ATOM     28  H2  UNL     1      28.848  57.734  93.876  1.00  0.00     0.165 HD
HETATM   29  C8  UNL     1      30.767  60.301  93.301  1.00  0.00     0.052 A 
HETATM   30 CL1  UNL     1      31.546  61.571  94.194  1.00  0.00    -0.083 Cl
HETATM   31  C9  UNL     1      30.856  60.150  91.928  1.00  0.00     0.069 A 
HETATM   32  C10 UNL     1      30.204  59.106  91.262  1.00  0.00     0.143 A 
HETATM   33  F1  UNL     1      30.329  59.045  89.928  1.00  0.00    -0.204 F 
ENDBRANCH   1  25
TORSDOF 6
ENDMDL
MODEL 2
REMARK VINA RESULT: -7.365094835      2.791      5.134
REMARK  6 active torsions:
REMARK  status: ('A' for Active; 'I' for Inactive)
REMARK    1  A    between atoms: O1_1  and  C1_3 
REMARK    2  A    between atoms: C3_5  and  C4_6 
REMARK    3  A    between atoms: C4_6  and  N1_7 
REMARK    4  A    between atoms: C4_6  and  C15_26 
REMARK    5  A    between atoms: N1_7  and  C5_9 
REMARK    6  A    between atoms: C5_9  and  C6_10 
ROOT
HETATM    1  C5  UNL     1      27.752  56.083  90.062  1.00  0.00     0.096 C 
HETATM    2  C11 UNL     1      28.382  56.256  88.693  1.00  0.00     0.041 C 
HETATM    3  C12 UNL     1      27.520  55.507  87.670  1.00  0.00     0.030 C 
HETATM    4  C13 UNL     1      26.146  56.070  87.652  1.00  0.00     0.232 C 
HETATM    5  N3  UNL     1      25.527  56.048  88.978  1.00  0.00    -0.072 N 
ATOM      6  H31 UNL     1      24.607  55.609  88.962  1.00  0.00     0.277 HD
ATOM      7  H32 UNL     1      25.244  56.981  89.281  1.00  0.00     0.277 HD
HETATM    8  C14 UNL     1      26.414  55.414  89.933  1.00  0.00     0.269 C 
ENDROOT
BRANCH   1   9
HETATM    9  N1  UNL     1      27.865  57.207  90.901  1.00  0.00    -0.401 N 
ATOM     10  H1  UNL     1      27.774  57.069  91.908  1.00  0.00     0.154 HD
BRANCH   9  11
HETATM   11  C4  UNL     1      28.095  58.507  90.428  1.00  0.00     0.088 C 
BRANCH  11  12
HETATM   12  C3  UNL     1      27.024  59.219  89.751  1.00  0.00     0.039 A 
HETATM   13  C1  UNL     1      26.997  59.686  88.362  1.00  0.00     0.124 A 
HETATM   14  C2  UNL     1      27.126  60.708  89.496  1.00  0.00     0.041 A 
BRANCH  13  15
HETATM   15  O1  UNL     1      25.787  59.709  87.668  1.00  0.00    -0.395 OA
ATOM     16  H1  UNL     1      25.139  59.077  87.956  1.00  0.00     0.210 HD
ENDBRANCH  13  15
ENDBRANCH  11  12
BRANCH  11  17
HETATM   17  C15 UNL     1      28.854  59.276  91.491  1.00  0.00     0.014 C 
HETATM   18  C16 UNL     1      28.790  58.542  92.832  1.00  0.00     0.007 C 
HETATM   19  C17 UNL     1      29.983  58.824  93.694  1.00  0.00     0.006 C 
HETATM   20  C18 UNL     1      30.514  60.219  93.568  1.00  0.00     0.079 C 
HETATM   21  C19 UNL     1      30.724  60.681  92.166  1.00  0.00     0.244 C 
HETATM   22  F2  UNL     1      32.061  60.936  91.897  1.00  0.00    -0.206 F 
HETATM   23  F3  UNL     1      29.976  61.842  92.006  1.00  0.00    -0.206 F 
HETATM   24  C20 UNL     1      30.250  59.601  91.211  1.00  0.00     0.085 C 
ENDBRANCH  11  17
ENDBRANCH   9  11
ENDBRANCH   1   9
BRANCH   1  25
HETATM   25  C6  UNL     1      28.607  55.028  90.744  1.00  0.00     0.078 A 
HETATM   26  N2  UNL     1      28.084  53.886  91.215  1.00  0.00    -0.363 N 
HETATM   27  C7  UNL     1      28.807  52.935  91.806  1.00  0.00     0.112 A 
ATOM     28  H2  UNL     1      27.080  53.739  91.116  1.00  0.00     0.165 HD
HETATM   29  C8  UNL     1      30.155  53.084  91.963  1.00  0.00     0.052 A 
HETATM   30 CL1  UNL     1      31.050  51.813  92.741  1.00  0.00    -0.083 Cl
HETATM   31  C9  UNL     1      30.722  54.252  91.487  1.00  0.00     0.069 A 
HETATM   32  C10 UNL     1      29.949  55.242  90.869  1.00  0.00     0.143 A 
HETATM   33  F1  UNL     1      30.577  56.352  90.452  1.00  0.00    -0.204 F 
ENDBRANCH   1  25
TORSDOF 6
ENDMDL
MODEL 3
REMARK VINA RESULT: -7.266044566      3.345      6.188
REMARK  6 active torsions:
REMARK  status: ('A' for Active; 'I' for Inactive)
REMARK    1  A    between atoms: O1_1  and  C1_3 
REMARK    2  A    between atoms: C3_5  and  C4_6 
REMARK    3  A    between atoms: C4_6  and  N1_7 
REMARK    4  A    between atoms: C4_6  and  C15_26 
REMARK    5  A    between atoms: N1_7  and  C5_9 
REMARK    6  A    between atoms: C5_9  and  C6_10 
ROOT
HETATM    1  C5  UNL     1      27.986  59.153  89.583  1.00  0.00     0.096 C 
HETATM    2  C11 UNL     1      29.051  59.693  88.648  1.00  0.00     0.041 C 
HETATM    3  C12 UNL     1      28.610  61.080  88.167  1.00  0.00     0.030 C 
HETATM    4  C13 UNL     1      28.466  61.998  89.327  1.00  0.00     0.232 C 
HETATM    5  N3  UNL     1      27.542  61.471  90.331  1.00  0.00    -0.072 N 
ATOM      6  H31 UNL     1      26.824  62.149  90.582  1.00  0.00     0.277 HD
ATOM      7  H32 UNL     1      27.986  61.377  91.245  1.00  0.00     0.277 HD
HETATM    8  C14 UNL     1      26.969  60.219  89.876  1.00  0.00     0.269 C 
ENDROOT
BRANCH   1   9
HETATM    9  N1  UNL     1      28.484  58.386  90.652  1.00  0.00    -0.401 N 
ATOM     10  H1  UNL     1      29.202  57.689  90.453  1.00  0.00     0.154 HD
BRANCH   9  11
HETATM   11  C4  UNL     1      28.046  58.528  91.977  1.00  0.00     0.088 C 
BRANCH  11  12
HETATM   12  C3  UNL     1      27.336  57.431  92.614  1.00  0.00     0.039 A 
HETATM   13  C1  UNL     1      27.508  55.995  92.376  1.00  0.00     0.124 A 
HETATM   14  C2  UNL     1      26.236  56.692  91.881  1.00  0.00     0.041 A 
BRANCH  13  15
HETATM   15  O1  UNL     1      27.329  55.097  93.430  1.00  0.00    -0.395 OA
ATOM     16  H1  UNL     1      28.024  54.460  93.546  1.00  0.00     0.210 HD
ENDBRANCH  13  15
ENDBRANCH  11  12
BRANCH  11  17
HETATM   17  C15 UNL     1      29.155  59.174  92.782  1.00  0.00     0.014 C 
HETATM   18  C16 UNL     1      30.354  59.489  91.885  1.00  0.00     0.007 C 
HETATM   19  C17 UNL     1      31.148  60.658  92.384  1.00  0.00     0.006 C 
HETATM   20  C18 UNL     1      31.214  60.762  93.877  1.00  0.00     0.079 C 
HETATM   21  C19 UNL     1      29.897  60.654  94.567  1.00  0.00     0.244 C 
HETATM   22  F2  UNL     1      29.563  61.822  95.237  1.00  0.00    -0.206 F 
HETATM   23  F3  UNL     1      29.998  59.600  95.468  1.00  0.00    -0.206 F 
HETATM   24  C20 UNL     1      28.817  60.378  93.537  1.00  0.00     0.085 C 
ENDBRANCH  11  17
ENDBRANCH   9  11
ENDBRANCH   1   9
BRANCH   1  25
HETATM   25  C6  UNL     1      27.212  58.152  88.742  1.00  0.00     0.078 A 
HETATM   26  N2  UNL     1      26.008  58.441  88.224  1.00  0.00    -0.363 N 
HETATM   27  C7  UNL     1      25.308  57.592  87.472  1.00  0.00     0.112 A 
ATOM     28  H2  UNL     1      25.607  59.359  88.417  1.00  0.00     0.165 HD
HETATM   29  C8  UNL     1      25.800  56.351  87.184  1.00  0.00     0.052 A 
HETATM   30 CL1  UNL     1      24.847  55.283  86.199  1.00  0.00    -0.083 Cl
HETATM   31  C9  UNL     1      27.040  56.026  87.705  1.00  0.00     0.069 A 
HETATM   32  C10 UNL     1      27.762  56.928  88.494  1.00  0.00     0.143 A 
HETATM   33  F1  UNL     1      28.948  56.525  88.975  1.00  0.00    -0.204 F 
ENDBRANCH   1  25
TORSDOF 6
ENDMDL
MODEL 4
REMARK VINA RESULT: -7.247849737      3.299      6.233
REMARK  6 active torsions:
REMARK  status: ('A' for Active; 'I' for Inactive)
REMARK    1  A    between atoms: O1_1  and  C1_3 
REMARK    2  A    between atoms: C3_5  and  C4_6 
REMARK    3  A    between atoms: C4_6  and  N1_7 
REMARK    4  A    between atoms: C4_6  and  C15_26 
REMARK    5  A    between atoms: N1_7  and  C5_9 
REMARK    6  A    between atoms: C5_9  and  C6_10 
ROOT
HETATM    1  C5  UNL     1      28.359  59.852  89.597  1.00  0.00     0.096 C 
HETATM    2  C11 UNL     1      29.461  60.237  88.630  1.00  0.00     0.041 C 
HETATM    3  C12 UNL     1      29.139  61.624  88.062  1.00  0.00     0.030 C 
HETATM    4  C13 UNL     1      29.081  62.622  89.161  1.00  0.00     0.232 C 
HETATM    5  N3  UNL     1      28.121  62.242  90.197  1.00  0.00    -0.072 N 
ATOM      6  H31 UNL     1      27.466  62.995  90.404  1.00  0.00     0.277 HD
ATOM      7  H32 UNL     1      28.560  62.168  91.115  1.00  0.00     0.277 HD
HETATM    8  C14 UNL     1      27.439  61.018  89.822  1.00  0.00     0.269 C 
ENDROOT
BRANCH   1   9
HETATM    9  N1  UNL     1      28.794  59.113  90.713  1.00  0.00    -0.401 N 
ATOM     10  H1  UNL     1      29.495  58.387  90.568  1.00  0.00     0.154 HD
BRANCH   9  11
HETATM   11  C4  UNL     1      28.315  59.322  92.014  1.00  0.00     0.088 C 
BRANCH  11  12
HETATM   12  C3  UNL     1      27.684  58.224  92.727  1.00  0.00     0.039 A 
HETATM   13  C1  UNL     1      27.522  56.839  92.275  1.00  0.00     0.124 A 
HETATM   14  C2  UNL     1      26.295  57.754  92.350  1.00  0.00     0.041 A 
BRANCH  13  15
HETATM   15  O1  UNL     1      27.556  55.802  93.208  1.00  0.00    -0.395 OA
ATOM     16  H1  UNL     1      27.837  56.048  94.082  1.00  0.00     0.210 HD
ENDBRANCH  13  15
ENDBRANCH  11  12
BRANCH  11  17
HETATM   17  C15 UNL     1      29.349  60.122  92.782  1.00  0.00     0.014 C 
HETATM   18  C16 UNL     1      29.597  59.498  94.157  1.00  0.00     0.007 C 
HETATM   19  C17 UNL     1      30.979  59.770  94.667  1.00  0.00     0.006 C 
HETATM   20  C18 UNL     1      31.518  61.116  94.288  1.00  0.00     0.079 C 
HETATM   21  C19 UNL     1      31.385  61.456  92.843  1.00  0.00     0.244 C 
HETATM   22  F2  UNL     1      32.620  61.606  92.228  1.00  0.00    -0.206 F 
HETATM   23  F3  UNL     1      30.669  62.645  92.770  1.00  0.00    -0.206 F 
HETATM   24  C20 UNL     1      30.642  60.337  92.136  1.00  0.00     0.085 C 
ENDBRANCH  11  17
ENDBRANCH   9  11
ENDBRANCH   1   9
BRANCH   1  25
HETATM   25  C6  UNL     1      27.496  58.871  88.822  1.00  0.00     0.078 A 
HETATM   26  N2  UNL     1      26.343  59.242  88.245  1.00  0.00    -0.363 N 
HETATM   27  C7  UNL     1      25.569  58.410  87.546  1.00  0.00     0.112 A 
ATOM     28  H2  UNL     1      26.042  60.211  88.346  1.00  0.00     0.165 HD
HETATM   29  C8  UNL     1      25.926  57.103  87.381  1.00  0.00     0.052 A 
HETATM   30 CL1  UNL     1      24.882  56.062  86.462  1.00  0.00    -0.083 Cl
HETATM   31  C9  UNL     1      27.111  56.692  87.966  1.00  0.00     0.069 A 
HETATM   32  C10 UNL     1      27.912  57.577  88.697  1.00  0.00     0.143 A 
HETATM   33  F1  UNL     1      29.035  57.091  89.246  1.00  0.00    -0.204 F 
ENDBRANCH   1  25
TORSDOF 6
ENDMDL
MODEL 5
REMARK VINA RESULT: -7.203188631      1.392      1.683
REMARK  6 active torsions:
REMARK  status: ('A' for Active; 'I' for Inactive)
REMARK    1  A    between atoms: O1_1  and  C1_3 
REMARK    2  A    between atoms: C3_5  and  C4_6 
REMARK    3  A    between atoms: C4_6  and  N1_7 
REMARK    4  A    between atoms: C4_6  and  C15_26 
REMARK    5  A    between atoms: N1_7  and  C5_9 
REMARK    6  A    between atoms: C5_9  and  C6_10 
ROOT
HETATM    1  C5  UNL     1      28.462  56.515  90.778  1.00  0.00     0.096 C 
HETATM    2  C11 UNL     1      29.540  55.963  89.865  1.00  0.00     0.041 C 
HETATM    3  C12 UNL     1      30.250  54.819  90.598  1.00  0.00     0.030 C 
HETATM    4  C13 UNL     1      29.280  53.740  90.918  1.00  0.00     0.232 C 
HETATM    5  N3  UNL     1      28.145  54.238  91.695  1.00  0.00    -0.072 N 
ATOM      6  H31 UNL     1      27.989  53.686  92.538  1.00  0.00     0.277 HD
ATOM      7  H32 UNL     1      27.255  54.056  91.229  1.00  0.00     0.277 HD
HETATM    8  C14 UNL     1      28.321  55.645  91.994  1.00  0.00     0.269 C 
ENDROOT
BRANCH   1   9
HETATM    9  N1  UNL     1      27.295  56.937  90.114  1.00  0.00    -0.401 N 
ATOM     10  H1  UNL     1      26.804  57.755  90.474  1.00  0.00     0.154 HD
BRANCH   9  11
HETATM   11  C4  UNL     1      26.773  56.293  88.983  1.00  0.00     0.088 C 
BRANCH  11  12
HETATM   12  C3  UNL     1      25.574  55.483  89.115  1.00  0.00     0.039 A 
HETATM   13  C1  UNL     1      24.979  54.957  90.347  1.00  0.00     0.124 A 
HETATM   14  C2  UNL     1      25.671  53.994  89.377  1.00  0.00     0.041 A 
BRANCH  13  15
HETATM   15  O1  UNL     1      23.593  54.823  90.440  1.00  0.00    -0.395 OA
ATOM     16  H1  UNL     1      23.092  55.318  89.802  1.00  0.00     0.210 HD
ENDBRANCH  13  15
ENDBRANCH  11  12
BRANCH  11  17
HETATM   17  C15 UNL     1      26.809  57.264  87.820  1.00  0.00     0.014 C 
HETATM   18  C16 UNL     1      27.105  56.524  86.513  1.00  0.00     0.007 C 
HETATM   19  C17 UNL     1      26.518  57.215  85.321  1.00  0.00     0.006 C 
HETATM   20  C18 UNL     1      26.524  58.710  85.414  1.00  0.00     0.079 C 
HETATM   21  C19 UNL     1      25.982  59.256  86.691  1.00  0.00     0.244 C 
HETATM   22  F2  UNL     1      24.834  60.009  86.489  1.00  0.00    -0.206 F 
HETATM   23  F3  UNL     1      26.979  60.048  87.249  1.00  0.00    -0.206 F 
HETATM   24  C20 UNL     1      25.631  58.104  87.615  1.00  0.00     0.085 C 
ENDBRANCH  11  17
ENDBRANCH   9  11
ENDBRANCH   1   9
BRANCH   1  25
HETATM   25  C6  UNL     1      29.053  57.800  91.333  1.00  0.00     0.078 A 
HETATM   26  N2  UNL     1      29.321  57.952  92.639  1.00  0.00    -0.363 N 
HETATM   27  C7  UNL     1      29.852  59.060  93.157  1.00  0.00     0.112 A 
ATOM     28  H2  UNL     1      29.107  57.179  93.269  1.00  0.00     0.165 HD
HETATM   29  C8  UNL     1      30.158  60.123  92.357  1.00  0.00     0.052 A 
HETATM   30 CL1  UNL     1      30.848  61.543  93.082  1.00  0.00    -0.083 Cl
HETATM   31  C9  UNL     1      29.892  59.995  91.005  1.00  0.00     0.069 A 
HETATM   32  C10 UNL     1      29.334  58.825  90.477  1.00  0.00     0.143 A 
HETATM   33  F1  UNL     1      29.091  58.791  89.157  1.00  0.00    -0.204 F 
ENDBRANCH   1  25
TORSDOF 6
ENDMDL
