MODEL 1
REMARK VINA RESULT: -8.940680971      0.000      0.000
REMARK  4 active torsions:
REMARK  status: ('A' for Active; 'I' for Inactive)
REMARK    1  A    between atoms: O1_2  and  C2_3 
REMARK    2  A    between atoms: N1_6  and  C5_7 
REMARK    3  A    between atoms: C9_12  and  C10_13 
REMARK    4  A    between atoms: C10_13  and  C11_14 
ROOT
HETATM    1  C5  UNL     1      28.948  59.428  92.442  1.00  0.00     0.031 A 
HETATM    2  C6  UNL     1      29.634  58.582  93.260  1.00  0.00     0.032 A 
HETATM    3  C7  UNL     1      30.634  59.094  94.067  1.00  0.00     0.045 A 
HETATM    4  C8  UNL     1      30.937  60.428  94.051  1.00  0.00     0.125 A 
HETATM    5  F1  UNL     1      31.926  60.952  94.844  1.00  0.00    -0.205 F 
HETATM    6  C9  UNL     1      30.257  61.335  93.225  1.00  0.00     0.017 A 
HETATM    7  C16 UNL     1      29.279  60.777  92.447  1.00  0.00     0.042 A 
ENDROOT
BRANCH   6   8
HETATM    8  C10 UNL     1      30.644  62.770  93.275  1.00  0.00     0.128 C 
HETATM    9  N2  UNL     1      29.831  63.430  92.268  1.00  0.00    -0.337 N 
HETATM   10  C12 UNL     1      30.317  64.431  91.416  1.00  0.00     0.214 C 
ATOM     11  H2  UNL     1      28.854  63.151  92.176  1.00  0.00     0.164 HD
HETATM   12  N3  UNL     1      29.573  65.148  90.666  1.00  0.00    -0.365 N 
HETATM   13  O2  UNL     1      31.682  64.656  91.384  1.00  0.00    -0.317 OA
ATOM     14  H32 UNL     1      28.567  64.982  90.689  1.00  0.00     0.159 HD
ATOM     15  H31 UNL     1      29.927  65.876  90.046  1.00  0.00     0.159 HD
HETATM   16  C13 UNL     1      32.601  63.911  92.141  1.00  0.00     0.139 A 
HETATM   17  C14 UNL     1      32.745  64.177  93.599  1.00  0.00     0.043 A 
HETATM   18  C15 UNL     1      32.104  62.946  93.087  1.00  0.00     0.056 A 
BRANCH   8  19
HETATM   19  C11 UNL     1      30.249  63.397  94.589  1.00  0.00     0.386 C 
HETATM   20  F2  UNL     1      29.753  64.686  94.455  1.00  0.00    -0.211 F 
HETATM   21  F3  UNL     1      29.473  62.582  95.379  1.00  0.00    -0.211 F 
ENDBRANCH   8  19
ENDBRANCH   6   8
BRANCH   1  22
HETATM   22  N1  UNL     1      27.945  58.973  91.590  1.00  0.00    -0.373 N 
HETATM   23  C4  UNL     1      26.629  58.569  92.140  1.00  0.00     0.126 C 
HETATM   24  C3  UNL     1      26.513  57.091  91.862  1.00  0.00     0.055 C 
HETATM   25  C2  UNL     1      26.789  56.649  90.487  1.00  0.00     0.163 C 
HETATM   26  C19 UNL     1      27.760  57.430  89.689  1.00  0.00     0.145 C 
HETATM   27  C17 UNL     1      27.975  58.846  90.155  1.00  0.00     0.122 C 
HETATM   28  C20 UNL     1      27.378  57.462  88.205  1.00  0.00     0.057 C 
HETATM   29  F4  UNL     1      28.986  56.793  89.733  1.00  0.00    -0.238 F 
HETATM   30  C18 UNL     1      29.112  59.512  89.464  1.00  0.00     0.036 C 
BRANCH  25  31
HETATM   31  O1  UNL     1      25.576  56.626  89.782  1.00  0.00    -0.387 OA
HETATM   32  C1  UNL     1      24.920  55.418  89.884  1.00  0.00     0.202 C 
ENDBRANCH  25  31
ENDBRANCH   1  22
TORSDOF 4
ENDMDL
MODEL 2
REMARK VINA RESULT: -8.541688500      2.078      3.290
REMARK  4 active torsions:
REMARK  status: ('A' for Active; 'I' for Inactive)
REMARK    1  A    between atoms: O1_2  and  C2_3 
REMARK    2  A    between atoms: N1_6  and  C5_7 
REMARK    3  A    between atoms: C9_12  and  C10_13 
REMARK    4  A    between atoms: C10_13  and  C11_14 
ROOT
HETATM    1  C5  UNL     1      29.195  60.091  91.085  1.00  0.00     0.031 A 
HETATM    2  C6  UNL     1      28.786  60.687  89.931  1.00  0.00     0.032 A 
HETATM    3  C7  UNL     1      29.094  62.019  89.717  1.00  0.00     0.045 A 
HETATM    4  C8  UNL     1      29.799  62.735  90.647  1.00  0.00     0.125 A 
HETATM    5  F1  UNL     1      30.112  64.056  90.452  1.00  0.00    -0.205 F 
HETATM    6  C9  UNL     1      30.241  62.162  91.849  1.00  0.00     0.017 A 
HETATM    7  C16 UNL     1      29.909  60.844  92.009  1.00  0.00     0.042 A 
ENDROOT
BRANCH   6   8
HETATM    8  C10 UNL     1      31.008  63.009  92.800  1.00  0.00     0.128 C 
HETATM    9  N2  UNL     1      30.228  63.025  94.027  1.00  0.00    -0.337 N 
HETATM   10  C12 UNL     1      30.049  64.171  94.813  1.00  0.00     0.214 C 
ATOM     11  H2  UNL     1      29.788  62.157  94.331  1.00  0.00     0.164 HD
HETATM   12  N3  UNL     1      29.534  64.157  95.981  1.00  0.00    -0.365 N 
HETATM   13  O2  UNL     1      30.453  65.389  94.296  1.00  0.00    -0.317 OA
ATOM     14  H32 UNL     1      29.236  63.259  96.362  1.00  0.00     0.159 HD
ATOM     15  H31 UNL     1      29.404  64.990  96.554  1.00  0.00     0.159 HD
HETATM   16  C13 UNL     1      31.005  65.533  93.012  1.00  0.00     0.139 A 
HETATM   17  C14 UNL     1      32.418  65.133  92.766  1.00  0.00     0.043 A 
HETATM   18  C15 UNL     1      31.279  64.353  92.235  1.00  0.00     0.056 A 
BRANCH   8  19
HETATM   19  C11 UNL     1      32.324  62.367  93.165  1.00  0.00     0.386 C 
HETATM   20  F2  UNL     1      32.220  61.455  94.206  1.00  0.00    -0.211 F 
HETATM   21  F3  UNL     1      33.026  61.895  92.082  1.00  0.00    -0.211 F 
ENDBRANCH   8  19
ENDBRANCH   6   8
BRANCH   1  22
HETATM   22  N1  UNL     1      28.900  58.760  91.369  1.00  0.00    -0.373 N 
HETATM   23  C4  UNL     1      29.963  57.730  91.294  1.00  0.00     0.126 C 
HETATM   24  C3  UNL     1      29.553  56.811  90.170  1.00  0.00     0.055 C 
HETATM   25  C2  UNL     1      28.174  56.300  90.198  1.00  0.00     0.163 C 
HETATM   26  C19 UNL     1      27.132  57.150  90.811  1.00  0.00     0.145 C 
HETATM   27  C17 UNL     1      27.642  58.188  91.777  1.00  0.00     0.122 C 
HETATM   28  C20 UNL     1      26.062  56.313  91.522  1.00  0.00     0.057 C 
HETATM   29  F4  UNL     1      26.458  57.821  89.808  1.00  0.00    -0.238 F 
HETATM   30  C18 UNL     1      26.589  59.153  92.193  1.00  0.00     0.036 C 
BRANCH  25  31
HETATM   31  O1  UNL     1      28.176  55.070  90.873  1.00  0.00    -0.387 OA
HETATM   32  C1  UNL     1      29.081  54.172  90.350  1.00  0.00     0.202 C 
ENDBRANCH  25  31
ENDBRANCH   1  22
TORSDOF 4
ENDMDL
MODEL 3
REMARK VINA RESULT: -8.473080578      2.418      3.826
REMARK  4 active torsions:
REMARK  status: ('A' for Active; 'I' for Inactive)
REMARK    1  A    between atoms: O1_2  and  C2_3 
REMARK    2  A    between atoms: N1_6  and  C5_7 
REMARK    3  A    between atoms: C9_12  and  C10_13 
REMARK    4  A    between atoms: C10_13  and  C11_14 
ROOT
HETATM    1  C5  UNL     1      29.279  61.427  89.837  1.00  0.00     0.031 A 
HETATM    2  C6  UNL     1      29.226  62.641  89.223  1.00  0.00     0.032 A 
HETATM    3  C7  UNL     1      29.708  63.752  89.891  1.00  0.00     0.045 A 
HETATM    4  C8  UNL     1      30.231  63.643  91.151  1.00  0.00     0.125 A 
HETATM    5  F1  UNL     1      30.712  64.734  91.829  1.00  0.00    -0.205 F 
HETATM    6  C9  UNL     1      30.305  62.413  91.822  1.00  0.00     0.017 A 
HETATM    7  C16 UNL     1      29.815  61.347  91.116  1.00  0.00     0.042 A 
ENDROOT
BRANCH   6   8
HETATM    8  C10 UNL     1      30.895  62.381  93.186  1.00  0.00     0.128 C 
HETATM    9  N2  UNL     1      30.636  61.045  93.694  1.00  0.00    -0.337 N 
HETATM   10  C12 UNL     1      30.248  60.782  95.015  1.00  0.00     0.214 C 
ATOM     11  H2  UNL     1      30.741  60.257  93.056  1.00  0.00     0.164 HD
HETATM   12  N3  UNL     1      30.205  59.611  95.522  1.00  0.00    -0.365 N 
HETATM   13  O2  UNL     1      29.891  61.852  95.817  1.00  0.00    -0.317 OA
ATOM     14  H32 UNL     1      30.468  58.823  94.931  1.00  0.00     0.159 HD
ATOM     15  H31 UNL     1      29.923  59.420  96.483  1.00  0.00     0.159 HD
HETATM   16  C13 UNL     1      29.871  63.180  95.361  1.00  0.00     0.139 A 
HETATM   17  C14 UNL     1      31.150  63.925  95.199  1.00  0.00     0.043 A 
HETATM   18  C15 UNL     1      30.356  63.470  94.037  1.00  0.00     0.056 A 
BRANCH   8  19
HETATM   19  C11 UNL     1      32.398  62.511  93.134  1.00  0.00     0.386 C 
HETATM   20  F2  UNL     1      33.061  61.442  93.722  1.00  0.00    -0.211 F 
HETATM   21  F3  UNL     1      32.880  62.850  91.893  1.00  0.00    -0.211 F 
ENDBRANCH   8  19
ENDBRANCH   6   8
BRANCH   1  22
HETATM   22  N1  UNL     1      28.793  60.274  89.227  1.00  0.00    -0.373 N 
HETATM   23  C4  UNL     1      28.035  60.367  87.956  1.00  0.00     0.126 C 
HETATM   24  C3  UNL     1      26.641  59.893  88.284  1.00  0.00     0.055 C 
HETATM   25  C2  UNL     1      26.524  58.613  89.000  1.00  0.00     0.163 C 
HETATM   26  C19 UNL     1      27.619  58.230  89.917  1.00  0.00     0.145 C 
HETATM   27  C17 UNL     1      28.941  58.904  89.650  1.00  0.00     0.122 C 
HETATM   28  C20 UNL     1      27.845  56.713  89.928  1.00  0.00     0.057 C 
HETATM   29  F4  UNL     1      27.249  58.550  91.209  1.00  0.00    -0.238 F 
HETATM   30  C18 UNL     1      29.939  58.656  90.724  1.00  0.00     0.036 C 
BRANCH  25  31
HETATM   31  O1  UNL     1      26.383  57.590  88.049  1.00  0.00    -0.387 OA
HETATM   32  C1  UNL     1      25.145  57.587  87.445  1.00  0.00     0.202 C 
ENDBRANCH  25  31
ENDBRANCH   1  22
TORSDOF 4
ENDMDL
MODEL 4
REMARK VINA RESULT: -8.376009687      2.170      3.230
REMARK  4 active torsions:
REMARK  status: ('A' for Active; 'I' for Inactive)
REMARK    1  A    between atoms: O1_2  and  C2_3 
REMARK    2  A    between atoms: N1_6  and  C5_7 
REMARK    3  A    between atoms: C9_12  and  C10_13 
REMARK    4  A    between atoms: C10_13  and  C11_14 
ROOT
HETATM    1  C5  UNL     1      28.927  60.649  90.549  1.00  0.00     0.031 A 
HETATM    2  C6  UNL     1      28.668  61.460  89.486  1.00  0.00     0.032 A 
HETATM    3  C7  UNL     1      29.180  62.746  89.484  1.00  0.00     0.045 A 
HETATM    4  C8  UNL     1      29.934  63.204  90.529  1.00  0.00     0.125 A 
HETATM    5  F1  UNL     1      30.448  64.475  90.544  1.00  0.00    -0.205 F 
HETATM    6  C9  UNL     1      30.226  62.403  91.644  1.00  0.00     0.017 A 
HETATM    7  C16 UNL     1      29.696  61.142  91.595  1.00  0.00     0.042 A 
ENDROOT
BRANCH   6   8
HETATM    8  C10 UNL     1      31.061  62.977  92.732  1.00  0.00     0.128 C 
HETATM    9  N2  UNL     1      30.185  63.074  93.888  1.00  0.00    -0.337 N 
HETATM   10  C12 UNL     1      30.183  64.166  94.766  1.00  0.00     0.214 C 
ATOM     11  H2  UNL     1      29.537  62.308  94.069  1.00  0.00     0.164 HD
HETATM   12  N3  UNL     1      29.563  64.179  95.882  1.00  0.00    -0.365 N 
HETATM   13  O2  UNL     1      30.894  65.297  94.405  1.00  0.00    -0.317 OA
ATOM     14  H32 UNL     1      29.039  63.345  96.148  1.00  0.00     0.159 HD
ATOM     15  H31 UNL     1      29.562  64.973  96.522  1.00  0.00     0.159 HD
HETATM   16  C13 UNL     1      31.591  65.411  93.191  1.00  0.00     0.139 A 
HETATM   17  C14 UNL     1      32.898  64.720  93.021  1.00  0.00     0.043 A 
HETATM   18  C15 UNL     1      31.675  64.264  92.326  1.00  0.00     0.056 A 
BRANCH   8  19
HETATM   19  C11 UNL     1      32.160  62.026  93.136  1.00  0.00     0.386 C 
HETATM   20  F2  UNL     1      31.725  61.007  93.973  1.00  0.00    -0.211 F 
HETATM   21  F3  UNL     1      32.928  61.590  92.083  1.00  0.00    -0.211 F 
ENDBRANCH   8  19
ENDBRANCH   6   8
BRANCH   1  22
HETATM   22  N1  UNL     1      28.425  59.352  90.622  1.00  0.00    -0.373 N 
HETATM   23  C4  UNL     1      26.963  59.116  90.570  1.00  0.00     0.126 C 
HETATM   24  C3  UNL     1      26.600  58.541  91.916  1.00  0.00     0.055 C 
HETATM   25  C2  UNL     1      27.409  57.411  92.397  1.00  0.00     0.163 C 
HETATM   26  C19 UNL     1      28.824  57.341  91.973  1.00  0.00     0.145 C 
HETATM   27  C17 UNL     1      29.154  58.112  90.722  1.00  0.00     0.122 C 
HETATM   28  C20 UNL     1      29.288  55.891  91.784  1.00  0.00     0.057 C 
HETATM   29  F4  UNL     1      29.617  57.845  92.987  1.00  0.00    -0.238 F 
HETATM   30  C18 UNL     1      30.616  58.191  90.464  1.00  0.00     0.036 C 
BRANCH  25  31
HETATM   31  O1  UNL     1      26.782  56.221  91.996  1.00  0.00    -0.387 OA
HETATM   32  C1  UNL     1      25.453  56.168  92.357  1.00  0.00     0.202 C 
ENDBRANCH  25  31
ENDBRANCH   1  22
TORSDOF 4
ENDMDL
MODEL 5
REMARK VINA RESULT: -8.311490917      1.925      2.258
REMARK  4 active torsions:
REMARK  status: ('A' for Active; 'I' for Inactive)
REMARK    1  A    between atoms: O1_2  and  C2_3 
REMARK    2  A    between atoms: N1_6  and  C5_7 
REMARK    3  A    between atoms: C9_12  and  C10_13 
REMARK    4  A    between atoms: C10_13  and  C11_14 
ROOT
HETATM    1  C5  UNL     1      29.412  60.946  91.167  1.00  0.00     0.031 A 
HETATM    2  C6  UNL     1      30.269  59.922  91.435  1.00  0.00     0.032 A 
HETATM    3  C7  UNL     1      31.328  60.142  92.298  1.00  0.00     0.045 A 
HETATM    4  C8  UNL     1      31.520  61.367  92.877  1.00  0.00     0.125 A 
HETATM    5  F1  UNL     1      32.565  61.603  93.734  1.00  0.00    -0.205 F 
HETATM    6  C9  UNL     1      30.663  62.450  92.630  1.00  0.00     0.017 A 
HETATM    7  C16 UNL     1      29.633  62.178  91.770  1.00  0.00     0.042 A 
ENDROOT
BRANCH   6   8
HETATM    8  C10 UNL     1      30.939  63.744  93.307  1.00  0.00     0.128 C 
HETATM    9  N2  UNL     1      30.157  64.736  92.589  1.00  0.00    -0.337 N 
HETATM   10  C12 UNL     1      30.630  66.018  92.280  1.00  0.00     0.214 C 
ATOM     11  H2  UNL     1      29.213  64.487  92.295  1.00  0.00     0.164 HD
HETATM   12  N3  UNL     1      29.894  66.957  91.825  1.00  0.00    -0.365 N 
HETATM   13  O2  UNL     1      31.974  66.284  92.478  1.00  0.00    -0.317 OA
ATOM     14  H32 UNL     1      28.904  66.760  91.679  1.00  0.00     0.159 HD
ATOM     15  H31 UNL     1      30.238  67.890  91.601  1.00  0.00     0.159 HD
HETATM   16  C13 UNL     1      32.886  65.324  92.945  1.00  0.00     0.139 A 
HETATM   17  C14 UNL     1      32.902  64.960  94.389  1.00  0.00     0.043 A 
HETATM   18  C15 UNL     1      32.393  64.035  93.353  1.00  0.00     0.056 A 
BRANCH   8  19
HETATM   19  C11 UNL     1      30.403  63.748  94.717  1.00  0.00     0.386 C 
HETATM   20  F2  UNL     1      29.569  64.825  94.985  1.00  0.00    -0.211 F 
HETATM   21  F3  UNL     1      29.891  62.537  95.117  1.00  0.00    -0.211 F 
ENDBRANCH   8  19
ENDBRANCH   6   8
BRANCH   1  22
HETATM   22  N1  UNL     1      28.340  60.795  90.292  1.00  0.00    -0.373 N 
HETATM   23  C4  UNL     1      27.118  60.079  90.729  1.00  0.00     0.126 C 
HETATM   24  C3  UNL     1      27.043  58.847  89.862  1.00  0.00     0.055 C 
HETATM   25  C2  UNL     1      27.177  59.045  88.411  1.00  0.00     0.163 C 
HETATM   26  C19 UNL     1      28.009  60.174  87.940  1.00  0.00     0.145 C 
HETATM   27  C17 UNL     1      28.208  61.282  88.942  1.00  0.00     0.122 C 
HETATM   28  C20 UNL     1      27.455  60.786  86.647  1.00  0.00     0.057 C 
HETATM   29  F4  UNL     1      29.261  59.694  87.605  1.00  0.00    -0.238 F 
HETATM   30  C18 UNL     1      29.222  62.277  88.504  1.00  0.00     0.036 C 
BRANCH  25  31
HETATM   31  O1  UNL     1      25.892  59.205  87.869  1.00  0.00    -0.387 OA
HETATM   32  C1  UNL     1      25.318  58.010  87.492  1.00  0.00     0.202 C 
ENDBRANCH  25  31
ENDBRANCH   1  22
TORSDOF 4
ENDMDL
