MODEL 1
REMARK VINA RESULT: -8.442987589      0.000      0.000
REMARK  9 active torsions:
REMARK  status: ('A' for Active; 'I' for Inactive)
REMARK    1  A    between atoms: C2_2  and  C3_3 
REMARK    2  A    between atoms: C3_3  and  C5_5 
REMARK    3  A    between atoms: C3_3  and  C13_14 
REMARK    4  A    between atoms: C5_5  and  C6_6 
REMARK    5  A    between atoms: C6_6  and  O1_7 
REMARK    6  A    between atoms: O1_7  and  C7_8 
REMARK    7  A    between atoms: C13_14  and  C14_15 
REMARK    8  A    between atoms: C14_15  and  O2_16 
REMARK    9  A    between atoms: C14_15  and  C15_18 
ROOT
HETATM    1  C3  UNL     1      18.860  40.454  18.146  1.00  0.00    -0.040 C 
HETATM    2  C4  UNL     1      20.144  41.146  18.555  1.00  0.00     0.015 C 
ENDROOT
BRANCH   1   3
HETATM    3  C2  UNL     1      18.647  40.816  16.690  1.00  0.00     0.005 C 
HETATM    4  C1  UNL     1      17.262  41.222  16.344  1.00  0.00     0.006 C 
ENDBRANCH   1   3
BRANCH   1   5
HETATM    5  C5  UNL     1      18.962  38.973  18.262  1.00  0.00     0.035 C 
BRANCH   5   6
HETATM    6  C6  UNL     1      20.346  38.555  18.665  1.00  0.00     0.169 C 
BRANCH   6   7
HETATM    7  O1  UNL     1      20.311  37.427  19.514  1.00  0.00    -0.386 OA
BRANCH   7   8
HETATM    8  C7  UNL     1      19.403  36.553  18.976  1.00  0.00     0.121 C 
HETATM    9  C8  UNL     1      20.064  35.469  18.135  1.00  0.00     0.032 C 
HETATM   10  C9  UNL     1      18.936  34.848  17.302  1.00  0.00     0.002 C 
HETATM   11  C10 UNL     1      18.001  34.153  18.267  1.00  0.00     0.000 C 
HETATM   12  C11 UNL     1      17.449  35.134  19.270  1.00  0.00     0.002 C 
HETATM   13  C12 UNL     1      18.571  35.838  20.015  1.00  0.00     0.032 C 
ENDBRANCH   7   8
ENDBRANCH   6   7
ENDBRANCH   5   6
ENDBRANCH   1   5
BRANCH   1  14
HETATM   14  C13 UNL     1      17.661  40.983  18.881  1.00  0.00     0.041 C 
BRANCH  14  15
HETATM   15  C14 UNL     1      17.936  41.518  20.242  1.00  0.00     0.126 C 
BRANCH  15  16
HETATM   16  O2  UNL     1      17.635  42.846  20.419  1.00  0.00    -0.395 OA
ATOM     17  H2  UNL     1      18.120  43.282  21.110  1.00  0.00     0.210 HD
ENDBRANCH  15  16
BRANCH  15  18
HETATM   18  C15 UNL     1      17.094  40.733  21.228  1.00  0.00    -0.025 C 
HETATM   19  C16 UNL     1      17.215  41.394  22.568  1.00  0.00     0.017 C 
HETATM   20  C17 UNL     1      15.619  40.775  20.823  1.00  0.00     0.017 C 
HETATM   21  C18 UNL     1      17.555  39.289  21.329  1.00  0.00     0.017 C 
ENDBRANCH  15  18
ENDBRANCH  14  15
ENDBRANCH   1  14
TORSDOF 9
ENDMDL
MODEL 2
REMARK VINA RESULT: -8.405423260      2.184      4.902
REMARK  9 active torsions:
REMARK  status: ('A' for Active; 'I' for Inactive)
REMARK    1  A    between atoms: C2_2  and  C3_3 
REMARK    2  A    between atoms: C3_3  and  C5_5 
REMARK    3  A    between atoms: C3_3  and  C13_14 
REMARK    4  A    between atoms: C5_5  and  C6_6 
REMARK    5  A    between atoms: C6_6  and  O1_7 
REMARK    6  A    between atoms: O1_7  and  C7_8 
REMARK    7  A    between atoms: C13_14  and  C14_15 
REMARK    8  A    between atoms: C14_15  and  O2_16 
REMARK    9  A    between atoms: C14_15  and  C15_18 
ROOT
HETATM    1  C3  UNL     1      18.901  37.799  20.324  1.00  0.00    -0.040 C 
HETATM    2  C4  UNL     1      17.812  36.987  19.657  1.00  0.00     0.015 C 
ENDROOT
BRANCH   1   3
HETATM    3  C2  UNL     1      18.834  37.442  21.796  1.00  0.00     0.005 C 
HETATM    4  C1  UNL     1      18.337  36.073  22.084  1.00  0.00     0.006 C 
ENDBRANCH   1   3
BRANCH   1   5
HETATM    5  C5  UNL     1      20.254  37.451  19.809  1.00  0.00     0.035 C 
BRANCH   5   6
HETATM    6  C6  UNL     1      20.437  37.935  18.400  1.00  0.00     0.169 C 
BRANCH   6   7
HETATM    7  O1  UNL     1      21.790  37.852  18.004  1.00  0.00    -0.386 OA
BRANCH   7   8
HETATM    8  C7  UNL     1      22.239  39.139  17.853  1.00  0.00     0.121 C 
HETATM    9  C8  UNL     1      23.225  39.281  16.701  1.00  0.00     0.032 C 
HETATM   10  C9  UNL     1      23.920  40.631  16.917  1.00  0.00     0.002 C 
HETATM   11  C10 UNL     1      22.869  41.705  16.739  1.00  0.00     0.000 C 
HETATM   12  C11 UNL     1      21.746  41.517  17.726  1.00  0.00     0.002 C 
HETATM   13  C12 UNL     1      21.132  40.133  17.593  1.00  0.00     0.032 C 
ENDBRANCH   7   8
ENDBRANCH   6   7
ENDBRANCH   5   6
ENDBRANCH   1   5
BRANCH   1  14
HETATM   14  C13 UNL     1      18.646  39.278  20.248  1.00  0.00     0.041 C 
BRANCH  14  15
HETATM   15  C14 UNL     1      17.236  39.665  19.971  1.00  0.00     0.126 C 
BRANCH  15  16
HETATM   16  O2  UNL     1      16.435  39.786  21.081  1.00  0.00    -0.395 OA
ATOM     17  H2  UNL     1      15.537  40.043  20.905  1.00  0.00     0.210 HD
ENDBRANCH  15  16
BRANCH  15  18
HETATM   18  C15 UNL     1      17.252  41.016  19.283  1.00  0.00    -0.025 C 
HETATM   19  C16 UNL     1      18.556  41.682  19.603  1.00  0.00     0.017 C 
HETATM   20  C17 UNL     1      17.181  40.841  17.764  1.00  0.00     0.017 C 
HETATM   21  C18 UNL     1      16.103  41.893  19.751  1.00  0.00     0.017 C 
ENDBRANCH  15  18
ENDBRANCH  14  15
ENDBRANCH   1  14
TORSDOF 9
ENDMDL
MODEL 3
REMARK VINA RESULT: -8.255658334      1.825      3.808
REMARK  9 active torsions:
REMARK  status: ('A' for Active; 'I' for Inactive)
REMARK    1  A    between atoms: C2_2  and  C3_3 
REMARK    2  A    between atoms: C3_3  and  C5_5 
REMARK    3  A    between atoms: C3_3  and  C13_14 
REMARK    4  A    between atoms: C5_5  and  C6_6 
REMARK    5  A    between atoms: C6_6  and  O1_7 
REMARK    6  A    between atoms: O1_7  and  C7_8 
REMARK    7  A    between atoms: C13_14  and  C14_15 
REMARK    8  A    between atoms: C14_15  and  O2_16 
REMARK    9  A    between atoms: C14_15  and  C15_18 
ROOT
HETATM    1  C3  UNL     1      18.329  40.187  18.385  1.00  0.00    -0.040 C 
HETATM    2  C4  UNL     1      17.205  40.926  17.689  1.00  0.00     0.015 C 
ENDROOT
BRANCH   1   3
HETATM    3  C2  UNL     1      18.758  41.082  19.531  1.00  0.00     0.005 C 
HETATM    4  C1  UNL     1      17.700  41.990  20.044  1.00  0.00     0.006 C 
ENDBRANCH   1   3
BRANCH   1   5
HETATM    5  C5  UNL     1      17.880  38.881  18.940  1.00  0.00     0.035 C 
BRANCH   5   6
HETATM    6  C6  UNL     1      18.597  38.559  20.219  1.00  0.00     0.169 C 
BRANCH   6   7
HETATM    7  O1  UNL     1      19.495  37.484  20.044  1.00  0.00    -0.386 OA
BRANCH   7   8
HETATM    8  C7  UNL     1      18.840  36.535  19.304  1.00  0.00     0.121 C 
HETATM    9  C8  UNL     1      19.780  35.746  18.403  1.00  0.00     0.032 C 
HETATM   10  C9  UNL     1      18.879  35.041  17.381  1.00  0.00     0.002 C 
HETATM   11  C10 UNL     1      18.045  34.035  18.144  1.00  0.00     0.000 C 
HETATM   12  C11 UNL     1      17.221  34.722  19.202  1.00  0.00     0.002 C 
HETATM   13  C12 UNL     1      18.105  35.519  20.147  1.00  0.00     0.032 C 
ENDBRANCH   7   8
ENDBRANCH   6   7
ENDBRANCH   5   6
ENDBRANCH   1   5
BRANCH   1  14
HETATM   14  C13 UNL     1      19.542  40.028  17.512  1.00  0.00     0.041 C 
BRANCH  14  15
HETATM   15  C14 UNL     1      20.846  40.244  18.193  1.00  0.00     0.126 C 
BRANCH  15  16
HETATM   16  O2  UNL     1      21.577  39.104  18.431  1.00  0.00    -0.395 OA
ATOM     17  H2  UNL     1      22.318  39.214  19.015  1.00  0.00     0.210 HD
ENDBRANCH  15  16
BRANCH  15  18
HETATM   18  C15 UNL     1      21.690  41.138  17.306  1.00  0.00    -0.025 C 
HETATM   19  C16 UNL     1      20.966  41.316  16.007  1.00  0.00     0.017 C 
HETATM   20  C17 UNL     1      21.850  42.521  17.942  1.00  0.00     0.017 C 
HETATM   21  C18 UNL     1      23.060  40.533  17.047  1.00  0.00     0.017 C 
ENDBRANCH  15  18
ENDBRANCH  14  15
ENDBRANCH   1  14
TORSDOF 9
ENDMDL
MODEL 4
REMARK VINA RESULT: -8.191701899      1.482      3.635
REMARK  9 active torsions:
REMARK  status: ('A' for Active; 'I' for Inactive)
REMARK    1  A    between atoms: C2_2  and  C3_3 
REMARK    2  A    between atoms: C3_3  and  C5_5 
REMARK    3  A    between atoms: C3_3  and  C13_14 
REMARK    4  A    between atoms: C5_5  and  C6_6 
REMARK    5  A    between atoms: C6_6  and  O1_7 
REMARK    6  A    between atoms: O1_7  and  C7_8 
REMARK    7  A    between atoms: C13_14  and  C14_15 
REMARK    8  A    between atoms: C14_15  and  O2_16 
REMARK    9  A    between atoms: C14_15  and  C15_18 
ROOT
HETATM    1  C3  UNL     1      17.262  40.050  19.941  1.00  0.00    -0.040 C 
HETATM    2  C4  UNL     1      15.795  40.319  19.679  1.00  0.00     0.015 C 
ENDROOT
BRANCH   1   3
HETATM    3  C2  UNL     1      17.496  40.432  21.389  1.00  0.00     0.005 C 
HETATM    4  C1  UNL     1      16.440  41.287  21.987  1.00  0.00     0.006 C 
ENDBRANCH   1   3
BRANCH   1   5
HETATM    5  C5  UNL     1      17.607  38.612  19.764  1.00  0.00     0.035 C 
BRANCH   5   6
HETATM    6  C6  UNL     1      18.370  38.088  20.946  1.00  0.00     0.169 C 
BRANCH   6   7
HETATM    7  O1  UNL     1      18.246  36.685  21.052  1.00  0.00    -0.386 OA
BRANCH   7   8
HETATM    8  C7  UNL     1      18.502  36.169  19.808  1.00  0.00     0.121 C 
HETATM    9  C8  UNL     1      19.958  35.760  19.635  1.00  0.00     0.032 C 
HETATM   10  C9  UNL     1      20.164  35.597  18.124  1.00  0.00     0.002 C 
HETATM   11  C10 UNL     1      19.317  34.423  17.684  1.00  0.00     0.000 C 
HETATM   12  C11 UNL     1      17.864  34.667  18.004  1.00  0.00     0.002 C 
HETATM   13  C12 UNL     1      17.674  34.946  19.486  1.00  0.00     0.032 C 
ENDBRANCH   7   8
ENDBRANCH   6   7
ENDBRANCH   5   6
ENDBRANCH   1   5
BRANCH   1  14
HETATM   14  C13 UNL     1      18.165  40.937  19.131  1.00  0.00     0.041 C 
BRANCH  14  15
HETATM   15  C14 UNL     1      18.578  40.385  17.812  1.00  0.00     0.126 C 
BRANCH  15  16
HETATM   16  O2  UNL     1      17.948  40.940  16.724  1.00  0.00    -0.395 OA
ATOM     17  H2  UNL     1      17.243  40.419  16.356  1.00  0.00     0.210 HD
ENDBRANCH  15  16
BRANCH  15  18
HETATM   18  C15 UNL     1      20.063  40.641  17.646  1.00  0.00    -0.025 C 
HETATM   19  C16 UNL     1      20.451  41.739  18.590  1.00  0.00     0.017 C 
HETATM   20  C17 UNL     1      20.864  39.395  18.030  1.00  0.00     0.017 C 
HETATM   21  C18 UNL     1      20.402  41.049  16.223  1.00  0.00     0.017 C 
ENDBRANCH  15  18
ENDBRANCH  14  15
ENDBRANCH   1  14
TORSDOF 9
ENDMDL
MODEL 5
REMARK VINA RESULT: -8.140654021      2.072      5.135
REMARK  9 active torsions:
REMARK  status: ('A' for Active; 'I' for Inactive)
REMARK    1  A    between atoms: C2_2  and  C3_3 
REMARK    2  A    between atoms: C3_3  and  C5_5 
REMARK    3  A    between atoms: C3_3  and  C13_14 
REMARK    4  A    between atoms: C5_5  and  C6_6 
REMARK    5  A    between atoms: C6_6  and  O1_7 
REMARK    6  A    between atoms: O1_7  and  C7_8 
REMARK    7  A    between atoms: C13_14  and  C14_15 
REMARK    8  A    between atoms: C14_15  and  O2_16 
REMARK    9  A    between atoms: C14_15  and  C15_18 
ROOT
HETATM    1  C3  UNL     1      17.679  40.325  20.281  1.00  0.00    -0.040 C 
HETATM    2  C4  UNL     1      17.354  40.809  21.678  1.00  0.00     0.015 C 
ENDROOT
BRANCH   1   3
HETATM    3  C2  UNL     1      16.363  39.855  19.694  1.00  0.00     0.005 C 
HETATM    4  C1  UNL     1      15.184  40.678  20.066  1.00  0.00     0.006 C 
ENDBRANCH   1   3
BRANCH   1   5
HETATM    5  C5  UNL     1      18.222  41.416  19.424  1.00  0.00     0.035 C 
BRANCH   5   6
HETATM    6  C6  UNL     1      19.596  41.078  18.923  1.00  0.00     0.169 C 
BRANCH   6   7
HETATM    7  O1  UNL     1      19.590  40.856  17.528  1.00  0.00    -0.386 OA
BRANCH   7   8
HETATM    8  C7  UNL     1      20.897  40.707  17.145  1.00  0.00     0.121 C 
HETATM    9  C8  UNL     1      21.730  41.953  17.415  1.00  0.00     0.032 C 
HETATM   10  C9  UNL     1      23.009  41.782  16.586  1.00  0.00     0.002 C 
HETATM   11  C10 UNL     1      23.763  40.608  17.170  1.00  0.00     0.000 C 
HETATM   12  C11 UNL     1      22.922  39.358  17.120  1.00  0.00     0.002 C 
HETATM   13  C12 UNL     1      21.600  39.565  17.841  1.00  0.00     0.032 C 
ENDBRANCH   7   8
ENDBRANCH   6   7
ENDBRANCH   5   6
ENDBRANCH   1   5
BRANCH   1  14
HETATM   14  C13 UNL     1      18.582  39.124  20.281  1.00  0.00     0.041 C 
BRANCH  14  15
HETATM   15  C14 UNL     1      18.151  38.007  19.398  1.00  0.00     0.126 C 
BRANCH  15  16
HETATM   16  O2  UNL     1      18.713  38.003  18.144  1.00  0.00    -0.395 OA
ATOM     17  H2  UNL     1      18.897  37.142  17.786  1.00  0.00     0.210 HD
ENDBRANCH  15  16
BRANCH  15  18
HETATM   18  C15 UNL     1      18.548  36.706  20.069  1.00  0.00    -0.025 C 
HETATM   19  C16 UNL     1      20.012  36.492  19.832  1.00  0.00     0.017 C 
HETATM   20  C17 UNL     1      18.332  36.798  21.581  1.00  0.00     0.017 C 
HETATM   21  C18 UNL     1      17.764  35.530  19.511  1.00  0.00     0.017 C 
ENDBRANCH  15  18
ENDBRANCH  14  15
ENDBRANCH   1  14
TORSDOF 9
ENDMDL
