MODEL 1
REMARK VINA RESULT: -8.005373698      0.000      0.000
REMARK  10 active torsions:
REMARK  status: ('A' for Active; 'I' for Inactive)
REMARK    1  A    between atoms: C2_2  and  C3_3 
REMARK    2  A    between atoms: C2_2  and  C14_16 
REMARK    3  A    between atoms: C3_3  and  C4_4 
REMARK    4  A    between atoms: C4_4  and  C5_5 
REMARK    5  A    between atoms: C5_5  and  C6_6 
REMARK    6  A    between atoms: C7_7  and  C8_8 
REMARK    7  A    between atoms: C7_7  and  C10_12 
REMARK    8  A    between atoms: C8_8  and  C9_9 
REMARK    9  A    between atoms: C9_9  and  O1_10 
REMARK   10  A    between atoms: C14_16  and  C15_17 
ROOT
HETATM    1  C5  UNL     1      20.959  37.678  18.579  1.00  0.00    -0.026 C 
ENDROOT
BRANCH   1   2
HETATM    2  C4  UNL     1      19.773  37.036  19.125  1.00  0.00     0.027 C 
BRANCH   2   3
HETATM    3  C3  UNL     1      18.529  37.821  19.310  1.00  0.00     0.008 C 
BRANCH   3   4
HETATM    4  C2  UNL     1      18.312  38.666  20.512  1.00  0.00    -0.018 C 
HETATM    5  C1  UNL     1      18.711  38.054  21.774  1.00  0.00     0.010 C 
BRANCH   4   6
HETATM    6  C14 UNL     1      16.969  39.296  20.384  1.00  0.00     0.012 C 
BRANCH   6   7
HETATM    7  C15 UNL     1      16.802  40.675  19.978  1.00  0.00    -0.051 C 
HETATM    8  C16 UNL     1      16.950  40.962  18.507  1.00  0.00     0.014 C 
HETATM    9  C17 UNL     1      15.300  41.013  20.261  1.00  0.00     0.014 C 
HETATM   10  C18 UNL     1      17.550  41.678  20.808  1.00  0.00     0.014 C 
ENDBRANCH   6   7
ENDBRANCH   4   6
ENDBRANCH   3   4
ENDBRANCH   2   3
ENDBRANCH   1   2
BRANCH   1  11
HETATM   11  C6  UNL     1      20.988  39.088  18.180  1.00  0.00    -0.001 C 
HETATM   12  C7  UNL     1      21.842  39.935  17.703  1.00  0.00    -0.071 C 
BRANCH  12  13
HETATM   13  C8  UNL     1      23.239  39.627  17.395  1.00  0.00     0.061 C 
BRANCH  13  14
HETATM   14  C9  UNL     1      23.556  38.743  16.243  1.00  0.00     0.168 C 
BRANCH  14  15
HETATM   15  O1  UNL     1      23.625  37.410  16.391  1.00  0.00    -0.401 OA
ATOM     16  H1  UNL     1      24.446  36.946  16.281  1.00  0.00     0.209 HD
ENDBRANCH  14  15
ENDBRANCH  13  14
ENDBRANCH  12  13
BRANCH  12  17
HETATM   17  C10 UNL     1      21.356  41.334  17.371  1.00  0.00    -0.028 C 
HETATM   18  C11 UNL     1      20.394  41.283  16.223  1.00  0.00     0.019 C 
HETATM   19  C12 UNL     1      20.454  41.767  18.558  1.00  0.00     0.019 C 
HETATM   20  C13 UNL     1      22.444  42.292  17.200  1.00  0.00     0.019 C 
ENDBRANCH  12  17
ENDBRANCH   1  11
TORSDOF 10
ENDMDL
MODEL 2
REMARK VINA RESULT: -7.798271433      3.354      5.598
REMARK  10 active torsions:
REMARK  status: ('A' for Active; 'I' for Inactive)
REMARK    1  A    between atoms: C2_2  and  C3_3 
REMARK    2  A    between atoms: C2_2  and  C14_16 
REMARK    3  A    between atoms: C3_3  and  C4_4 
REMARK    4  A    between atoms: C4_4  and  C5_5 
REMARK    5  A    between atoms: C5_5  and  C6_6 
REMARK    6  A    between atoms: C7_7  and  C8_8 
REMARK    7  A    between atoms: C7_7  and  C10_12 
REMARK    8  A    between atoms: C8_8  and  C9_9 
REMARK    9  A    between atoms: C9_9  and  O1_10 
REMARK   10  A    between atoms: C14_16  and  C15_17 
ROOT
HETATM    1  C5  UNL     1      18.704  37.399  20.988  1.00  0.00    -0.026 C 
ENDROOT
BRANCH   1   2
HETATM    2  C4  UNL     1      18.246  36.049  20.691  1.00  0.00     0.027 C 
BRANCH   2   3
HETATM    3  C3  UNL     1      17.785  35.712  19.323  1.00  0.00     0.008 C 
BRANCH   3   4
HETATM    4  C2  UNL     1      18.249  34.485  18.625  1.00  0.00    -0.018 C 
HETATM    5  C1  UNL     1      19.443  34.658  17.807  1.00  0.00     0.010 C 
BRANCH   4   6
HETATM    6  C14 UNL     1      17.050  33.810  18.055  1.00  0.00     0.012 C 
BRANCH   6   7
HETATM    7  C15 UNL     1      16.516  32.588  18.617  1.00  0.00    -0.051 C 
HETATM    8  C16 UNL     1      15.633  32.738  19.828  1.00  0.00     0.014 C 
HETATM    9  C17 UNL     1      15.542  32.021  17.531  1.00  0.00     0.014 C 
HETATM   10  C18 UNL     1      17.516  31.484  18.803  1.00  0.00     0.014 C 
ENDBRANCH   6   7
ENDBRANCH   4   6
ENDBRANCH   3   4
ENDBRANCH   2   3
ENDBRANCH   1   2
BRANCH   1  11
HETATM   11  C6  UNL     1      18.149  38.588  20.335  1.00  0.00    -0.001 C 
HETATM   12  C7  UNL     1      18.319  39.249  19.235  1.00  0.00    -0.071 C 
BRANCH  12  13
HETATM   13  C8  UNL     1      19.284  38.898  18.193  1.00  0.00     0.061 C 
BRANCH  13  14
HETATM   14  C9  UNL     1      20.722  39.214  18.392  1.00  0.00     0.168 C 
BRANCH  14  15
HETATM   15  O1  UNL     1      21.572  38.297  18.883  1.00  0.00    -0.401 OA
ATOM     16  H1  UNL     1      21.627  38.130  19.816  1.00  0.00     0.209 HD
ENDBRANCH  14  15
ENDBRANCH  13  14
ENDBRANCH  12  13
BRANCH  12  17
HETATM   17  C10 UNL     1      17.411  40.434  18.962  1.00  0.00    -0.028 C 
HETATM   18  C11 UNL     1      16.048  40.177  19.532  1.00  0.00     0.019 C 
HETATM   19  C12 UNL     1      17.943  41.593  19.848  1.00  0.00     0.019 C 
HETATM   20  C13 UNL     1      17.409  40.842  17.562  1.00  0.00     0.019 C 
ENDBRANCH  12  17
ENDBRANCH   1  11
TORSDOF 10
ENDMDL
MODEL 3
REMARK VINA RESULT: -7.638652735      1.906      5.453
REMARK  10 active torsions:
REMARK  status: ('A' for Active; 'I' for Inactive)
REMARK    1  A    between atoms: C2_2  and  C3_3 
REMARK    2  A    between atoms: C2_2  and  C14_16 
REMARK    3  A    between atoms: C3_3  and  C4_4 
REMARK    4  A    between atoms: C4_4  and  C5_5 
REMARK    5  A    between atoms: C5_5  and  C6_6 
REMARK    6  A    between atoms: C7_7  and  C8_8 
REMARK    7  A    between atoms: C7_7  and  C10_12 
REMARK    8  A    between atoms: C8_8  and  C9_9 
REMARK    9  A    between atoms: C9_9  and  O1_10 
REMARK   10  A    between atoms: C14_16  and  C15_17 
ROOT
HETATM    1  C5  UNL     1      19.584  38.004  18.577  1.00  0.00    -0.026 C 
ENDROOT
BRANCH   1   2
HETATM    2  C4  UNL     1      21.002  38.190  18.847  1.00  0.00     0.027 C 
BRANCH   2   3
HETATM    3  C3  UNL     1      21.990  38.007  17.758  1.00  0.00     0.008 C 
BRANCH   3   4
HETATM    4  C2  UNL     1      22.547  39.162  17.008  1.00  0.00    -0.018 C 
HETATM    5  C1  UNL     1      23.821  38.909  16.347  1.00  0.00     0.010 C 
BRANCH   4   6
HETATM    6  C14 UNL     1      22.378  40.374  17.856  1.00  0.00     0.012 C 
BRANCH   6   7
HETATM    7  C15 UNL     1      21.655  41.540  17.396  1.00  0.00    -0.051 C 
HETATM    8  C16 UNL     1      20.760  41.345  16.201  1.00  0.00     0.014 C 
HETATM    9  C17 UNL     1      20.650  41.886  18.545  1.00  0.00     0.014 C 
HETATM   10  C18 UNL     1      22.479  42.788  17.264  1.00  0.00     0.014 C 
ENDBRANCH   6   7
ENDBRANCH   4   6
ENDBRANCH   3   4
ENDBRANCH   2   3
ENDBRANCH   1   2
BRANCH   1  11
HETATM   11  C6  UNL     1      18.585  39.050  18.815  1.00  0.00    -0.001 C 
HETATM   12  C7  UNL     1      17.888  39.507  19.806  1.00  0.00    -0.071 C 
BRANCH  12  13
HETATM   13  C8  UNL     1      17.945  38.989  21.174  1.00  0.00     0.061 C 
BRANCH  13  14
HETATM   14  C9  UNL     1      18.271  37.557  21.401  1.00  0.00     0.168 C 
BRANCH  14  15
HETATM   15  O1  UNL     1      19.023  37.174  22.446  1.00  0.00    -0.401 OA
ATOM     16  H1  UNL     1      19.966  37.289  22.439  1.00  0.00     0.209 HD
ENDBRANCH  14  15
ENDBRANCH  13  14
ENDBRANCH  12  13
BRANCH  12  17
HETATM   17  C10 UNL     1      16.996  40.709  19.562  1.00  0.00    -0.028 C 
HETATM   18  C11 UNL     1      17.595  41.929  20.197  1.00  0.00     0.019 C 
HETATM   19  C12 UNL     1      17.104  41.022  18.045  1.00  0.00     0.019 C 
HETATM   20  C13 UNL     1      15.602  40.470  19.920  1.00  0.00     0.019 C 
ENDBRANCH  12  17
ENDBRANCH   1  11
TORSDOF 10
ENDMDL
MODEL 4
REMARK VINA RESULT: -7.600559292      3.641      6.195
REMARK  10 active torsions:
REMARK  status: ('A' for Active; 'I' for Inactive)
REMARK    1  A    between atoms: C2_2  and  C3_3 
REMARK    2  A    between atoms: C2_2  and  C14_16 
REMARK    3  A    between atoms: C3_3  and  C4_4 
REMARK    4  A    between atoms: C4_4  and  C5_5 
REMARK    5  A    between atoms: C5_5  and  C6_6 
REMARK    6  A    between atoms: C7_7  and  C8_8 
REMARK    7  A    between atoms: C7_7  and  C10_12 
REMARK    8  A    between atoms: C8_8  and  C9_9 
REMARK    9  A    between atoms: C9_9  and  O1_10 
REMARK   10  A    between atoms: C14_16  and  C15_17 
ROOT
HETATM    1  C5  UNL     1      18.447  37.506  20.554  1.00  0.00    -0.026 C 
ENDROOT
BRANCH   1   2
HETATM    2  C4  UNL     1      18.186  36.684  19.382  1.00  0.00     0.027 C 
BRANCH   2   3
HETATM    3  C3  UNL     1      17.814  35.259  19.549  1.00  0.00     0.008 C 
BRANCH   3   4
HETATM    4  C2  UNL     1      18.059  34.258  18.479  1.00  0.00    -0.018 C 
HETATM    5  C1  UNL     1      18.971  34.694  17.427  1.00  0.00     0.010 C 
BRANCH   4   6
HETATM    6  C14 UNL     1      16.748  33.652  18.119  1.00  0.00     0.012 C 
BRANCH   6   7
HETATM    7  C15 UNL     1      16.331  32.363  18.630  1.00  0.00    -0.051 C 
HETATM    8  C16 UNL     1      15.409  32.381  19.821  1.00  0.00     0.014 C 
HETATM    9  C17 UNL     1      15.446  31.735  17.502  1.00  0.00     0.014 C 
HETATM   10  C18 UNL     1      17.435  31.362  18.808  1.00  0.00     0.014 C 
ENDBRANCH   6   7
ENDBRANCH   4   6
ENDBRANCH   3   4
ENDBRANCH   2   3
ENDBRANCH   1   2
BRANCH   1  11
HETATM   11  C6  UNL     1      17.840  38.826  20.751  1.00  0.00    -0.001 C 
HETATM   12  C7  UNL     1      17.919  40.008  20.232  1.00  0.00    -0.071 C 
BRANCH  12  13
HETATM   13  C8  UNL     1      18.798  40.373  19.121  1.00  0.00     0.061 C 
BRANCH  13  14
HETATM   14  C9  UNL     1      18.391  40.050  17.729  1.00  0.00     0.168 C 
BRANCH  14  15
HETATM   15  O1  UNL     1      19.284  40.058  16.725  1.00  0.00    -0.401 OA
ATOM     16  H1  UNL     1      20.207  40.204  16.892  1.00  0.00     0.209 HD
ENDBRANCH  14  15
ENDBRANCH  13  14
ENDBRANCH  12  13
BRANCH  12  17
HETATM   17  C10 UNL     1      16.991  41.087  20.758  1.00  0.00    -0.028 C 
HETATM   18  C11 UNL     1      17.073  41.150  22.253  1.00  0.00     0.019 C 
HETATM   19  C12 UNL     1      17.615  42.440  20.321  1.00  0.00     0.019 C 
HETATM   20  C13 UNL     1      15.632  40.978  20.236  1.00  0.00     0.019 C 
ENDBRANCH  12  17
ENDBRANCH   1  11
TORSDOF 10
ENDMDL
MODEL 5
REMARK VINA RESULT: -7.579570737      4.007      6.328
REMARK  10 active torsions:
REMARK  status: ('A' for Active; 'I' for Inactive)
REMARK    1  A    between atoms: C2_2  and  C3_3 
REMARK    2  A    between atoms: C2_2  and  C14_16 
REMARK    3  A    between atoms: C3_3  and  C4_4 
REMARK    4  A    between atoms: C4_4  and  C5_5 
REMARK    5  A    between atoms: C5_5  and  C6_6 
REMARK    6  A    between atoms: C7_7  and  C8_8 
REMARK    7  A    between atoms: C7_7  and  C10_12 
REMARK    8  A    between atoms: C8_8  and  C9_9 
REMARK    9  A    between atoms: C9_9  and  O1_10 
REMARK   10  A    between atoms: C14_16  and  C15_17 
ROOT
HETATM    1  C5  UNL     1      18.307  37.578  20.972  1.00  0.00    -0.026 C 
ENDROOT
BRANCH   1   2
HETATM    2  C4  UNL     1      18.240  36.165  20.629  1.00  0.00     0.027 C 
BRANCH   2   3
HETATM    3  C3  UNL     1      17.822  35.757  19.266  1.00  0.00     0.008 C 
BRANCH   3   4
HETATM    4  C2  UNL     1      18.305  34.496  18.648  1.00  0.00    -0.018 C 
HETATM    5  C1  UNL     1      19.549  34.617  17.897  1.00  0.00     0.010 C 
BRANCH   4   6
HETATM    6  C14 UNL     1      17.131  33.815  18.036  1.00  0.00     0.012 C 
BRANCH   6   7
HETATM    7  C15 UNL     1      16.560  32.611  18.600  1.00  0.00    -0.051 C 
HETATM    8  C16 UNL     1      15.615  32.797  19.757  1.00  0.00     0.014 C 
HETATM    9  C17 UNL     1      15.642  32.021  17.477  1.00  0.00     0.014 C 
HETATM   10  C18 UNL     1      17.541  31.506  18.867  1.00  0.00     0.014 C 
ENDBRANCH   6   7
ENDBRANCH   4   6
ENDBRANCH   3   4
ENDBRANCH   2   3
ENDBRANCH   1   2
BRANCH   1  11
HETATM   11  C6  UNL     1      18.461  38.634  19.968  1.00  0.00    -0.001 C 
HETATM   12  C7  UNL     1      17.738  39.563  19.430  1.00  0.00    -0.071 C 
BRANCH  12  13
HETATM   13  C8  UNL     1      16.336  39.824  19.759  1.00  0.00     0.061 C 
BRANCH  13  14
HETATM   14  C9  UNL     1      16.004  40.833  20.797  1.00  0.00     0.168 C 
BRANCH  14  15
HETATM   15  O1  UNL     1      15.585  42.064  20.459  1.00  0.00    -0.401 OA
ATOM     16  H1  UNL     1      14.877  42.487  20.931  1.00  0.00     0.209 HD
ENDBRANCH  14  15
ENDBRANCH  13  14
ENDBRANCH  12  13
BRANCH  12  17
HETATM   17  C10 UNL     1      18.397  40.500  18.434  1.00  0.00    -0.028 C 
HETATM   18  C11 UNL     1      19.044  41.643  19.158  1.00  0.00     0.019 C 
HETATM   19  C12 UNL     1      19.613  39.725  17.857  1.00  0.00     0.019 C 
HETATM   20  C13 UNL     1      17.507  40.903  17.351  1.00  0.00     0.019 C 
ENDBRANCH  12  17
ENDBRANCH   1  11
TORSDOF 10
ENDMDL
