MODEL 1
REMARK VINA RESULT: -7.989751071      0.000      0.000
REMARK  9 active torsions:
REMARK  status: ('A' for Active; 'I' for Inactive)
REMARK    1  A    between atoms: C2_2  and  C3_3 
REMARK    2  A    between atoms: C3_3  and  C4_4 
REMARK    3  A    between atoms: C4_4  and  O1_5 
REMARK    4  A    between atoms: O1_5  and  C5_6 
REMARK    5  A    between atoms: C5_6  and  C6_7 
REMARK    6  A    between atoms: C6_7  and  C7_8 
REMARK    7  A    between atoms: C7_8  and  C8_9 
REMARK    8  A    between atoms: C8_9  and  C10_11 
REMARK    9  A    between atoms: C10_11  and  C11_12 
ROOT
HETATM    1  C5  UNL     1      20.662  37.059  18.936  1.00  0.00     0.168 C 
ENDROOT
BRANCH   1   2
HETATM    2  O1  UNL     1      20.102  37.056  20.161  1.00  0.00    -0.380 OA
BRANCH   2   3
HETATM    3  C4  UNL     1      18.877  36.411  20.318  1.00  0.00     0.061 C 
HETATM    4  C15 UNL     1      18.594  36.155  21.758  1.00  0.00     0.038 C 
HETATM    5  C16 UNL     1      18.727  37.577  22.325  1.00  0.00     0.003 C 
HETATM    6  C17 UNL     1      18.237  38.457  21.217  1.00  0.00     0.003 C 
HETATM    7  C18 UNL     1      17.855  37.517  20.065  1.00  0.00     0.038 C 
BRANCH   3   8
HETATM    8  C3  UNL     1      18.792  35.297  19.380  1.00  0.00     0.038 C 
BRANCH   8   9
HETATM    9  C2  UNL     1      17.537  34.949  18.705  1.00  0.00    -0.002 C 
HETATM   10  C1  UNL     1      16.701  33.899  19.366  1.00  0.00     0.005 C 
ENDBRANCH   8   9
ENDBRANCH   3   8
ENDBRANCH   2   3
ENDBRANCH   1   2
BRANCH   1  11
HETATM   11  C6  UNL     1      21.010  38.489  18.471  1.00  0.00     0.027 C 
BRANCH  11  12
HETATM   12  C7  UNL     1      19.795  39.187  17.984  1.00  0.00     0.006 C 
BRANCH  12  13
HETATM   13  C8  UNL     1      19.970  40.710  18.028  1.00  0.00    -0.018 C 
HETATM   14  C9  UNL     1      19.004  41.294  18.985  1.00  0.00     0.010 C 
BRANCH  13  15
HETATM   15  C10 UNL     1      21.417  40.930  18.268  1.00  0.00     0.012 C 
BRANCH  15  16
HETATM   16  C11 UNL     1      22.236  41.669  17.298  1.00  0.00    -0.051 C 
HETATM   17  C12 UNL     1      23.537  41.028  16.994  1.00  0.00     0.014 C 
HETATM   18  C13 UNL     1      22.418  43.135  17.689  1.00  0.00     0.014 C 
HETATM   19  C14 UNL     1      21.438  41.732  15.977  1.00  0.00     0.014 C 
ENDBRANCH  15  16
ENDBRANCH  13  15
ENDBRANCH  12  13
ENDBRANCH  11  12
ENDBRANCH   1  11
TORSDOF 9
ENDMDL
MODEL 2
REMARK VINA RESULT: -7.891354460      1.936      4.297
REMARK  9 active torsions:
REMARK  status: ('A' for Active; 'I' for Inactive)
REMARK    1  A    between atoms: C2_2  and  C3_3 
REMARK    2  A    between atoms: C3_3  and  C4_4 
REMARK    3  A    between atoms: C4_4  and  O1_5 
REMARK    4  A    between atoms: O1_5  and  C5_6 
REMARK    5  A    between atoms: C5_6  and  C6_7 
REMARK    6  A    between atoms: C6_7  and  C7_8 
REMARK    7  A    between atoms: C7_8  and  C8_9 
REMARK    8  A    between atoms: C8_9  and  C10_11 
REMARK    9  A    between atoms: C10_11  and  C11_12 
ROOT
HETATM    1  C5  UNL     1      20.585  38.245  18.596  1.00  0.00     0.168 C 
ENDROOT
BRANCH   1   2
HETATM    2  O1  UNL     1      19.651  37.304  18.355  1.00  0.00    -0.380 OA
BRANCH   2   3
HETATM    3  C4  UNL     1      19.231  36.511  19.421  1.00  0.00     0.061 C 
HETATM    4  C15 UNL     1      17.966  35.799  19.085  1.00  0.00     0.038 C 
HETATM    5  C16 UNL     1      18.385  35.086  17.789  1.00  0.00     0.003 C 
HETATM    6  C17 UNL     1      19.835  34.775  17.998  1.00  0.00     0.003 C 
HETATM    7  C18 UNL     1      20.192  35.325  19.385  1.00  0.00     0.038 C 
BRANCH   3   8
HETATM    8  C3  UNL     1      19.290  37.288  20.654  1.00  0.00     0.038 C 
BRANCH   8   9
HETATM    9  C2  UNL     1      18.283  37.137  21.711  1.00  0.00    -0.002 C 
HETATM   10  C1  UNL     1      18.528  36.046  22.705  1.00  0.00     0.005 C 
ENDBRANCH   8   9
ENDBRANCH   3   8
ENDBRANCH   2   3
ENDBRANCH   1   2
BRANCH   1  11
HETATM   11  C6  UNL     1      20.295  39.548  17.823  1.00  0.00     0.027 C 
BRANCH  11  12
HETATM   12  C7  UNL     1      19.730  40.577  18.732  1.00  0.00     0.006 C 
BRANCH  12  13
HETATM   13  C8  UNL     1      18.268  40.885  18.388  1.00  0.00    -0.018 C 
HETATM   14  C9  UNL     1      18.010  40.553  16.969  1.00  0.00     0.010 C 
BRANCH  13  15
HETATM   15  C10 UNL     1      17.469  40.194  19.429  1.00  0.00     0.012 C 
BRANCH  15  16
HETATM   16  C11 UNL     1      16.837  40.952  20.518  1.00  0.00    -0.051 C 
HETATM   17  C12 UNL     1      17.312  40.575  21.870  1.00  0.00     0.014 C 
HETATM   18  C13 UNL     1      15.311  40.922  20.438  1.00  0.00     0.014 C 
HETATM   19  C14 UNL     1      17.193  42.441  20.307  1.00  0.00     0.014 C 
ENDBRANCH  15  16
ENDBRANCH  13  15
ENDBRANCH  12  13
ENDBRANCH  11  12
ENDBRANCH   1  11
TORSDOF 9
ENDMDL
MODEL 3
REMARK VINA RESULT: -7.661767543      1.240      6.606
REMARK  9 active torsions:
REMARK  status: ('A' for Active; 'I' for Inactive)
REMARK    1  A    between atoms: C2_2  and  C3_3 
REMARK    2  A    between atoms: C3_3  and  C4_4 
REMARK    3  A    between atoms: C4_4  and  O1_5 
REMARK    4  A    between atoms: O1_5  and  C5_6 
REMARK    5  A    between atoms: C5_6  and  C6_7 
REMARK    6  A    between atoms: C6_7  and  C7_8 
REMARK    7  A    between atoms: C7_8  and  C8_9 
REMARK    8  A    between atoms: C8_9  and  C10_11 
REMARK    9  A    between atoms: C10_11  and  C11_12 
ROOT
HETATM    1  C5  UNL     1      20.985  38.423  18.326  1.00  0.00     0.168 C 
ENDROOT
BRANCH   1   2
HETATM    2  O1  UNL     1      19.912  39.229  18.193  1.00  0.00    -0.380 OA
BRANCH   2   3
HETATM    3  C4  UNL     1      20.134  40.560  17.847  1.00  0.00     0.061 C 
HETATM    4  C15 UNL     1      19.346  40.929  16.636  1.00  0.00     0.038 C 
HETATM    5  C16 UNL     1      17.932  40.539  17.095  1.00  0.00     0.003 C 
HETATM    6  C17 UNL     1      17.939  40.816  18.567  1.00  0.00     0.003 C 
HETATM    7  C18 UNL     1      19.344  41.339  18.895  1.00  0.00     0.038 C 
BRANCH   3   8
HETATM    8  C3  UNL     1      21.567  40.831  17.858  1.00  0.00     0.038 C 
BRANCH   8   9
HETATM    9  C2  UNL     1      22.156  41.907  17.052  1.00  0.00    -0.002 C 
HETATM   10  C1  UNL     1      22.408  43.201  17.760  1.00  0.00     0.005 C 
ENDBRANCH   8   9
ENDBRANCH   3   8
ENDBRANCH   2   3
ENDBRANCH   1   2
BRANCH   1  11
HETATM   11  C6  UNL     1      20.709  37.263  19.306  1.00  0.00     0.027 C 
BRANCH  11  12
HETATM   12  C7  UNL     1      19.393  37.443  19.968  1.00  0.00     0.006 C 
BRANCH  12  13
HETATM   13  C8  UNL     1      18.801  36.099  20.409  1.00  0.00    -0.018 C 
HETATM   14  C9  UNL     1      18.307  36.206  21.800  1.00  0.00     0.010 C 
BRANCH  13  15
HETATM   15  C10 UNL     1      17.836  35.729  19.345  1.00  0.00     0.012 C 
BRANCH  15  16
HETATM   16  C11 UNL     1      18.108  34.601  18.443  1.00  0.00    -0.051 C 
HETATM   17  C12 UNL     1      18.616  35.005  17.111  1.00  0.00     0.014 C 
HETATM   18  C13 UNL     1      16.914  33.656  18.319  1.00  0.00     0.014 C 
HETATM   19  C14 UNL     1      19.202  33.736  19.107  1.00  0.00     0.014 C 
ENDBRANCH  15  16
ENDBRANCH  13  15
ENDBRANCH  12  13
ENDBRANCH  11  12
ENDBRANCH   1  11
TORSDOF 9
ENDMDL
MODEL 4
REMARK VINA RESULT: -7.539596684      1.634      4.073
REMARK  9 active torsions:
REMARK  status: ('A' for Active; 'I' for Inactive)
REMARK    1  A    between atoms: C2_2  and  C3_3 
REMARK    2  A    between atoms: C3_3  and  C4_4 
REMARK    3  A    between atoms: C4_4  and  O1_5 
REMARK    4  A    between atoms: O1_5  and  C5_6 
REMARK    5  A    between atoms: C5_6  and  C6_7 
REMARK    6  A    between atoms: C6_7  and  C7_8 
REMARK    7  A    between atoms: C7_8  and  C8_9 
REMARK    8  A    between atoms: C8_9  and  C10_11 
REMARK    9  A    between atoms: C10_11  and  C11_12 
ROOT
HETATM    1  C5  UNL     1      20.952  37.709  18.561  1.00  0.00     0.168 C 
ENDROOT
BRANCH   1   2
HETATM    2  O1  UNL     1      19.773  37.089  18.355  1.00  0.00    -0.380 OA
BRANCH   2   3
HETATM    3  C4  UNL     1      19.229  36.354  19.406  1.00  0.00     0.061 C 
HETATM    4  C15 UNL     1      17.925  35.749  19.010  1.00  0.00     0.038 C 
HETATM    5  C16 UNL     1      18.349  34.980  17.748  1.00  0.00     0.003 C 
HETATM    6  C17 UNL     1      19.752  34.548  18.040  1.00  0.00     0.003 C 
HETATM    7  C18 UNL     1      20.081  35.089  19.438  1.00  0.00     0.038 C 
BRANCH   3   8
HETATM    8  C3  UNL     1      19.289  37.144  20.632  1.00  0.00     0.038 C 
BRANCH   8   9
HETATM    9  C2  UNL     1      18.260  37.036  21.672  1.00  0.00    -0.002 C 
HETATM   10  C1  UNL     1      18.487  35.992  22.720  1.00  0.00     0.005 C 
ENDBRANCH   8   9
ENDBRANCH   3   8
ENDBRANCH   2   3
ENDBRANCH   1   2
BRANCH   1  11
HETATM   11  C6  UNL     1      20.961  39.130  17.959  1.00  0.00     0.027 C 
BRANCH  11  12
HETATM   12  C7  UNL     1      19.592  39.703  17.956  1.00  0.00     0.006 C 
BRANCH  12  13
HETATM   13  C8  UNL     1      19.501  40.936  18.864  1.00  0.00    -0.018 C 
HETATM   14  C9  UNL     1      20.561  41.902  18.499  1.00  0.00     0.010 C 
BRANCH  13  15
HETATM   15  C10 UNL     1      18.087  41.377  18.781  1.00  0.00     0.012 C 
BRANCH  15  16
HETATM   16  C11 UNL     1      17.098  40.920  19.766  1.00  0.00    -0.051 C 
HETATM   17  C12 UNL     1      17.679  40.557  21.080  1.00  0.00     0.014 C 
HETATM   18  C13 UNL     1      16.212  39.799  19.222  1.00  0.00     0.014 C 
HETATM   19  C14 UNL     1      16.116  42.088  20.007  1.00  0.00     0.014 C 
ENDBRANCH  15  16
ENDBRANCH  13  15
ENDBRANCH  12  13
ENDBRANCH  11  12
ENDBRANCH   1  11
TORSDOF 9
ENDMDL
MODEL 5
REMARK VINA RESULT: -7.448741471      2.185      7.374
REMARK  9 active torsions:
REMARK  status: ('A' for Active; 'I' for Inactive)
REMARK    1  A    between atoms: C2_2  and  C3_3 
REMARK    2  A    between atoms: C3_3  and  C4_4 
REMARK    3  A    between atoms: C4_4  and  O1_5 
REMARK    4  A    between atoms: O1_5  and  C5_6 
REMARK    5  A    between atoms: C5_6  and  C6_7 
REMARK    6  A    between atoms: C6_7  and  C7_8 
REMARK    7  A    between atoms: C7_8  and  C8_9 
REMARK    8  A    between atoms: C8_9  and  C10_11 
REMARK    9  A    between atoms: C10_11  and  C11_12 
ROOT
HETATM    1  C5  UNL     1      18.259  37.934  19.475  1.00  0.00     0.168 C 
ENDROOT
BRANCH   1   2
HETATM    2  O1  UNL     1      18.516  38.907  18.579  1.00  0.00    -0.380 OA
BRANCH   2   3
HETATM    3  C4  UNL     1      17.866  40.129  18.735  1.00  0.00     0.061 C 
HETATM    4  C15 UNL     1      18.802  41.163  19.261  1.00  0.00     0.038 C 
HETATM    5  C16 UNL     1      19.923  41.082  18.213  1.00  0.00     0.003 C 
HETATM    6  C17 UNL     1      19.207  40.750  16.940  1.00  0.00     0.003 C 
HETATM    7  C18 UNL     1      17.720  40.643  17.305  1.00  0.00     0.038 C 
BRANCH   3   8
HETATM    8  C3  UNL     1      16.598  39.918  19.424  1.00  0.00     0.038 C 
BRANCH   8   9
HETATM    9  C2  UNL     1      15.857  41.028  20.035  1.00  0.00    -0.002 C 
HETATM   10  C1  UNL     1      15.583  40.911  21.501  1.00  0.00     0.005 C 
ENDBRANCH   8   9
ENDBRANCH   3   8
ENDBRANCH   2   3
ENDBRANCH   1   2
BRANCH   1  11
HETATM   11  C6  UNL     1      18.702  36.550  18.958  1.00  0.00     0.027 C 
BRANCH  11  12
HETATM   12  C7  UNL     1      17.662  35.531  19.242  1.00  0.00     0.006 C 
BRANCH  12  13
HETATM   13  C8  UNL     1      17.634  34.444  18.160  1.00  0.00    -0.018 C 
HETATM   14  C9  UNL     1      18.779  34.628  17.241  1.00  0.00     0.010 C 
BRANCH  13  15
HETATM   15  C10 UNL     1      17.523  33.162  18.898  1.00  0.00     0.012 C 
BRANCH  15  16
HETATM   16  C11 UNL     1      16.324  32.323  18.770  1.00  0.00    -0.051 C 
HETATM   17  C12 UNL     1      15.689  32.379  17.431  1.00  0.00     0.014 C 
HETATM   18  C13 UNL     1      15.307  32.589  19.878  1.00  0.00     0.014 C 
HETATM   19  C14 UNL     1      16.761  30.859  19.008  1.00  0.00     0.014 C 
ENDBRANCH  15  16
ENDBRANCH  13  15
ENDBRANCH  12  13
ENDBRANCH  11  12
ENDBRANCH   1  11
TORSDOF 9
ENDMDL
