MODEL 1
REMARK VINA RESULT: -6.827566103      0.000      0.000
REMARK  3 active torsions:
REMARK  status: ('A' for Active; 'I' for Inactive)
REMARK    1  A    between atoms: C4_10  and  N4_11 
REMARK    2  A    between atoms: C5_16  and  N6_17 
REMARK    3  A    between atoms: N7_19  and  N8_21 
REMARK       I    between atoms: N8_21  and  C6_23 
ROOT
HETATM    1  C1  UNL     1       6.808  19.075  38.069  1.00  0.00     0.164 C 
HETATM    2  N1  UNL     1       5.512  19.404  37.504  1.00  0.00    -0.270 N 
HETATM    3  C2  UNL     1       5.245  19.343  36.189  1.00  0.00     0.330 A 
HETATM    4  O1  UNL     1       6.193  18.977  35.425  1.00  0.00    -0.246 OA
HETATM    5  N2  UNL     1       4.028  19.654  35.687  1.00  0.00    -0.293 N 
ATOM      6  H2  UNL     1       3.844  19.601  34.686  1.00  0.00     0.172 HD
HETATM    7  C3  UNL     1       3.060  20.039  36.556  1.00  0.00     0.144 A 
HETATM    8  N3  UNL     1       1.831  20.362  36.127  1.00  0.00    -0.176 N 
ATOM      9  H3  UNL     1       1.635  20.314  35.127  1.00  0.00     0.186 HD
HETATM   10  C4  UNL     1       0.847  20.746  36.958  1.00  0.00     0.679 A 
HETATM   11  N5  UNL     1       1.080  20.820  38.300  1.00  0.00    -0.174 N 
ATOM     12  H5  UNL     1       0.336  21.111  38.934  1.00  0.00     0.186 HD
HETATM   13  C5  UNL     1       2.295  20.507  38.780  1.00  0.00     0.156 A 
HETATM   14  C7  UNL     1       3.292  20.114  37.916  1.00  0.00     0.123 A 
HETATM   15  C8  UNL     1       4.548  19.787  38.381  1.00  0.00     0.269 A 
HETATM   16  O3  UNL     1       4.800  19.844  39.615  1.00  0.00    -0.267 OA
ENDROOT
BRANCH  13  17
HETATM   17  N6  UNL     1       2.511  20.592  40.179  1.00  0.00    -0.269 N 
HETATM   18  N7  UNL     1       1.910  21.368  40.946  1.00  0.00    -0.237 N 
ATOM     19  H7  UNL     1       1.204  22.008  40.583  1.00  0.00     0.208 HD
ATOM     20  H6  UNL     1       3.210  19.972  40.587  1.00  0.00     0.190 HD
BRANCH  18  21
HETATM   21  N8  UNL     1       2.215  21.354  42.305  1.00  0.00    -0.239 N 
HETATM   22  C6  UNL     1       1.537  22.209  43.206  1.00  0.00     0.348 C 
HETATM   23  N9  UNL     1       1.876  22.165  44.576  1.00  0.00    -0.038 NA
HETATM   24  O2  UNL     1       0.643  23.012  42.836  1.00  0.00    -0.249 OA
ATOM     25  H8  UNL     1       2.934  20.720  42.653  1.00  0.00     0.193 HD
ENDBRANCH  18  21
ENDBRANCH  13  17
BRANCH  10  26
HETATM   26  N4  UNL     1      -0.332  21.055  36.535  1.00  0.00    -0.234 N 
ATOM     27  H42 UNL     1      -1.008  20.300  36.419  1.00  0.00     0.174 HD
ATOM     28  H41 UNL     1      -0.600  22.015  36.319  1.00  0.00     0.174 HD
ENDBRANCH  10  26
TORSDOF 3
ENDMDL
MODEL 2
REMARK VINA RESULT: -6.729047912      5.054      7.491
REMARK  3 active torsions:
REMARK  status: ('A' for Active; 'I' for Inactive)
REMARK    1  A    between atoms: C4_10  and  N4_11 
REMARK    2  A    between atoms: C5_16  and  N6_17 
REMARK    3  A    between atoms: N7_19  and  N8_21 
REMARK       I    between atoms: N8_21  and  C6_23 
ROOT
HETATM    1  C1  UNL     1       5.513  13.252  41.452  1.00  0.00     0.164 C 
HETATM    2  N1  UNL     1       6.292  13.361  40.232  1.00  0.00    -0.270 N 
HETATM    3  C2  UNL     1       6.862  12.307  39.625  1.00  0.00     0.330 A 
HETATM    4  O1  UNL     1       6.693  11.169  40.167  1.00  0.00    -0.246 OA
HETATM    5  N2  UNL     1       7.583  12.436  38.488  1.00  0.00    -0.293 N 
ATOM      6  H2  UNL     1       8.007  11.623  38.041  1.00  0.00     0.172 HD
HETATM    7  C3  UNL     1       7.726  13.676  37.961  1.00  0.00     0.144 A 
HETATM    8  N3  UNL     1       8.429  13.876  36.836  1.00  0.00    -0.176 N 
ATOM      9  H3  UNL     1       8.859  13.072  36.380  1.00  0.00     0.186 HD
HETATM   10  C4  UNL     1       8.590  15.092  36.284  1.00  0.00     0.679 A 
HETATM   11  N5  UNL     1       8.028  16.186  36.872  1.00  0.00    -0.174 N 
ATOM     12  H5  UNL     1       8.148  17.110  36.457  1.00  0.00     0.186 HD
HETATM   13  C5  UNL     1       7.314  16.039  38.001  1.00  0.00     0.156 A 
HETATM   14  C7  UNL     1       7.157  14.788  38.553  1.00  0.00     0.123 A 
HETATM   15  C8  UNL     1       6.430  14.608  39.711  1.00  0.00     0.269 A 
HETATM   16  O3  UNL     1       5.896  15.597  40.282  1.00  0.00    -0.267 OA
ENDROOT
BRANCH  13  17
HETATM   17  N6  UNL     1       6.740  17.193  38.592  1.00  0.00    -0.269 N 
HETATM   18  N7  UNL     1       6.025  18.019  37.993  1.00  0.00    -0.237 N 
ATOM     19  H7  UNL     1       5.813  17.895  37.003  1.00  0.00     0.208 HD
ATOM     20  H6  UNL     1       6.926  17.359  39.581  1.00  0.00     0.190 HD
BRANCH  18  21
HETATM   21  N8  UNL     1       5.520  19.114  38.690  1.00  0.00    -0.239 N 
HETATM   22  C6  UNL     1       4.352  19.776  38.244  1.00  0.00     0.348 C 
HETATM   23  N9  UNL     1       3.872  20.884  38.979  1.00  0.00    -0.038 NA
HETATM   24  O2  UNL     1       3.721  19.421  37.216  1.00  0.00    -0.249 OA
ATOM     25  H8  UNL     1       5.997  19.441  39.530  1.00  0.00     0.193 HD
ENDBRANCH  18  21
ENDBRANCH  13  17
BRANCH  10  26
HETATM   26  N4  UNL     1       9.268  15.273  35.202  1.00  0.00    -0.234 N 
ATOM     27  H42 UNL     1       8.836  15.815  34.455  1.00  0.00     0.174 HD
ATOM     28  H41 UNL     1      10.208  14.896  35.078  1.00  0.00     0.174 HD
ENDBRANCH  10  26
TORSDOF 3
ENDMDL
MODEL 3
REMARK VINA RESULT: -6.239012697      8.793     11.481
REMARK  3 active torsions:
REMARK  status: ('A' for Active; 'I' for Inactive)
REMARK    1  A    between atoms: C4_10  and  N4_11 
REMARK    2  A    between atoms: C5_16  and  N6_17 
REMARK    3  A    between atoms: N7_19  and  N8_21 
REMARK       I    between atoms: N8_21  and  C6_23 
ROOT
HETATM    1  C1  UNL     1       6.252  11.147  43.781  1.00  0.00     0.164 C 
HETATM    2  N1  UNL     1       6.328  11.824  42.499  1.00  0.00    -0.270 N 
HETATM    3  C2  UNL     1       5.304  12.510  41.967  1.00  0.00     0.330 A 
HETATM    4  O1  UNL     1       4.226  12.552  42.641  1.00  0.00    -0.246 OA
HETATM    5  N2  UNL     1       5.400  13.132  40.770  1.00  0.00    -0.293 N 
ATOM      6  H2  UNL     1       4.611  13.650  40.383  1.00  0.00     0.172 HD
HETATM    7  C3  UNL     1       6.576  13.048  40.101  1.00  0.00     0.144 A 
HETATM    8  N3  UNL     1       6.741  13.641  38.909  1.00  0.00    -0.176 N 
ATOM      9  H3  UNL     1       5.959  14.161  38.510  1.00  0.00     0.186 HD
HETATM   10  C4  UNL     1       7.892  13.580  38.218  1.00  0.00     0.679 A 
HETATM   11  N5  UNL     1       8.955  12.892  38.726  1.00  0.00    -0.174 N 
ATOM     12  H5  UNL     1       9.830  12.842  38.204  1.00  0.00     0.186 HD
HETATM   13  C5  UNL     1       8.841  12.280  39.916  1.00  0.00     0.156 A 
HETATM   14  C7  UNL     1       7.655  12.353  40.612  1.00  0.00     0.123 A 
HETATM   15  C8  UNL     1       7.510  11.735  41.836  1.00  0.00     0.269 A 
HETATM   16  O3  UNL     1       8.471  11.090  42.336  1.00  0.00    -0.267 OA
ENDROOT
BRANCH  13  17
HETATM   17  N6  UNL     1       9.960  11.572  40.421  1.00  0.00    -0.269 N 
HETATM   18  N7  UNL     1      10.897  11.133  39.727  1.00  0.00    -0.237 N 
ATOM     19  H7  UNL     1      10.899  11.270  38.716  1.00  0.00     0.208 HD
ATOM     20  H6  UNL     1      10.001  11.409  41.427  1.00  0.00     0.190 HD
BRANCH  18  21
HETATM   21  N8  UNL     1      11.942  10.452  40.348  1.00  0.00    -0.239 N 
HETATM   22  C6  UNL     1      12.568  10.985  41.500  1.00  0.00     0.348 C 
HETATM   23  N9  UNL     1      13.624  10.264  42.099  1.00  0.00    -0.038 NA
HETATM   24  O2  UNL     1      12.222  12.080  42.014  1.00  0.00    -0.249 OA
ATOM     25  H8  UNL     1      12.259   9.560  39.967  1.00  0.00     0.193 HD
ENDBRANCH  18  21
ENDBRANCH  13  17
BRANCH  10  26
HETATM   26  N4  UNL     1       8.040  14.154  37.072  1.00  0.00    -0.234 N 
ATOM     27  H42 UNL     1       8.725  14.906  37.001  1.00  0.00     0.174 HD
ATOM     28  H41 UNL     1       7.500  13.879  36.251  1.00  0.00     0.174 HD
ENDBRANCH  10  26
TORSDOF 3
ENDMDL
MODEL 4
REMARK VINA RESULT: -6.140163194      5.989      7.893
REMARK  3 active torsions:
REMARK  status: ('A' for Active; 'I' for Inactive)
REMARK    1  A    between atoms: C4_10  and  N4_11 
REMARK    2  A    between atoms: C5_16  and  N6_17 
REMARK    3  A    between atoms: N7_19  and  N8_21 
REMARK       I    between atoms: N8_21  and  C6_23 
ROOT
HETATM    1  C1  UNL     1       6.726  18.591  38.963  1.00  0.00     0.164 C 
HETATM    2  N1  UNL     1       6.975  17.276  38.400  1.00  0.00    -0.270 N 
HETATM    3  C2  UNL     1       7.395  17.082  37.139  1.00  0.00     0.330 A 
HETATM    4  O1  UNL     1       7.574  18.120  36.425  1.00  0.00    -0.246 OA
HETATM    5  N2  UNL     1       7.621  15.847  36.639  1.00  0.00    -0.293 N 
ATOM      6  H2  UNL     1       7.941  15.720  35.679  1.00  0.00     0.172 HD
HETATM    7  C3  UNL     1       7.410  14.782  37.451  1.00  0.00     0.144 A 
HETATM    8  N3  UNL     1       7.614  13.528  37.019  1.00  0.00    -0.176 N 
ATOM      9  H3  UNL     1       7.933  13.388  36.060  1.00  0.00     0.186 HD
HETATM   10  C4  UNL     1       7.417  12.449  37.797  1.00  0.00     0.679 A 
HETATM   11  N5  UNL     1       6.991  12.606  39.082  1.00  0.00    -0.174 N 
ATOM     12  H5  UNL     1       6.839  11.790  39.676  1.00  0.00     0.186 HD
HETATM   13  C5  UNL     1       6.771  13.841  39.563  1.00  0.00     0.156 A 
HETATM   14  C7  UNL     1       6.979  14.936  38.755  1.00  0.00     0.123 A 
HETATM   15  C8  UNL     1       6.762  16.216  39.221  1.00  0.00     0.269 A 
HETATM   16  O3  UNL     1       6.368  16.398  40.405  1.00  0.00    -0.267 OA
ENDROOT
BRANCH  13  17
HETATM   17  N6  UNL     1       6.329  13.976  40.903  1.00  0.00    -0.269 N 
HETATM   18  N7  UNL     1       5.325  13.414  41.381  1.00  0.00    -0.237 N 
ATOM     19  H7  UNL     1       4.751  12.802  40.801  1.00  0.00     0.208 HD
ATOM     20  H6  UNL     1       6.872  14.579  41.521  1.00  0.00     0.190 HD
BRANCH  18  21
HETATM   21  N8  UNL     1       4.997  13.629  42.718  1.00  0.00    -0.239 N 
HETATM   22  C6  UNL     1       5.700  12.963  43.750  1.00  0.00     0.348 C 
HETATM   23  N9  UNL     1       5.335  13.207  45.093  1.00  0.00    -0.038 NA
HETATM   24  O2  UNL     1       6.638  12.156  43.521  1.00  0.00    -0.249 OA
ATOM     25  H8  UNL     1       4.243  14.273  42.954  1.00  0.00     0.193 HD
ENDBRANCH  18  21
ENDBRANCH  13  17
BRANCH  10  26
HETATM   26  N4  UNL     1       7.616  11.248  37.371  1.00  0.00    -0.234 N 
ATOM     27  H42 UNL     1       7.231  10.995  36.462  1.00  0.00     0.174 HD
ATOM     28  H41 UNL     1       8.140  10.558  37.911  1.00  0.00     0.174 HD
ENDBRANCH  10  26
TORSDOF 3
ENDMDL
MODEL 5
REMARK VINA RESULT: -6.056367846      8.244     10.516
REMARK  3 active torsions:
REMARK  status: ('A' for Active; 'I' for Inactive)
REMARK    1  A    between atoms: C4_10  and  N4_11 
REMARK    2  A    between atoms: C5_16  and  N6_17 
REMARK    3  A    between atoms: N7_19  and  N8_21 
REMARK       I    between atoms: N8_21  and  C6_23 
ROOT
HETATM    1  C1  UNL     1      10.782  11.771  40.847  1.00  0.00     0.164 C 
HETATM    2  N1  UNL     1       9.435  11.269  41.051  1.00  0.00    -0.270 N 
HETATM    3  C2  UNL     1       9.118  10.376  42.002  1.00  0.00     0.330 A 
HETATM    4  O1  UNL     1      10.065   9.966  42.747  1.00  0.00    -0.246 OA
HETATM    5  N2  UNL     1       7.855   9.925  42.172  1.00  0.00    -0.293 N 
ATOM      6  H2  UNL     1       7.633   9.247  42.902  1.00  0.00     0.172 HD
HETATM    7  C3  UNL     1       6.891  10.400  41.345  1.00  0.00     0.144 A 
HETATM    8  N3  UNL     1       5.618   9.995  41.458  1.00  0.00    -0.176 N 
ATOM      9  H3  UNL     1       5.383   9.316  42.182  1.00  0.00     0.186 HD
HETATM   10  C4  UNL     1       4.637  10.446  40.656  1.00  0.00     0.679 A 
HETATM   11  N5  UNL     1       4.920  11.353  39.678  1.00  0.00    -0.174 N 
ATOM     12  H5  UNL     1       4.179  11.697  39.067  1.00  0.00     0.186 HD
HETATM   13  C5  UNL     1       6.181  11.791  39.524  1.00  0.00     0.156 A 
HETATM   14  C7  UNL     1       7.174  11.320  40.353  1.00  0.00     0.123 A 
HETATM   15  C8  UNL     1       8.477  11.751  40.218  1.00  0.00     0.269 A 
HETATM   16  O3  UNL     1       8.775  12.590  39.325  1.00  0.00    -0.267 OA
ENDROOT
BRANCH  13  17
HETATM   17  N6  UNL     1       6.448  12.734  38.500  1.00  0.00    -0.269 N 
HETATM   18  N7  UNL     1       6.071  13.921  38.509  1.00  0.00    -0.237 N 
ATOM     19  H7  UNL     1       5.526  14.283  39.292  1.00  0.00     0.208 HD
ATOM     20  H6  UNL     1       6.989  12.416  37.696  1.00  0.00     0.190 HD
BRANCH  18  21
HETATM   21  N8  UNL     1       6.401  14.748  37.438  1.00  0.00    -0.239 N 
HETATM   22  C6  UNL     1       7.301  15.827  37.611  1.00  0.00     0.348 C 
HETATM   23  N9  UNL     1       7.610  16.643  36.500  1.00  0.00    -0.038 NA
HETATM   24  O2  UNL     1       7.839  16.091  38.717  1.00  0.00    -0.249 OA
ATOM     25  H8  UNL     1       5.991  14.574  36.521  1.00  0.00     0.193 HD
ENDBRANCH  18  21
ENDBRANCH  13  17
BRANCH  10  26
HETATM   26  N4  UNL     1       3.415  10.050  40.773  1.00  0.00    -0.234 N 
ATOM     27  H42 UNL     1       2.698  10.558  40.255  1.00  0.00     0.174 HD
ATOM     28  H41 UNL     1       3.152   9.255  41.357  1.00  0.00     0.174 HD
ENDBRANCH  10  26
TORSDOF 3
ENDMDL
