MODEL 1
REMARK VINA RESULT: -6.067998799      0.000      0.000
REMARK  4 active torsions:
REMARK  status: ('A' for Active; 'I' for Inactive)
REMARK    1  A    between atoms: C2_3  and  C3_4 
REMARK    2  A    between atoms: C4_7  and  N3_8 
REMARK    3  A    between atoms: C6_19  and  N7_20 
REMARK    4  A    between atoms: N7_20  and  O1_22 
ROOT
HETATM    1  C3  UNL     1       7.107  13.117  39.280  1.00  0.00     0.166 A 
HETATM    2  N2  UNL     1       7.976  12.639  40.224  1.00  0.00    -0.173 N 
ATOM      3  H2  UNL     1       8.715  13.262  40.550  1.00  0.00     0.186 HD
HETATM    4  C4  UNL     1       7.921  11.419  40.742  1.00  0.00     0.692 A 
HETATM    5  N4  UNL     1       6.957  10.550  40.342  1.00  0.00    -0.023 N 
ATOM      6  H4  UNL     1       6.902   9.609  40.731  1.00  0.00     0.203 HD
HETATM    7  C5  UNL     1       6.084  10.970  39.422  1.00  0.00     0.692 A 
HETATM    8  N5  UNL     1       5.156  10.167  39.023  1.00  0.00    -0.234 N 
ATOM      9  H51 UNL     1       4.489  10.487  38.320  1.00  0.00     0.174 HD
ATOM     10  H52 UNL     1       5.087   9.223  39.403  1.00  0.00     0.174 HD
HETATM   11  N6  UNL     1       6.176  12.235  38.912  1.00  0.00    -0.173 N 
ATOM     12  H6  UNL     1       5.493  12.521  38.210  1.00  0.00     0.186 HD
ENDROOT
BRANCH   1  13
HETATM   13  C2  UNL     1       7.209  14.504  38.838  1.00  0.00     0.118 A 
HETATM   14  N1  UNL     1       7.772  14.840  37.639  1.00  0.00    -0.298 N 
HETATM   15  C1  UNL     1       8.311  13.782  36.821  1.00  0.00     0.161 C 
HETATM   16  C9  UNL     1       7.812  16.132  37.202  1.00  0.00     0.331 A 
HETATM   17  N8  UNL     1       7.307  17.148  37.909  1.00  0.00    -0.269 N 
HETATM   18  O3  UNL     1       8.364  16.323  36.068  1.00  0.00    -0.246 OA
HETATM   19  C7  UNL     1       6.754  16.834  39.081  1.00  0.00     0.282 A 
HETATM   20  C8  UNL     1       7.375  18.502  37.397  1.00  0.00     0.164 C 
HETATM   21  C6  UNL     1       6.689  15.535  39.572  1.00  0.00     0.153 A 
HETATM   22  O2  UNL     1       6.273  17.761  39.766  1.00  0.00    -0.265 OA
BRANCH  21  23
HETATM   23  N7  UNL     1       6.106  15.370  40.878  1.00  0.00    -0.262 N 
ATOM     24  H7  UNL     1       5.103  15.246  41.020  1.00  0.00     0.194 HD
BRANCH  23  25
HETATM   25  O1  UNL     1       6.928  15.391  41.831  1.00  0.00    -0.289 OA
ATOM     26  H1  UNL     1       6.588  15.744  42.644  1.00  0.00     0.244 HD
ENDBRANCH  23  25
ENDBRANCH  21  23
ENDBRANCH   1  13
BRANCH   4  27
HETATM   27  N3  UNL     1       8.741  10.972  41.630  1.00  0.00    -0.234 N 
ATOM     28  H32 UNL     1       8.982  11.624  42.376  1.00  0.00     0.174 HD
ATOM     29  H31 UNL     1       9.143  10.035  41.619  1.00  0.00     0.174 HD
ENDBRANCH   4  27
TORSDOF 4
ENDMDL
MODEL 2
REMARK VINA RESULT: -5.989013949      0.171      1.758
REMARK  4 active torsions:
REMARK  status: ('A' for Active; 'I' for Inactive)
REMARK    1  A    between atoms: C2_3  and  C3_4 
REMARK    2  A    between atoms: C4_7  and  N3_8 
REMARK    3  A    between atoms: C6_19  and  N7_20 
REMARK    4  A    between atoms: N7_20  and  O1_22 
ROOT
HETATM    1  C3  UNL     1       7.221  13.133  39.452  1.00  0.00     0.166 A 
HETATM    2  N2  UNL     1       6.221  12.291  39.048  1.00  0.00    -0.173 N 
ATOM      3  H2  UNL     1       5.494  12.671  38.441  1.00  0.00     0.186 HD
HETATM    4  C4  UNL     1       6.133  11.013  39.393  1.00  0.00     0.692 A 
HETATM    5  N4  UNL     1       7.075  10.458  40.199  1.00  0.00    -0.023 N 
ATOM      6  H4  UNL     1       7.022   9.477  40.473  1.00  0.00     0.203 HD
HETATM    7  C5  UNL     1       8.073  11.240  40.620  1.00  0.00     0.692 A 
HETATM    8  N5  UNL     1       8.983  10.739  41.386  1.00  0.00    -0.234 N 
ATOM      9  H51 UNL     1       9.746  11.336  41.709  1.00  0.00     0.174 HD
ATOM     10  H52 UNL     1       8.944   9.760  41.668  1.00  0.00     0.174 HD
HETATM   11  N6  UNL     1       8.126  12.553  40.242  1.00  0.00    -0.173 N 
ATOM     12  H6  UNL     1       8.902  13.120  40.584  1.00  0.00     0.186 HD
ENDROOT
BRANCH   1  13
HETATM   13  C2  UNL     1       7.266  14.502  38.946  1.00  0.00     0.118 A 
HETATM   14  N1  UNL     1       7.786  14.800  37.717  1.00  0.00    -0.298 N 
HETATM   15  C1  UNL     1       8.338  13.723  36.933  1.00  0.00     0.161 C 
HETATM   16  C9  UNL     1       7.773  16.071  37.222  1.00  0.00     0.331 A 
HETATM   17  N8  UNL     1       7.254  17.102  37.897  1.00  0.00    -0.269 N 
HETATM   18  O3  UNL     1       8.288  16.228  36.066  1.00  0.00    -0.246 OA
HETATM   19  C7  UNL     1       6.742  16.825  39.097  1.00  0.00     0.282 A 
HETATM   20  C8  UNL     1       7.265  18.433  37.324  1.00  0.00     0.164 C 
HETATM   21  C6  UNL     1       6.732  15.548  39.647  1.00  0.00     0.153 A 
HETATM   22  O2  UNL     1       6.250  17.766  39.753  1.00  0.00    -0.265 OA
BRANCH  21  23
HETATM   23  N7  UNL     1       6.189  15.425  40.975  1.00  0.00    -0.262 N 
ATOM     24  H7  UNL     1       5.215  15.176  41.149  1.00  0.00     0.194 HD
BRANCH  23  25
HETATM   25  O1  UNL     1       7.009  15.647  41.904  1.00  0.00    -0.289 OA
ATOM     26  H1  UNL     1       7.764  16.167  41.655  1.00  0.00     0.244 HD
ENDBRANCH  23  25
ENDBRANCH  21  23
ENDBRANCH   1  13
BRANCH   4  27
HETATM   27  N3  UNL     1       5.190  10.223  39.011  1.00  0.00    -0.234 N 
ATOM     28  H32 UNL     1       5.381   9.227  39.112  1.00  0.00     0.174 HD
ATOM     29  H31 UNL     1       4.299  10.538  38.628  1.00  0.00     0.174 HD
ENDBRANCH   4  27
TORSDOF 4
ENDMDL
MODEL 3
REMARK VINA RESULT: -5.949728794      3.213      4.500
REMARK  4 active torsions:
REMARK  status: ('A' for Active; 'I' for Inactive)
REMARK    1  A    between atoms: C2_3  and  C3_4 
REMARK    2  A    between atoms: C4_7  and  N3_8 
REMARK    3  A    between atoms: C6_19  and  N7_20 
REMARK    4  A    between atoms: N7_20  and  O1_22 
ROOT
HETATM    1  C3  UNL     1       5.492  12.682  41.625  1.00  0.00     0.166 A 
HETATM    2  N2  UNL     1       4.150  12.416  41.633  1.00  0.00    -0.173 N 
ATOM      3  H2  UNL     1       3.626  12.578  40.772  1.00  0.00     0.186 HD
HETATM    4  C4  UNL     1       3.483  11.959  42.685  1.00  0.00     0.692 A 
HETATM    5  N4  UNL     1       4.132  11.725  43.855  1.00  0.00    -0.023 N 
ATOM      6  H4  UNL     1       3.634  11.374  44.672  1.00  0.00     0.203 HD
HETATM    7  C5  UNL     1       5.445  11.970  43.898  1.00  0.00     0.692 A 
HETATM    8  N5  UNL     1       6.088  11.756  44.996  1.00  0.00    -0.234 N 
ATOM      9  H51 UNL     1       7.091  11.943  45.030  1.00  0.00     0.174 HD
ATOM     10  H52 UNL     1       5.604  11.405  45.822  1.00  0.00     0.174 HD
HETATM   11  N6  UNL     1       6.094  12.441  42.791  1.00  0.00    -0.173 N 
ATOM     12  H6  UNL     1       7.096  12.618  42.861  1.00  0.00     0.186 HD
ENDROOT
BRANCH   1  13
HETATM   13  C2  UNL     1       6.140  13.104  40.387  1.00  0.00     0.118 A 
HETATM   14  N1  UNL     1       6.454  14.412  40.147  1.00  0.00    -0.298 N 
HETATM   15  C1  UNL     1       6.089  15.392  41.139  1.00  0.00     0.161 C 
HETATM   16  C9  UNL     1       7.114  14.795  39.015  1.00  0.00     0.331 A 
HETATM   17  N8  UNL     1       7.495  13.925  38.074  1.00  0.00    -0.269 N 
HETATM   18  O3  UNL     1       7.350  16.043  38.899  1.00  0.00    -0.246 OA
HETATM   19  C7  UNL     1       7.195  12.645  38.296  1.00  0.00     0.282 A 
HETATM   20  C8  UNL     1       8.193  14.386  36.891  1.00  0.00     0.164 C 
HETATM   21  C6  UNL     1       6.525  12.204  39.431  1.00  0.00     0.153 A 
HETATM   22  O2  UNL     1       7.538  11.808  37.436  1.00  0.00    -0.265 OA
BRANCH  21  23
HETATM   23  N7  UNL     1       6.231  10.796  39.497  1.00  0.00    -0.262 N 
ATOM     24  H7  UNL     1       6.741  10.156  40.108  1.00  0.00     0.194 HD
BRANCH  23  25
HETATM   25  O1  UNL     1       5.298  10.414  38.743  1.00  0.00    -0.289 OA
ATOM     26  H1  UNL     1       5.428   9.560  38.348  1.00  0.00     0.244 HD
ENDBRANCH  23  25
ENDBRANCH  21  23
ENDBRANCH   1  13
BRANCH   4  27
HETATM   27  N3  UNL     1       2.219  11.709  42.689  1.00  0.00    -0.234 N 
ATOM     28  H32 UNL     1       1.657  12.264  42.044  1.00  0.00     0.174 HD
ATOM     29  H31 UNL     1       1.775  11.011  43.284  1.00  0.00     0.174 HD
ENDBRANCH   4  27
TORSDOF 4
ENDMDL
MODEL 4
REMARK VINA RESULT: -5.854506265      3.259      4.246
REMARK  4 active torsions:
REMARK  status: ('A' for Active; 'I' for Inactive)
REMARK    1  A    between atoms: C2_3  and  C3_4 
REMARK    2  A    between atoms: C4_7  and  N3_8 
REMARK    3  A    between atoms: C6_19  and  N7_20 
REMARK    4  A    between atoms: N7_20  and  O1_22 
ROOT
HETATM    1  C3  UNL     1       5.310  12.416  41.548  1.00  0.00     0.166 A 
HETATM    2  N2  UNL     1       5.995  12.285  42.726  1.00  0.00    -0.173 N 
ATOM      3  H2  UNL     1       6.996  12.478  42.719  1.00  0.00     0.186 HD
HETATM    4  C4  UNL     1       5.442  11.923  43.877  1.00  0.00     0.692 A 
HETATM    5  N4  UNL     1       4.112  11.656  43.941  1.00  0.00    -0.023 N 
ATOM      6  H4  UNL     1       3.673  11.377  44.818  1.00  0.00     0.203 HD
HETATM    7  C5  UNL     1       3.400  11.769  42.817  1.00  0.00     0.692 A 
HETATM    8  N5  UNL     1       2.133  11.522  42.847  1.00  0.00    -0.234 N 
ATOM      9  H51 UNL     1       1.589  11.608  41.988  1.00  0.00     0.174 HD
ATOM     10  H52 UNL     1       1.680  11.242  43.716  1.00  0.00     0.174 HD
HETATM   11  N6  UNL     1       4.008  12.144  41.651  1.00  0.00    -0.173 N 
ATOM     12  H6  UNL     1       3.432  12.219  40.811  1.00  0.00     0.186 HD
ENDROOT
BRANCH   1  13
HETATM   13  C2  UNL     1       6.002  12.900  40.357  1.00  0.00     0.118 A 
HETATM   14  N1  UNL     1       6.302  14.222  40.185  1.00  0.00    -0.298 N 
HETATM   15  C1  UNL     1       5.880  15.153  41.201  1.00  0.00     0.161 C 
HETATM   16  C9  UNL     1       7.001  14.663  39.099  1.00  0.00     0.331 A 
HETATM   17  N8  UNL     1       7.436  13.840  38.139  1.00  0.00    -0.269 N 
HETATM   18  O3  UNL     1       7.221  15.919  39.046  1.00  0.00    -0.246 OA
HETATM   19  C7  UNL     1       7.149  12.547  38.295  1.00  0.00     0.282 A 
HETATM   20  C8  UNL     1       8.175  14.362  37.007  1.00  0.00     0.164 C 
HETATM   21  C6  UNL     1       6.440  12.048  39.381  1.00  0.00     0.153 A 
HETATM   22  O2  UNL     1       7.542  11.752  37.416  1.00  0.00    -0.265 OA
BRANCH  21  23
HETATM   23  N7  UNL     1       6.169  10.634  39.376  1.00  0.00    -0.262 N 
ATOM     24  H7  UNL     1       6.702   9.969  39.938  1.00  0.00     0.194 HD
BRANCH  23  25
HETATM   25  O1  UNL     1       5.223  10.280  38.624  1.00  0.00    -0.289 OA
ATOM     26  H1  UNL     1       4.864  10.971  38.081  1.00  0.00     0.244 HD
ENDBRANCH  23  25
ENDBRANCH  21  23
ENDBRANCH   1  13
BRANCH   4  27
HETATM   27  N3  UNL     1       6.090  11.801  44.984  1.00  0.00    -0.234 N 
ATOM     28  H32 UNL     1       5.895  10.954  45.518  1.00  0.00     0.174 HD
ATOM     29  H31 UNL     1       6.760  12.485  45.335  1.00  0.00     0.174 HD
ENDBRANCH   4  27
TORSDOF 4
ENDMDL
MODEL 5
REMARK VINA RESULT: -5.785796400      2.026      6.413
REMARK  4 active torsions:
REMARK  status: ('A' for Active; 'I' for Inactive)
REMARK    1  A    between atoms: C2_3  and  C3_4 
REMARK    2  A    between atoms: C4_7  and  N3_8 
REMARK    3  A    between atoms: C6_19  and  N7_20 
REMARK    4  A    between atoms: N7_20  and  O1_22 
ROOT
HETATM    1  C3  UNL     1       7.310  16.823  37.683  1.00  0.00     0.166 A 
HETATM    2  N2  UNL     1       6.179  17.419  37.193  1.00  0.00    -0.173 N 
ATOM      3  H2  UNL     1       5.300  16.905  37.265  1.00  0.00     0.186 HD
HETATM    4  C4  UNL     1       6.149  18.620  36.630  1.00  0.00     0.692 A 
HETATM    5  N4  UNL     1       7.290  19.345  36.509  1.00  0.00    -0.023 N 
ATOM      6  H4  UNL     1       7.283  20.270  36.079  1.00  0.00     0.203 HD
HETATM    7  C5  UNL     1       8.422  18.807  36.973  1.00  0.00     0.692 A 
HETATM    8  N5  UNL     1       9.523  19.474  36.874  1.00  0.00    -0.234 N 
ATOM      9  H51 UNL     1      10.387  19.063  37.228  1.00  0.00     0.174 HD
ATOM     10  H52 UNL     1       9.531  20.400  36.446  1.00  0.00     0.174 HD
HETATM   11  N6  UNL     1       8.410  17.566  37.546  1.00  0.00    -0.173 N 
ATOM     12  H6  UNL     1       9.293  17.186  37.888  1.00  0.00     0.186 HD
ENDROOT
BRANCH   1  13
HETATM   13  C2  UNL     1       7.215  15.533  38.357  1.00  0.00     0.118 A 
HETATM   14  N1  UNL     1       6.766  15.422  39.643  1.00  0.00    -0.298 N 
HETATM   15  C1  UNL     1       6.419  16.630  40.349  1.00  0.00     0.161 C 
HETATM   16  C9  UNL     1       6.623  14.208  40.251  1.00  0.00     0.331 A 
HETATM   17  N8  UNL     1       6.909  13.056  39.636  1.00  0.00    -0.269 N 
HETATM   18  O3  UNL     1       6.198  14.230  41.454  1.00  0.00    -0.246 OA
HETATM   19  C7  UNL     1       7.348  13.150  38.381  1.00  0.00     0.282 A 
HETATM   20  C8  UNL     1       6.738  11.795  40.328  1.00  0.00     0.164 C 
HETATM   21  C6  UNL     1       7.512  14.360  37.717  1.00  0.00     0.153 A 
HETATM   22  O2  UNL     1       7.623  12.091  37.778  1.00  0.00    -0.265 OA
BRANCH  21  23
HETATM   23  N7  UNL     1       8.044  14.294  36.381  1.00  0.00    -0.262 N 
ATOM     24  H7  UNL     1       7.458  14.390  35.551  1.00  0.00     0.194 HD
BRANCH  23  25
HETATM   25  O1  UNL     1       9.287  14.108  36.316  1.00  0.00    -0.289 OA
ATOM     26  H1  UNL     1       9.550  13.318  35.858  1.00  0.00     0.244 HD
ENDBRANCH  23  25
ENDBRANCH  21  23
ENDBRANCH   1  13
BRANCH   4  27
HETATM   27  N3  UNL     1       5.083  19.177  36.169  1.00  0.00    -0.234 N 
ATOM     28  H32 UNL     1       4.371  18.540  35.811  1.00  0.00     0.174 HD
ATOM     29  H31 UNL     1       4.926  20.184  36.147  1.00  0.00     0.174 HD
ENDBRANCH   4  27
TORSDOF 4
ENDMDL
