MODEL 1
REMARK VINA RESULT: -7.526243949      0.000      0.000
REMARK  2 active torsions:
REMARK  status: ('A' for Active; 'I' for Inactive)
REMARK    1  A    between atoms: N5_12  and  N6_14 
REMARK    2  A    between atoms: C3_16  and  C4_17 
ROOT
HETATM    1  N1  UNL     1       5.616  12.934  40.373  1.00  0.00    -0.378 N 
ATOM      2  H11 UNL     1       4.872  12.450  39.870  1.00  0.00     0.158 HD
ATOM      3  H12 UNL     1       5.762  12.671  41.349  1.00  0.00     0.158 HD
HETATM    4  C1  UNL     1       6.319  13.828  39.779  1.00  0.00     0.161 C 
HETATM    5  N2  UNL     1       7.351  14.500  40.477  1.00  0.00    -0.265 N 
ATOM      6  H2  UNL     1       7.336  14.442  41.496  1.00  0.00     0.190 HD
HETATM    7  N3  UNL     1       8.366  15.221  39.909  1.00  0.00    -0.239 N 
ATOM      8  H3  UNL     1       9.334  15.138  40.219  1.00  0.00     0.208 HD
HETATM    9  N4  UNL     1       7.989  16.071  38.886  1.00  0.00    -0.264 N 
ATOM     10  H4  UNL     1       8.344  17.027  38.910  1.00  0.00     0.190 HD
HETATM   11  C2  UNL     1       7.148  15.712  37.811  1.00  0.00     0.182 C 
HETATM   12  N5  UNL     1       7.147  16.352  36.711  1.00  0.00    -0.279 N 
ATOM     13  H5  UNL     1       6.520  16.051  35.965  1.00  0.00     0.189 HD
HETATM   14  S1  UNL     1       6.063  14.292  38.063  1.00  0.00    -0.014 SA
ENDROOT
BRANCH  12  15
HETATM   15  N6  UNL     1       7.961  17.431  36.497  1.00  0.00    -0.307 N 
HETATM   16  C3  UNL     1       7.618  18.660  36.477  1.00  0.00     0.143 C 
ATOM     17  H6  UNL     1       8.948  17.232  36.336  1.00  0.00     0.186 HD
BRANCH  16  18
HETATM   18  C4  UNL     1       6.234  19.022  36.699  1.00  0.00     0.133 A 
HETATM   19  N7  UNL     1       5.388  19.231  35.650  1.00  0.00    -0.290 N 
HETATM   20  N8  UNL     1       4.137  19.560  35.914  1.00  0.00    -0.251 N 
ATOM     21  H7  UNL     1       5.714  19.136  34.687  1.00  0.00     0.187 HD
HETATM   22  C5  UNL     1       3.702  19.684  37.169  1.00  0.00     0.341 A 
ATOM     23  H8  UNL     1       3.489  19.721  35.143  1.00  0.00     0.191 HD
HETATM   24  O1  UNL     1       2.502  19.999  37.361  1.00  0.00    -0.245 OA
HETATM   25  N9  UNL     1       4.499  19.489  38.243  1.00  0.00    -0.272 N 
HETATM   26  C6  UNL     1       5.774  19.155  37.998  1.00  0.00     0.279 A 
ATOM     27  H9  UNL     1       4.147  19.590  39.195  1.00  0.00     0.173 HD
HETATM   28  O2  UNL     1       6.583  18.953  38.934  1.00  0.00    -0.265 OA
ENDBRANCH  16  18
ENDBRANCH  12  15
TORSDOF 2
ENDMDL
MODEL 2
REMARK VINA RESULT: -6.992029101      1.351      1.397
REMARK  2 active torsions:
REMARK  status: ('A' for Active; 'I' for Inactive)
REMARK    1  A    between atoms: N5_12  and  N6_14 
REMARK    2  A    between atoms: C3_16  and  C4_17 
ROOT
HETATM    1  N1  UNL     1       6.537  11.796  39.901  1.00  0.00    -0.378 N 
ATOM      2  H11 UNL     1       5.775  11.936  40.564  1.00  0.00     0.158 HD
ATOM      3  H12 UNL     1       7.013  10.894  39.926  1.00  0.00     0.158 HD
HETATM    4  C1  UNL     1       6.859  12.733  39.084  1.00  0.00     0.161 C 
HETATM    5  N2  UNL     1       7.917  12.540  38.164  1.00  0.00    -0.265 N 
ATOM      6  H2  UNL     1       8.558  11.767  38.348  1.00  0.00     0.190 HD
HETATM    7  N3  UNL     1       8.158  13.296  37.049  1.00  0.00    -0.239 N 
ATOM      8  H3  UNL     1       8.393  12.880  36.148  1.00  0.00     0.208 HD
HETATM    9  N4  UNL     1       8.059  14.663  37.227  1.00  0.00    -0.264 N 
ATOM     10  H4  UNL     1       8.810  15.244  36.853  1.00  0.00     0.190 HD
HETATM   11  C2  UNL     1       6.996  15.314  37.889  1.00  0.00     0.182 C 
HETATM   12  N5  UNL     1       6.727  16.541  37.689  1.00  0.00    -0.279 N 
ATOM     13  H5  UNL     1       5.946  16.963  38.193  1.00  0.00     0.189 HD
HETATM   14  S1  UNL     1       6.022  14.321  39.040  1.00  0.00    -0.014 SA
ENDROOT
BRANCH  12  15
HETATM   15  N6  UNL     1       7.449  17.313  36.821  1.00  0.00    -0.307 N 
HETATM   16  C3  UNL     1       7.098  18.427  36.308  1.00  0.00     0.143 C 
ATOM     17  H6  UNL     1       8.369  16.961  36.556  1.00  0.00     0.186 HD
BRANCH  16  18
HETATM   18  C4  UNL     1       5.806  18.992  36.638  1.00  0.00     0.133 A 
HETATM   19  N7  UNL     1       4.872  19.215  35.670  1.00  0.00    -0.290 N 
HETATM   20  N8  UNL     1       3.712  19.734  36.031  1.00  0.00    -0.251 N 
ATOM     21  H7  UNL     1       5.064  18.988  34.694  1.00  0.00     0.187 HD
HETATM   22  C5  UNL     1       3.452  20.034  37.305  1.00  0.00     0.341 A 
ATOM     23  H8  UNL     1       3.001  19.909  35.321  1.00  0.00     0.191 HD
HETATM   24  O1  UNL     1       2.333  20.524  37.590  1.00  0.00    -0.245 OA
HETATM   25  N9  UNL     1       4.343  19.833  38.301  1.00  0.00    -0.272 N 
HETATM   26  C6  UNL     1       5.528  19.308  37.956  1.00  0.00     0.279 A 
ATOM     27  H9  UNL     1       4.125  20.070  39.268  1.00  0.00     0.173 HD
HETATM   28  O2  UNL     1       6.414  19.087  38.815  1.00  0.00    -0.265 OA
ENDBRANCH  16  18
ENDBRANCH  12  15
TORSDOF 2
ENDMDL
MODEL 3
REMARK VINA RESULT: -6.750210514      1.128      1.558
REMARK  2 active torsions:
REMARK  status: ('A' for Active; 'I' for Inactive)
REMARK    1  A    between atoms: N5_12  and  N6_14 
REMARK    2  A    between atoms: C3_16  and  C4_17 
ROOT
HETATM    1  N1  UNL     1       5.689  12.382  39.462  1.00  0.00    -0.378 N 
ATOM      2  H11 UNL     1       5.107  12.008  38.713  1.00  0.00     0.158 HD
ATOM      3  H12 UNL     1       5.655  11.899  40.360  1.00  0.00     0.158 HD
HETATM    4  C1  UNL     1       6.421  13.417  39.253  1.00  0.00     0.161 C 
HETATM    5  N2  UNL     1       7.228  13.936  40.294  1.00  0.00    -0.265 N 
ATOM      6  H2  UNL     1       7.011  13.636  41.245  1.00  0.00     0.190 HD
HETATM    7  N3  UNL     1       8.273  14.806  40.139  1.00  0.00    -0.239 N 
ATOM      8  H3  UNL     1       9.161  14.683  40.625  1.00  0.00     0.208 HD
HETATM    9  N4  UNL     1       8.042  15.863  39.278  1.00  0.00    -0.264 N 
ATOM     10  H4  UNL     1       8.304  16.797  39.594  1.00  0.00     0.190 HD
HETATM   11  C2  UNL     1       7.471  15.743  37.993  1.00  0.00     0.182 C 
HETATM   12  N5  UNL     1       7.641  16.627  37.094  1.00  0.00    -0.279 N 
ATOM     13  H5  UNL     1       7.206  16.493  36.181  1.00  0.00     0.189 HD
HETATM   14  S1  UNL     1       6.481  14.268  37.674  1.00  0.00    -0.014 SA
ENDROOT
BRANCH  12  15
HETATM   15  N6  UNL     1       8.387  17.753  37.311  1.00  0.00    -0.307 N 
HETATM   16  C3  UNL     1       7.954  18.940  37.490  1.00  0.00     0.143 C 
ATOM     17  H6  UNL     1       9.400  17.631  37.334  1.00  0.00     0.186 HD
BRANCH  16  18
HETATM   18  C4  UNL     1       6.528  19.192  37.474  1.00  0.00     0.133 A 
HETATM   19  N7  UNL     1       5.835  19.370  38.635  1.00  0.00    -0.290 N 
HETATM   20  N8  UNL     1       4.536  19.595  38.557  1.00  0.00    -0.251 N 
ATOM     21  H7  UNL     1       6.307  19.329  39.538  1.00  0.00     0.187 HD
HETATM   22  C5  UNL     1       3.911  19.650  37.380  1.00  0.00     0.341 A 
ATOM     23  H8  UNL     1       4.000  19.729  39.414  1.00  0.00     0.191 HD
HETATM   24  O1  UNL     1       2.675  19.868  37.365  1.00  0.00    -0.245 OA
HETATM   25  N9  UNL     1       4.551  19.481  36.201  1.00  0.00    -0.272 N 
HETATM   26  C6  UNL     1       5.870  19.250  36.257  1.00  0.00     0.279 A 
ATOM     27  H9  UNL     1       4.053  19.526  35.312  1.00  0.00     0.173 HD
HETATM   28  O2  UNL     1       6.544  19.082  35.213  1.00  0.00    -0.265 OA
ENDBRANCH  16  18
ENDBRANCH  12  15
TORSDOF 2
ENDMDL
MODEL 4
REMARK VINA RESULT: -6.560453054      2.256      3.447
REMARK  2 active torsions:
REMARK  status: ('A' for Active; 'I' for Inactive)
REMARK    1  A    between atoms: N5_12  and  N6_14 
REMARK    2  A    between atoms: C3_16  and  C4_17 
ROOT
HETATM    1  N1  UNL     1       5.483  13.297  43.251  1.00  0.00    -0.378 N 
ATOM      2  H11 UNL     1       5.700  14.066  43.885  1.00  0.00     0.158 HD
ATOM      3  H12 UNL     1       5.099  12.448  43.667  1.00  0.00     0.158 HD
HETATM    4  C1  UNL     1       5.694  13.423  41.991  1.00  0.00     0.161 C 
HETATM    5  N2  UNL     1       5.394  12.355  41.111  1.00  0.00    -0.265 N 
ATOM      6  H2  UNL     1       5.264  11.433  41.527  1.00  0.00     0.190 HD
HETATM    7  N3  UNL     1       5.264  12.450  39.752  1.00  0.00    -0.239 N 
ATOM      8  H3  UNL     1       4.504  11.996  39.244  1.00  0.00     0.208 HD
HETATM    9  N4  UNL     1       6.232  13.202  39.114  1.00  0.00    -0.264 N 
ATOM     10  H4  UNL     1       6.668  12.805  38.282  1.00  0.00     0.190 HD
HETATM   11  C2  UNL     1       6.661  14.481  39.531  1.00  0.00     0.182 C 
HETATM   12  N5  UNL     1       7.226  15.296  38.734  1.00  0.00    -0.279 N 
ATOM     13  H5  UNL     1       7.516  16.209  39.086  1.00  0.00     0.189 HD
HETATM   14  S1  UNL     1       6.370  14.916  41.258  1.00  0.00    -0.014 SA
ENDROOT
BRANCH  12  15
HETATM   15  N6  UNL     1       7.456  14.989  37.421  1.00  0.00    -0.307 N 
HETATM   16  C3  UNL     1       7.793  15.795  36.490  1.00  0.00     0.143 C 
ATOM     17  H6  UNL     1       7.348  14.010  37.156  1.00  0.00     0.186 HD
BRANCH  16  18
HETATM   18  C4  UNL     1       7.968  17.201  36.789  1.00  0.00     0.133 A 
HETATM   19  N7  UNL     1       9.212  17.755  36.845  1.00  0.00    -0.290 N 
HETATM   20  N8  UNL     1       9.309  19.043  37.123  1.00  0.00    -0.251 N 
ATOM     21  H7  UNL     1      10.045  17.191  36.676  1.00  0.00     0.187 HD
HETATM   22  C5  UNL     1       8.225  19.789  37.344  1.00  0.00     0.341 A 
ATOM     23  H8  UNL     1      10.231  19.475  37.171  1.00  0.00     0.191 HD
HETATM   24  O1  UNL     1       8.377  21.007  37.604  1.00  0.00    -0.245 OA
HETATM   25  N9  UNL     1       6.970  19.288  37.301  1.00  0.00    -0.272 N 
HETATM   26  C6  UNL     1       6.849  17.983  37.021  1.00  0.00     0.279 A 
ATOM     27  H9  UNL     1       6.155  19.875  37.474  1.00  0.00     0.173 HD
HETATM   28  O2  UNL     1       5.723  17.435  36.960  1.00  0.00    -0.265 OA
ENDBRANCH  16  18
ENDBRANCH  12  15
TORSDOF 2
ENDMDL
MODEL 5
REMARK VINA RESULT: -6.548078732      2.520      5.894
REMARK  2 active torsions:
REMARK  status: ('A' for Active; 'I' for Inactive)
REMARK    1  A    between atoms: N5_12  and  N6_14 
REMARK    2  A    between atoms: C3_16  and  C4_17 
ROOT
HETATM    1  N1  UNL     1       1.760  20.924  38.541  1.00  0.00    -0.378 N 
ATOM      2  H11 UNL     1       1.760  20.980  39.560  1.00  0.00     0.158 HD
ATOM      3  H12 UNL     1       0.962  21.335  38.055  1.00  0.00     0.158 HD
HETATM    4  C1  UNL     1       2.734  20.355  37.928  1.00  0.00     0.161 C 
HETATM    5  N2  UNL     1       2.733  20.277  36.514  1.00  0.00    -0.265 N 
ATOM      6  H2  UNL     1       1.845  20.440  36.040  1.00  0.00     0.190 HD
HETATM    7  N3  UNL     1       3.818  20.000  35.726  1.00  0.00    -0.239 N 
ATOM      8  H3  UNL     1       4.023  20.527  34.877  1.00  0.00     0.208 HD
HETATM    9  N4  UNL     1       4.616  18.959  36.161  1.00  0.00    -0.264 N 
ATOM     10  H4  UNL     1       4.895  18.258  35.474  1.00  0.00     0.190 HD
HETATM   11  C2  UNL     1       5.074  18.795  37.486  1.00  0.00     0.182 C 
HETATM   12  N5  UNL     1       6.099  18.094  37.764  1.00  0.00    -0.279 N 
ATOM     13  H5  UNL     1       6.388  18.008  38.738  1.00  0.00     0.189 HD
HETATM   14  S1  UNL     1       4.137  19.631  38.782  1.00  0.00    -0.014 SA
ENDROOT
BRANCH  12  15
HETATM   15  N6  UNL     1       6.825  17.451  36.798  1.00  0.00    -0.307 N 
HETATM   16  C3  UNL     1       7.197  16.230  36.801  1.00  0.00     0.143 C 
ATOM     17  H6  UNL     1       7.099  18.008  35.989  1.00  0.00     0.186 HD
BRANCH  16  18
HETATM   18  C4  UNL     1       6.845  15.377  37.916  1.00  0.00     0.133 A 
HETATM   19  N7  UNL     1       6.063  14.274  37.734  1.00  0.00    -0.290 N 
HETATM   20  N8  UNL     1       5.774  13.535  38.790  1.00  0.00    -0.251 N 
ATOM     21  H7  UNL     1       5.712  14.028  36.809  1.00  0.00     0.187 HD
HETATM   22  C5  UNL     1       6.230  13.848  40.003  1.00  0.00     0.341 A 
ATOM     23  H8  UNL     1       5.190  12.707  38.674  1.00  0.00     0.191 HD
HETATM   24  O1  UNL     1       5.924  13.109  40.970  1.00  0.00    -0.245 OA
HETATM   25  N9  UNL     1       7.007  14.929  40.237  1.00  0.00    -0.272 N 
HETATM   26  C6  UNL     1       7.312  15.695  39.180  1.00  0.00     0.279 A 
ATOM     27  H9  UNL     1       7.344  15.152  41.173  1.00  0.00     0.173 HD
HETATM   28  O2  UNL     1       8.028  16.716  39.304  1.00  0.00    -0.265 OA
ENDBRANCH  16  18
ENDBRANCH  12  15
TORSDOF 2
ENDMDL
