MODEL 1
REMARK VINA RESULT: -7.252808766      0.000      0.000
REMARK  3 active torsions:
REMARK  status: ('A' for Active; 'I' for Inactive)
REMARK    1  A    between atoms: O1_2  and  C2_3 
REMARK    2  A    between atoms: C2_3  and  C3_5 
REMARK    3  A    between atoms: C4_6  and  N1_7 
REMARK       I    between atoms: N1_7  and  C5_9 
ROOT
HETATM    1  C3  UNL     1       7.688  14.649  37.789  1.00  0.00     0.136 A 
HETATM    2  C4  UNL     1       6.956  15.483  38.607  1.00  0.00     0.089 A 
HETATM    3  C6  UNL     1       6.810  16.832  38.345  1.00  0.00     0.115 A 
HETATM    4  N3  UNL     1       6.106  17.668  39.117  1.00  0.00    -0.237 N 
ATOM      5  H3  UNL     1       5.637  17.326  39.955  1.00  0.00     0.197 HD
HETATM    6  O4  UNL     1       6.031  18.913  38.785  1.00  0.00    -0.155 OA
HETATM    7  N4  UNL     1       6.570  19.466  37.766  1.00  0.00    -0.224 N 
ATOM      8  H4  UNL     1       6.445  20.464  37.599  1.00  0.00     0.198 HD
HETATM    9  C7  UNL     1       7.301  18.726  36.916  1.00  0.00     0.150 A 
HETATM   10  N5  UNL     1       7.868  19.239  35.869  1.00  0.00    -0.382 N 
ATOM     11  H51 UNL     1       8.423  18.676  35.223  1.00  0.00     0.157 HD
ATOM     12  H52 UNL     1       7.757  20.235  35.679  1.00  0.00     0.157 HD
HETATM   13  C8  UNL     1       7.448  17.398  37.168  1.00  0.00     0.112 A 
HETATM   14  N6  UNL     1       8.154  16.553  36.394  1.00  0.00    -0.317 N 
ATOM     15  H6  UNL     1       8.616  16.913  35.560  1.00  0.00     0.169 HD
HETATM   16  C9  UNL     1       8.268  15.254  36.689  1.00  0.00     0.264 A 
HETATM   17  O5  UNL     1       8.948  14.540  35.907  1.00  0.00    -0.267 OA
ENDROOT
BRANCH   2  18
HETATM   18  N1  UNL     1       6.338  14.946  39.752  1.00  0.00    -0.308 N 
HETATM   19  C5  UNL     1       6.830  15.182  41.055  1.00  0.00     0.333 C 
HETATM   20  N2  UNL     1       6.180  14.624  42.178  1.00  0.00    -0.040 NA
HETATM   21  O3  UNL     1       7.851  15.891  41.202  1.00  0.00    -0.251 OA
ATOM     22  H1  UNL     1       5.505  14.367  39.638  1.00  0.00     0.170 HD
ENDBRANCH   2  18
BRANCH   1  23
HETATM   23  C2  UNL     1       7.864  13.225  38.021  1.00  0.00     0.300 C 
HETATM   24  O2  UNL     1       6.940  12.454  37.666  1.00  0.00    -0.259 OA
BRANCH  23  25
HETATM   25  O1  UNL     1       8.978  12.653  38.606  1.00  0.00    -0.322 OA
HETATM   26  C1  UNL     1       9.331  12.801  39.959  1.00  0.00     0.213 C 
ENDBRANCH  23  25
ENDBRANCH   1  23
TORSDOF 3
ENDMDL
MODEL 2
REMARK VINA RESULT: -6.948571908      1.052      1.052
REMARK  3 active torsions:
REMARK  status: ('A' for Active; 'I' for Inactive)
REMARK    1  A    between atoms: O1_2  and  C2_3 
REMARK    2  A    between atoms: C2_3  and  C3_5 
REMARK    3  A    between atoms: C4_6  and  N1_7 
REMARK       I    between atoms: N1_7  and  C5_9 
ROOT
HETATM    1  C3  UNL     1       8.126  14.514  38.029  1.00  0.00     0.136 A 
HETATM    2  C4  UNL     1       7.533  15.389  38.915  1.00  0.00     0.089 A 
HETATM    3  C6  UNL     1       7.182  16.676  38.557  1.00  0.00     0.115 A 
HETATM    4  N3  UNL     1       6.605  17.549  39.392  1.00  0.00    -0.237 N 
ATOM      5  H3  UNL     1       6.397  17.284  40.354  1.00  0.00     0.197 HD
HETATM    6  O4  UNL     1       6.315  18.730  38.960  1.00  0.00    -0.155 OA
HETATM    7  N4  UNL     1       6.521  19.186  37.783  1.00  0.00    -0.224 N 
ATOM      8  H4  UNL     1       6.251  20.141  37.548  1.00  0.00     0.198 HD
HETATM    9  C7  UNL     1       7.095  18.399  36.856  1.00  0.00     0.150 A 
HETATM   10  N5  UNL     1       7.326  18.813  35.650  1.00  0.00    -0.382 N 
ATOM     11  H51 UNL     1       7.762  18.216  34.947  1.00  0.00     0.157 HD
ATOM     12  H52 UNL     1       7.065  19.765  35.390  1.00  0.00     0.157 HD
HETATM   13  C8  UNL     1       7.443  17.132  37.202  1.00  0.00     0.112 A 
HETATM   14  N6  UNL     1       8.024  16.250  36.367  1.00  0.00    -0.317 N 
ATOM     15  H6  UNL     1       8.223  16.533  35.408  1.00  0.00     0.169 HD
HETATM   16  C9  UNL     1       8.347  15.013  36.759  1.00  0.00     0.264 A 
HETATM   17  O5  UNL     1       8.885  14.258  35.909  1.00  0.00    -0.267 OA
ENDROOT
BRANCH   2  18
HETATM   18  N1  UNL     1       7.280  14.960  40.232  1.00  0.00    -0.308 N 
HETATM   19  C5  UNL     1       6.197  14.112  40.554  1.00  0.00     0.333 C 
HETATM   20  N2  UNL     1       5.977  13.704  41.888  1.00  0.00    -0.040 NA
HETATM   21  O3  UNL     1       5.433  13.726  39.640  1.00  0.00    -0.251 OA
ATOM     22  H1  UNL     1       7.900  15.272  40.980  1.00  0.00     0.170 HD
ENDBRANCH   2  18
BRANCH   1  23
HETATM   23  C2  UNL     1       8.508  13.151  38.359  1.00  0.00     0.300 C 
HETATM   24  O2  UNL     1       7.796  12.219  37.913  1.00  0.00    -0.259 OA
BRANCH  23  25
HETATM   25  O1  UNL     1       9.601  12.802  39.129  1.00  0.00    -0.322 OA
HETATM   26  C1  UNL     1       9.530  12.056  40.319  1.00  0.00     0.213 C 
ENDBRANCH  23  25
ENDBRANCH   1  23
TORSDOF 3
ENDMDL
MODEL 3
REMARK VINA RESULT: -6.768625376      0.817      1.157
REMARK  3 active torsions:
REMARK  status: ('A' for Active; 'I' for Inactive)
REMARK    1  A    between atoms: O1_2  and  C2_3 
REMARK    2  A    between atoms: C2_3  and  C3_5 
REMARK    3  A    between atoms: C4_6  and  N1_7 
REMARK       I    between atoms: N1_7  and  C5_9 
ROOT
HETATM    1  C3  UNL     1       7.440  14.447  38.208  1.00  0.00     0.136 A 
HETATM    2  C4  UNL     1       6.758  15.379  38.962  1.00  0.00     0.089 A 
HETATM    3  C6  UNL     1       6.669  16.707  38.590  1.00  0.00     0.115 A 
HETATM    4  N3  UNL     1       6.014  17.634  39.298  1.00  0.00    -0.237 N 
ATOM      5  H3  UNL     1       5.542  17.385  40.167  1.00  0.00     0.197 HD
HETATM    6  O4  UNL     1       5.990  18.850  38.865  1.00  0.00    -0.155 OA
HETATM    7  N4  UNL     1       6.538  19.293  37.798  1.00  0.00    -0.224 N 
ATOM      8  H4  UNL     1       6.456  20.279  37.550  1.00  0.00     0.198 HD
HETATM    9  C7  UNL     1       7.224  18.452  37.004  1.00  0.00     0.150 A 
HETATM   10  N5  UNL     1       7.798  18.851  35.913  1.00  0.00    -0.382 N 
ATOM     11  H51 UNL     1       8.318  18.212  35.310  1.00  0.00     0.157 HD
ATOM     12  H52 UNL     1       7.729  19.833  35.643  1.00  0.00     0.157 HD
HETATM   13  C8  UNL     1       7.315  17.144  37.364  1.00  0.00     0.112 A 
HETATM   14  N6  UNL     1       7.972  16.207  36.656  1.00  0.00    -0.317 N 
ATOM     15  H6  UNL     1       8.437  16.476  35.790  1.00  0.00     0.169 HD
HETATM   16  C9  UNL     1       8.031  14.933  37.057  1.00  0.00     0.264 A 
HETATM   17  O5  UNL     1       8.667  14.127  36.329  1.00  0.00    -0.267 OA
ENDROOT
BRANCH   2  18
HETATM   18  N1  UNL     1       6.133  14.967  40.155  1.00  0.00    -0.308 N 
HETATM   19  C5  UNL     1       6.689  15.228  41.427  1.00  0.00     0.333 C 
HETATM   20  N2  UNL     1       6.029  14.797  42.599  1.00  0.00    -0.040 NA
HETATM   21  O3  UNL     1       7.775  15.845  41.502  1.00  0.00    -0.251 OA
ATOM     22  H1  UNL     1       5.247  14.463  40.098  1.00  0.00     0.170 HD
ENDBRANCH   2  18
BRANCH   1  23
HETATM   23  C2  UNL     1       7.556  13.041  38.556  1.00  0.00     0.300 C 
HETATM   24  O2  UNL     1       8.676  12.621  38.936  1.00  0.00    -0.259 OA
BRANCH  23  25
HETATM   25  O1  UNL     1       6.521  12.127  38.500  1.00  0.00    -0.322 OA
HETATM   26  C1  UNL     1       6.097  11.338  39.585  1.00  0.00     0.213 C 
ENDBRANCH  23  25
ENDBRANCH   1  23
TORSDOF 3
ENDMDL
MODEL 4
REMARK VINA RESULT: -6.301794576      1.146      1.197
REMARK  3 active torsions:
REMARK  status: ('A' for Active; 'I' for Inactive)
REMARK    1  A    between atoms: O1_2  and  C2_3 
REMARK    2  A    between atoms: C2_3  and  C3_5 
REMARK    3  A    between atoms: C4_6  and  N1_7 
REMARK       I    between atoms: N1_7  and  C5_9 
ROOT
HETATM    1  C3  UNL     1       7.291  13.939  38.693  1.00  0.00     0.136 A 
HETATM    2  C4  UNL     1       6.684  14.971  39.377  1.00  0.00     0.089 A 
HETATM    3  C6  UNL     1       6.708  16.275  38.920  1.00  0.00     0.115 A 
HETATM    4  N3  UNL     1       6.127  17.297  39.559  1.00  0.00    -0.237 N 
ATOM      5  H3  UNL     1       5.630  17.144  40.436  1.00  0.00     0.197 HD
HETATM    6  O4  UNL     1       6.207  18.480  39.048  1.00  0.00    -0.155 OA
HETATM    7  N4  UNL     1       6.796  18.806  37.961  1.00  0.00    -0.224 N 
ATOM      8  H4  UNL     1       6.797  19.776  37.649  1.00  0.00     0.198 HD
HETATM    9  C7  UNL     1       7.415  17.861  37.231  1.00  0.00     0.150 A 
HETATM   10  N5  UNL     1       8.027  18.139  36.123  1.00  0.00    -0.382 N 
ATOM     11  H51 UNL     1       8.496  17.422  35.569  1.00  0.00     0.157 HD
ATOM     12  H52 UNL     1       8.042  19.104  35.789  1.00  0.00     0.157 HD
HETATM   13  C8  UNL     1       7.395  16.577  37.675  1.00  0.00     0.112 A 
HETATM   14  N6  UNL     1       7.976  15.544  37.037  1.00  0.00    -0.317 N 
ATOM     15  H6  UNL     1       8.468  15.717  36.161  1.00  0.00     0.169 HD
HETATM   16  C9  UNL     1       7.927  14.298  37.520  1.00  0.00     0.264 A 
HETATM   17  O5  UNL     1       8.499  13.397  36.854  1.00  0.00    -0.267 OA
ENDROOT
BRANCH   2  18
HETATM   18  N1  UNL     1       6.019  14.691  40.587  1.00  0.00    -0.308 N 
HETATM   19  C5  UNL     1       6.515  15.120  41.837  1.00  0.00     0.333 C 
HETATM   20  N2  UNL     1       5.817  14.818  43.027  1.00  0.00    -0.040 NA
HETATM   21  O3  UNL     1       7.583  15.773  41.878  1.00  0.00    -0.251 OA
ATOM     22  H1  UNL     1       5.148  14.159  40.559  1.00  0.00     0.170 HD
ENDBRANCH   2  18
BRANCH   1  23
HETATM   23  C2  UNL     1       7.288  12.554  39.133  1.00  0.00     0.300 C 
HETATM   24  O2  UNL     1       6.207  11.920  39.064  1.00  0.00    -0.259 OA
BRANCH  23  25
HETATM   25  O1  UNL     1       8.390  11.878  39.622  1.00  0.00    -0.322 OA
HETATM   26  C1  UNL     1       8.665  10.522  39.376  1.00  0.00     0.213 C 
ENDBRANCH  23  25
ENDBRANCH   1  23
TORSDOF 3
ENDMDL
MODEL 5
REMARK VINA RESULT: -6.295823296      3.288      6.797
REMARK  3 active torsions:
REMARK  status: ('A' for Active; 'I' for Inactive)
REMARK    1  A    between atoms: O1_2  and  C2_3 
REMARK    2  A    between atoms: C2_3  and  C3_5 
REMARK    3  A    between atoms: C4_6  and  N1_7 
REMARK       I    between atoms: N1_7  and  C5_9 
ROOT
HETATM    1  C3  UNL     1       6.096  14.167  41.022  1.00  0.00     0.136 A 
HETATM    2  C4  UNL     1       5.647  13.117  40.249  1.00  0.00     0.089 A 
HETATM    3  C6  UNL     1       4.819  12.132  40.752  1.00  0.00     0.115 A 
HETATM    4  N3  UNL     1       4.365  11.102  40.028  1.00  0.00    -0.237 N 
ATOM      5  H3  UNL     1       4.624  11.004  39.047  1.00  0.00     0.197 HD
HETATM    6  O4  UNL     1       3.594  10.233  40.592  1.00  0.00    -0.155 OA
HETATM    7  N4  UNL     1       3.195  10.239  41.807  1.00  0.00    -0.224 N 
ATOM      8  H4  UNL     1       2.584   9.498  42.150  1.00  0.00     0.198 HD
HETATM    9  C7  UNL     1       3.586  11.227  42.631  1.00  0.00     0.150 A 
HETATM   10  N5  UNL     1       3.210  11.278  43.870  1.00  0.00    -0.382 N 
ATOM     11  H51 UNL     1       3.507  12.028  44.495  1.00  0.00     0.157 HD
ATOM     12  H52 UNL     1       2.598  10.549  44.237  1.00  0.00     0.157 HD
HETATM   13  C8  UNL     1       4.401  12.199  42.142  1.00  0.00     0.112 A 
HETATM   14  N6  UNL     1       4.860  13.238  42.864  1.00  0.00    -0.317 N 
ATOM     15  H6  UNL     1       4.589  13.318  43.844  1.00  0.00     0.169 HD
HETATM   16  C9  UNL     1       5.662  14.167  42.334  1.00  0.00     0.264 A 
HETATM   17  O5  UNL     1       6.040  15.102  43.086  1.00  0.00    -0.267 OA
ENDROOT
BRANCH   2  18
HETATM   18  N1  UNL     1       6.049  13.040  38.901  1.00  0.00    -0.308 N 
HETATM   19  C5  UNL     1       7.203  12.332  38.498  1.00  0.00     0.333 C 
HETATM   20  N2  UNL     1       7.572  12.279  37.136  1.00  0.00    -0.040 NA
HETATM   21  O3  UNL     1       7.897  11.752  39.365  1.00  0.00    -0.251 OA
ATOM     22  H1  UNL     1       5.488  13.511  38.192  1.00  0.00     0.170 HD
ENDBRANCH   2  18
BRANCH   1  23
HETATM   23  C2  UNL     1       6.964  15.228  40.535  1.00  0.00     0.300 C 
HETATM   24  O2  UNL     1       8.201  15.016  40.528  1.00  0.00    -0.259 OA
BRANCH  23  25
HETATM   25  O1  UNL     1       6.527  16.456  40.078  1.00  0.00    -0.322 OA
HETATM   26  C1  UNL     1       6.877  17.012  38.834  1.00  0.00     0.213 C 
ENDBRANCH  23  25
ENDBRANCH   1  23
TORSDOF 3
ENDMDL
