MODEL 1
REMARK VINA RESULT: -8.892559456      0.000      0.000
REMARK  3 active torsions:
REMARK  status: ('A' for Active; 'I' for Inactive)
REMARK       I    between atoms: C1_4  and  N2_5 
REMARK       I    between atoms: C1_4  and  N8_19 
REMARK    1  A    between atoms: N2_5  and  N3_7 
REMARK    2  A    between atoms: C2_9  and  C3_10 
REMARK    3  A    between atoms: C5_25  and  N11_26 
ROOT
HETATM    1  N1  UNL     1       6.922  18.856  36.247  1.00  0.00    -0.232 N 
ATOM      2  H11 UNL     1       7.774  18.328  36.058  1.00  0.00     0.174 HD
ATOM      3  H12 UNL     1       6.654  19.590  35.591  1.00  0.00     0.174 HD
HETATM    4  C1  UNL     1       6.180  18.626  37.279  1.00  0.00     0.713 C 
HETATM    5  N2  UNL     1       5.003  19.357  37.539  1.00  0.00    -0.131 N 
ATOM      6  H2  UNL     1       4.503  19.811  36.775  1.00  0.00     0.205 HD
HETATM    7  N8  UNL     1       6.556  17.593  38.202  1.00  0.00    -0.069 N 
HETATM    8  N9  UNL     1       6.397  17.605  39.512  1.00  0.00    -0.221 N 
ATOM      9  H9  UNL     1       5.978  18.366  40.046  1.00  0.00     0.209 HD
HETATM   10  N10 UNL     1       6.869  16.467  40.033  1.00  0.00    -0.280 N 
ATOM     11  H10 UNL     1       6.866  16.224  41.024  1.00  0.00     0.189 HD
HETATM   12  C4  UNL     1       7.348  15.692  39.038  1.00  0.00     0.122 A 
HETATM   13  C5  UNL     1       7.937  14.441  39.023  1.00  0.00     0.129 A 
HETATM   14  N12 UNL     1       8.326  13.910  37.828  1.00  0.00    -0.351 N 
ATOM     15  H12 UNL     1       8.760  12.987  37.808  1.00  0.00     0.166 HD
HETATM   16  C6  UNL     1       8.147  14.579  36.675  1.00  0.00     0.092 A 
HETATM   17  C7  UNL     1       7.557  15.831  36.703  1.00  0.00     0.052 A 
HETATM   18  C8  UNL     1       7.144  16.418  37.882  1.00  0.00     0.109 A 
ENDROOT
BRANCH   5  19
HETATM   19  N3  UNL     1       4.528  19.455  38.834  1.00  0.00    -0.294 N 
HETATM   20  C2  UNL     1       3.390  19.990  39.109  1.00  0.00     0.159 C 
ATOM     21  H3  UNL     1       5.099  19.092  39.597  1.00  0.00     0.186 HD
BRANCH  20  22
HETATM   22  C3  UNL     1       2.528  20.527  38.070  1.00  0.00     0.154 A 
HETATM   23  N4  UNL     1       2.692  20.496  36.734  1.00  0.00    -0.268 N 
HETATM   24  N5  UNL     1       1.655  21.109  36.203  1.00  0.00    -0.227 N 
ATOM     25  H4  UNL     1       3.472  20.078  36.228  1.00  0.00     0.190 HD
HETATM   26  N6  UNL     1       0.841  21.525  37.144  1.00  0.00    -0.227 N 
ATOM     27  H5  UNL     1       1.505  21.241  35.203  1.00  0.00     0.210 HD
HETATM   28  N7  UNL     1       1.367  21.174  38.283  1.00  0.00    -0.268 N 
ATOM     29  H6  UNL     1      -0.037  22.028  37.010  1.00  0.00     0.210 HD
ATOM     30  H7  UNL     1       0.960  21.362  39.199  1.00  0.00     0.190 HD
ENDBRANCH  20  22
ENDBRANCH   5  19
BRANCH  13  31
HETATM   31  N11 UNL     1       8.116  13.791  40.099  1.00  0.00    -0.384 N 
ATOM     32 2H11 UNL     1       7.776  14.164  40.985  1.00  0.00     0.157 HD
ATOM     33 1H11 UNL     1       8.598  12.893  40.095  1.00  0.00     0.157 HD
ENDBRANCH  13  31
TORSDOF 3
ENDMDL
MODEL 2
REMARK VINA RESULT: -7.880307547      3.195      5.115
REMARK  3 active torsions:
REMARK  status: ('A' for Active; 'I' for Inactive)
REMARK       I    between atoms: C1_4  and  N2_5 
REMARK       I    between atoms: C1_4  and  N8_19 
REMARK    1  A    between atoms: N2_5  and  N3_7 
REMARK    2  A    between atoms: C2_9  and  C3_10 
REMARK    3  A    between atoms: C5_25  and  N11_26 
ROOT
HETATM    1  N1  UNL     1       7.895  13.777  38.521  1.00  0.00    -0.232 N 
ATOM      2  H11 UNL     1       7.984  12.833  38.897  1.00  0.00     0.174 HD
ATOM      3  H12 UNL     1       8.419  14.012  37.678  1.00  0.00     0.174 HD
HETATM    4  C1  UNL     1       7.146  14.673  39.073  1.00  0.00     0.713 C 
HETATM    5  N2  UNL     1       7.023  15.978  38.553  1.00  0.00    -0.131 N 
ATOM      6  H2  UNL     1       7.202  16.154  37.564  1.00  0.00     0.205 HD
HETATM    7  N8  UNL     1       6.408  14.342  40.259  1.00  0.00    -0.069 N 
HETATM    8  N9  UNL     1       6.154  15.137  41.281  1.00  0.00    -0.221 N 
ATOM      9  H9  UNL     1       6.457  16.108  41.360  1.00  0.00     0.209 HD
HETATM   10  N10 UNL     1       5.440  14.477  42.199  1.00  0.00    -0.280 N 
ATOM     11  H10 UNL     1       5.112  14.863  43.085  1.00  0.00     0.189 HD
HETATM   12  C4  UNL     1       5.222  13.218  41.765  1.00  0.00     0.122 A 
HETATM   13  C5  UNL     1       4.554  12.139  42.313  1.00  0.00     0.129 A 
HETATM   14  N12 UNL     1       4.506  10.969  41.613  1.00  0.00    -0.351 N 
ATOM     15  H12 UNL     1       4.014  10.168  42.010  1.00  0.00     0.166 HD
HETATM   16  C6  UNL     1       5.094  10.850  40.409  1.00  0.00     0.092 A 
HETATM   17  C7  UNL     1       5.760  11.938  39.871  1.00  0.00     0.052 A 
HETATM   18  C8  UNL     1       5.841  13.146  40.534  1.00  0.00     0.109 A 
ENDROOT
BRANCH   5  19
HETATM   19  N3  UNL     1       6.659  17.018  39.388  1.00  0.00    -0.294 N 
HETATM   20  C2  UNL     1       6.703  18.247  39.011  1.00  0.00     0.159 C 
ATOM     21  H3  UNL     1       6.345  16.804  40.334  1.00  0.00     0.186 HD
BRANCH  20  22
HETATM   22  C3  UNL     1       7.141  18.622  37.677  1.00  0.00     0.154 A 
HETATM   23  N4  UNL     1       6.470  18.544  36.512  1.00  0.00    -0.268 N 
HETATM   24  N5  UNL     1       7.272  18.998  35.573  1.00  0.00    -0.227 N 
ATOM     25  H4  UNL     1       5.520  18.198  36.382  1.00  0.00     0.190 HD
HETATM   26  N6  UNL     1       8.422  19.361  36.092  1.00  0.00    -0.227 N 
ATOM     27  H5  UNL     1       7.035  19.059  34.583  1.00  0.00     0.210 HD
HETATM   28  N7  UNL     1       8.348  19.134  37.372  1.00  0.00    -0.268 N 
ATOM     29  H6  UNL     1       9.221  19.747  35.589  1.00  0.00     0.210 HD
ATOM     30  H7  UNL     1       9.094  19.317  38.044  1.00  0.00     0.190 HD
ENDBRANCH  20  22
ENDBRANCH   5  19
BRANCH  13  31
HETATM   31  N11 UNL     1       3.991  12.227  43.448  1.00  0.00    -0.384 N 
ATOM     32 2H11 UNL     1       3.003  12.472  43.512  1.00  0.00     0.157 HD
ATOM     33 1H11 UNL     1       4.513  12.057  44.307  1.00  0.00     0.157 HD
ENDBRANCH  13  31
TORSDOF 3
ENDMDL
MODEL 3
REMARK VINA RESULT: -7.762480568      2.440      3.843
REMARK  3 active torsions:
REMARK  status: ('A' for Active; 'I' for Inactive)
REMARK       I    between atoms: C1_4  and  N2_5 
REMARK       I    between atoms: C1_4  and  N8_19 
REMARK    1  A    between atoms: N2_5  and  N3_7 
REMARK    2  A    between atoms: C2_9  and  C3_10 
REMARK    3  A    between atoms: C5_25  and  N11_26 
ROOT
HETATM    1  N1  UNL     1       7.342  14.378  37.573  1.00  0.00    -0.232 N 
ATOM      2  H11 UNL     1       7.485  13.424  37.903  1.00  0.00     0.174 HD
ATOM      3  H12 UNL     1       7.531  14.583  36.592  1.00  0.00     0.174 HD
HETATM    4  C1  UNL     1       6.931  15.324  38.351  1.00  0.00     0.713 C 
HETATM    5  N2  UNL     1       6.733  16.643  37.895  1.00  0.00    -0.131 N 
ATOM      6  H2  UNL     1       6.544  16.821  36.909  1.00  0.00     0.205 HD
HETATM    7  N8  UNL     1       6.665  15.035  39.732  1.00  0.00    -0.069 N 
HETATM    8  N9  UNL     1       6.879  15.831  40.763  1.00  0.00    -0.221 N 
ATOM      9  H9  UNL     1       7.269  16.772  40.708  1.00  0.00     0.209 HD
HETATM   10  N10 UNL     1       6.506  15.217  41.891  1.00  0.00    -0.280 N 
ATOM     11  H10 UNL     1       6.566  15.614  42.829  1.00  0.00     0.189 HD
HETATM   12  C4  UNL     1       6.037  13.988  41.589  1.00  0.00     0.122 A 
HETATM   13  C5  UNL     1       5.533  12.960  42.363  1.00  0.00     0.129 A 
HETATM   14  N12 UNL     1       5.130  11.809  41.750  1.00  0.00    -0.351 N 
ATOM     15  H12 UNL     1       4.757  11.046  42.313  1.00  0.00     0.166 HD
HETATM   16  C6  UNL     1       5.214  11.663  40.415  1.00  0.00     0.092 A 
HETATM   17  C7  UNL     1       5.720  12.701  39.651  1.00  0.00     0.052 A 
HETATM   18  C8  UNL     1       6.143  13.886  40.217  1.00  0.00     0.109 A 
ENDROOT
BRANCH   5  19
HETATM   19  N3  UNL     1       6.796  17.696  38.790  1.00  0.00    -0.294 N 
HETATM   20  C2  UNL     1       6.253  18.836  38.546  1.00  0.00     0.159 C 
ATOM     21  H3  UNL     1       7.289  17.563  39.673  1.00  0.00     0.186 HD
BRANCH  20  22
HETATM   22  C3  UNL     1       5.536  19.092  37.308  1.00  0.00     0.154 A 
HETATM   23  N4  UNL     1       5.990  19.046  36.041  1.00  0.00    -0.268 N 
HETATM   24  N5  UNL     1       4.979  19.352  35.257  1.00  0.00    -0.227 N 
ATOM     25  H4  UNL     1       6.939  18.817  35.745  1.00  0.00     0.190 HD
HETATM   26  N6  UNL     1       3.904  19.589  35.971  1.00  0.00    -0.227 N 
ATOM     27  H5  UNL     1       5.024  19.398  34.239  1.00  0.00     0.210 HD
HETATM   28  N7  UNL     1       4.237  19.432  37.220  1.00  0.00    -0.268 N 
ATOM     29  H6  UNL     1       2.983  19.847  35.615  1.00  0.00     0.210 HD
ATOM     30  H7  UNL     1       3.606  19.551  38.014  1.00  0.00     0.190 HD
ENDBRANCH  20  22
ENDBRANCH   5  19
BRANCH  13  31
HETATM   31  N11 UNL     1       5.444  13.075  43.625  1.00  0.00    -0.384 N 
ATOM     32 2H11 UNL     1       6.267  12.935  44.211  1.00  0.00     0.157 HD
ATOM     33 1H11 UNL     1       4.556  13.307  44.069  1.00  0.00     0.157 HD
ENDBRANCH  13  31
TORSDOF 3
ENDMDL
MODEL 4
REMARK VINA RESULT: -7.644108529      1.678      2.444
REMARK  3 active torsions:
REMARK  status: ('A' for Active; 'I' for Inactive)
REMARK       I    between atoms: C1_4  and  N2_5 
REMARK       I    between atoms: C1_4  and  N8_19 
REMARK    1  A    between atoms: N2_5  and  N3_7 
REMARK    2  A    between atoms: C2_9  and  C3_10 
REMARK    3  A    between atoms: C5_25  and  N11_26 
ROOT
HETATM    1  N1  UNL     1       8.244  16.089  36.286  1.00  0.00    -0.232 N 
ATOM      2  H11 UNL     1       8.732  15.194  36.279  1.00  0.00     0.174 HD
ATOM      3  H12 UNL     1       8.298  16.674  35.452  1.00  0.00     0.174 HD
HETATM    4  C1  UNL     1       7.566  16.500  37.306  1.00  0.00     0.713 C 
HETATM    5  N2  UNL     1       6.891  17.737  37.314  1.00  0.00    -0.131 N 
ATOM      6  H2  UNL     1       6.601  18.168  36.436  1.00  0.00     0.205 HD
HETATM    7  N8  UNL     1       7.490  15.677  38.479  1.00  0.00    -0.069 N 
HETATM    8  N9  UNL     1       7.461  16.086  39.734  1.00  0.00    -0.221 N 
ATOM      9  H9  UNL     1       7.490  17.061  40.035  1.00  0.00     0.209 HD
HETATM   10  N10 UNL     1       7.388  15.030  40.551  1.00  0.00    -0.280 N 
ATOM     11  H10 UNL     1       7.352  15.072  41.570  1.00  0.00     0.189 HD
HETATM   12  C4  UNL     1       7.369  13.902  39.812  1.00  0.00     0.122 A 
HETATM   13  C5  UNL     1       7.302  12.562  40.146  1.00  0.00     0.129 A 
HETATM   14  N12 UNL     1       7.300  11.632  39.147  1.00  0.00    -0.351 N 
ATOM     15  H12 UNL     1       7.251  10.642  39.385  1.00  0.00     0.166 HD
HETATM   16  C6  UNL     1       7.363  11.998  37.854  1.00  0.00     0.092 A 
HETATM   17  C7  UNL     1       7.429  13.342  37.532  1.00  0.00     0.052 A 
HETATM   18  C8  UNL     1       7.434  14.326  38.500  1.00  0.00     0.109 A 
ENDROOT
BRANCH   5  19
HETATM   19  N3  UNL     1       6.623  18.365  38.517  1.00  0.00    -0.294 N 
HETATM   20  C2  UNL     1       5.637  19.179  38.660  1.00  0.00     0.159 C 
ATOM     21  H3  UNL     1       7.228  18.177  39.316  1.00  0.00     0.186 HD
BRANCH  20  22
HETATM   22  C3  UNL     1       4.738  19.491  37.562  1.00  0.00     0.154 A 
HETATM   23  N4  UNL     1       4.873  19.213  36.252  1.00  0.00    -0.268 N 
HETATM   24  N5  UNL     1       3.808  19.691  35.644  1.00  0.00    -0.227 N 
ATOM     25  H4  UNL     1       5.653  18.724  35.813  1.00  0.00     0.190 HD
HETATM   26  N6  UNL     1       3.005  20.260  36.512  1.00  0.00    -0.227 N 
ATOM     27  H5  UNL     1       3.633  19.629  34.641  1.00  0.00     0.210 HD
HETATM   28  N7  UNL     1       3.565  20.141  37.681  1.00  0.00    -0.268 N 
ATOM     29  H6  UNL     1       2.111  20.709  36.309  1.00  0.00     0.210 HD
ATOM     30  H7  UNL     1       3.174  20.489  38.556  1.00  0.00     0.190 HD
ENDBRANCH  20  22
ENDBRANCH   5  19
BRANCH  13  31
HETATM   31  N11 UNL     1       7.243  12.194  41.360  1.00  0.00    -0.384 N 
ATOM     32 2H11 UNL     1       7.632  12.786  42.094  1.00  0.00     0.157 HD
ATOM     33 1H11 UNL     1       6.810  11.308  41.618  1.00  0.00     0.157 HD
ENDBRANCH  13  31
TORSDOF 3
ENDMDL
MODEL 5
REMARK VINA RESULT: -7.634387770      3.789      6.328
REMARK  3 active torsions:
REMARK  status: ('A' for Active; 'I' for Inactive)
REMARK       I    between atoms: C1_4  and  N2_5 
REMARK       I    between atoms: C1_4  and  N8_19 
REMARK    1  A    between atoms: N2_5  and  N3_7 
REMARK    2  A    between atoms: C2_9  and  C3_10 
REMARK    3  A    between atoms: C5_25  and  N11_26 
ROOT
HETATM    1  N1  UNL     1       6.563  15.655  41.001  1.00  0.00    -0.232 N 
ATOM      2  H11 UNL     1       5.750  15.606  41.615  1.00  0.00     0.174 HD
ATOM      3  H12 UNL     1       7.114  16.513  40.998  1.00  0.00     0.174 HD
HETATM    4  C1  UNL     1       6.912  14.674  40.236  1.00  0.00     0.713 C 
HETATM    5  N2  UNL     1       8.036  14.742  39.388  1.00  0.00    -0.131 N 
ATOM      6  H2  UNL     1       8.803  15.378  39.605  1.00  0.00     0.205 HD
HETATM    7  N8  UNL     1       6.136  13.466  40.240  1.00  0.00    -0.069 N 
HETATM    8  N9  UNL     1       5.881  12.685  39.207  1.00  0.00    -0.221 N 
ATOM      9  H9  UNL     1       6.210  12.844  38.254  1.00  0.00     0.209 HD
HETATM   10  N10 UNL     1       5.126  11.653  39.598  1.00  0.00    -0.280 N 
ATOM     11  H10 UNL     1       4.790  10.903  38.993  1.00  0.00     0.189 HD
HETATM   12  C4  UNL     1       4.881  11.763  40.920  1.00  0.00     0.122 A 
HETATM   13  C5  UNL     1       4.167  10.982  41.810  1.00  0.00     0.129 A 
HETATM   14  N12 UNL     1       4.101  11.366  43.118  1.00  0.00    -0.351 N 
ATOM     15  H12 UNL     1       3.578  10.795  43.781  1.00  0.00     0.166 HD
HETATM   16  C6  UNL     1       4.715  12.483  43.550  1.00  0.00     0.092 A 
HETATM   17  C7  UNL     1       5.426  13.256  42.649  1.00  0.00     0.052 A 
HETATM   18  C8  UNL     1       5.527  12.917  41.315  1.00  0.00     0.109 A 
ENDROOT
BRANCH   5  19
HETATM   19  N3  UNL     1       8.095  13.943  38.261  1.00  0.00    -0.294 N 
HETATM   20  C2  UNL     1       7.889  14.409  37.079  1.00  0.00     0.159 C 
ATOM     21  H3  UNL     1       8.309  12.952  38.370  1.00  0.00     0.186 HD
BRANCH  20  22
HETATM   22  C3  UNL     1       7.579  15.811  36.854  1.00  0.00     0.154 A 
HETATM   23  N4  UNL     1       6.463  16.494  37.174  1.00  0.00    -0.268 N 
HETATM   24  N5  UNL     1       6.641  17.734  36.772  1.00  0.00    -0.227 N 
ATOM     25  H4  UNL     1       5.636  16.120  37.639  1.00  0.00     0.190 HD
HETATM   26  N6  UNL     1       7.820  17.867  36.213  1.00  0.00    -0.227 N 
ATOM     27  H5  UNL     1       5.959  18.485  36.881  1.00  0.00     0.210 HD
HETATM   28  N7  UNL     1       8.395  16.700  36.259  1.00  0.00    -0.268 N 
ATOM     29  H6  UNL     1       8.212  18.722  35.817  1.00  0.00     0.210 HD
ATOM     30  H7  UNL     1       9.327  16.491  35.898  1.00  0.00     0.190 HD
ENDBRANCH  20  22
ENDBRANCH   5  19
BRANCH  13  31
HETATM   31  N11 UNL     1       3.580   9.924  41.426  1.00  0.00    -0.384 N 
ATOM     32 2H11 UNL     1       2.731   9.985  40.864  1.00  0.00     0.157 HD
ATOM     33 1H11 UNL     1       3.945   9.004  41.670  1.00  0.00     0.157 HD
ENDBRANCH  13  31
TORSDOF 3
ENDMDL
