MODEL 1
REMARK VINA RESULT: -7.704269669      0.000      0.000
REMARK  4 active torsions:
REMARK  status: ('A' for Active; 'I' for Inactive)
REMARK    1  A    between atoms: C2_2  and  C3_8 
REMARK    2  A    between atoms: N1_3  and  N2_5 
REMARK    3  A    between atoms: N5_13  and  C4_14 
REMARK    4  A    between atoms: C8_22  and  N9_23 
ROOT
HETATM    1  C4  UNL     1       6.526  14.791  39.249  1.00  0.00     0.708 A 
HETATM    2  N6  UNL     1       6.490  15.195  40.522  1.00  0.00    -0.175 N 
ATOM      3  H6  UNL     1       6.830  16.134  40.728  1.00  0.00     0.185 HD
HETATM    4  C5  UNL     1       6.040  14.456  41.554  1.00  0.00     0.156 A 
HETATM    5  N7  UNL     1       6.017  14.915  42.886  1.00  0.00    -0.080 NA
HETATM    6  C6  UNL     1       5.578  13.171  41.257  1.00  0.00     0.130 A 
HETATM    7  C7  UNL     1       5.094  12.372  42.348  1.00  0.00     0.106 C 
HETATM    8  N8  UNL     1       4.699  11.719  43.210  1.00  0.00    -0.191 NA
HETATM    9  C8  UNL     1       5.601  12.724  39.954  1.00  0.00     0.139 A 
HETATM   10  N10 UNL     1       6.065  13.529  38.998  1.00  0.00    -0.173 N 
ATOM     11  H10 UNL     1       6.078  13.188  38.036  1.00  0.00     0.186 HD
ENDROOT
BRANCH   9  12
HETATM   12  N9  UNL     1       5.165  11.532  39.716  1.00  0.00    -0.384 N 
ATOM     13  H92 UNL     1       5.422  10.724  40.284  1.00  0.00     0.157 HD
ATOM     14  H91 UNL     1       4.536  11.403  38.923  1.00  0.00     0.157 HD
ENDBRANCH   9  12
BRANCH   1  15
HETATM   15  N5  UNL     1       7.000  15.576  38.183  1.00  0.00    -0.074 N 
HETATM   16  N4  UNL     1       7.734  15.158  37.182  1.00  0.00    -0.221 N 
HETATM   17  N3  UNL     1       8.006  16.154  36.354  1.00  0.00    -0.282 N 
ATOM     18  H4  UNL     1       8.052  14.197  37.057  1.00  0.00     0.209 HD
HETATM   19  C3  UNL     1       7.418  17.284  36.842  1.00  0.00     0.098 A 
ATOM     20  H3  UNL     1       8.559  16.088  35.500  1.00  0.00     0.188 HD
HETATM   21  C9  UNL     1       6.792  16.889  37.994  1.00  0.00     0.080 A 
HETATM   22  C10 UNL     1       6.005  17.763  38.900  1.00  0.00     0.074 C 
BRANCH  19  23
HETATM   23  C2  UNL     1       7.488  18.593  36.209  1.00  0.00     0.051 C 
HETATM   24  C1  UNL     1       6.399  19.216  35.442  1.00  0.00     0.072 C 
HETATM   25  N1  UNL     1       8.588  19.308  36.306  1.00  0.00    -0.309 N 
ATOM     26  H1  UNL     1       8.618  20.222  35.856  1.00  0.00     0.186 HD
BRANCH  25  27
HETATM   27  N2  UNL     1       9.707  18.870  36.993  1.00  0.00    -0.345 N 
ATOM     28  H22 UNL     1      10.070  17.946  36.763  1.00  0.00     0.176 HD
ATOM     29  H21 UNL     1      10.171  19.431  37.707  1.00  0.00     0.176 HD
ENDBRANCH  25  27
ENDBRANCH  19  23
ENDBRANCH   1  15
TORSDOF 4
ENDMDL
MODEL 2
REMARK VINA RESULT: -7.314527920      1.875      2.062
REMARK  4 active torsions:
REMARK  status: ('A' for Active; 'I' for Inactive)
REMARK    1  A    between atoms: C2_2  and  C3_8 
REMARK    2  A    between atoms: N1_3  and  N2_5 
REMARK    3  A    between atoms: N5_13  and  C4_14 
REMARK    4  A    between atoms: C8_22  and  N9_23 
ROOT
HETATM    1  C4  UNL     1       7.784  13.973  38.584  1.00  0.00     0.708 A 
HETATM    2  N6  UNL     1       8.801  13.513  39.320  1.00  0.00    -0.175 N 
ATOM      3  H6  UNL     1       9.707  13.968  39.207  1.00  0.00     0.185 HD
HETATM    4  C5  UNL     1       8.721  12.496  40.198  1.00  0.00     0.156 A 
HETATM    5  N7  UNL     1       9.815  12.037  40.958  1.00  0.00    -0.080 NA
HETATM    6  C6  UNL     1       7.473  11.882  40.342  1.00  0.00     0.130 A 
HETATM    7  C7  UNL     1       7.373  10.795  41.276  1.00  0.00     0.106 C 
HETATM    8  N8  UNL     1       7.273   9.925  42.022  1.00  0.00    -0.191 NA
HETATM    9  C8  UNL     1       6.404  12.332  39.598  1.00  0.00     0.139 A 
HETATM   10  N10 UNL     1       6.581  13.348  38.752  1.00  0.00    -0.173 N 
ATOM     11  H10 UNL     1       5.782  13.673  38.207  1.00  0.00     0.186 HD
ENDROOT
BRANCH   9  12
HETATM   12  N9  UNL     1       5.266  11.742  39.758  1.00  0.00    -0.384 N 
ATOM     13  H92 UNL     1       4.612  11.993  40.499  1.00  0.00     0.157 HD
ATOM     14  H91 UNL     1       5.022  10.993  39.109  1.00  0.00     0.157 HD
ENDBRANCH   9  12
BRANCH   1  15
HETATM   15  N5  UNL     1       7.886  15.037  37.671  1.00  0.00    -0.074 N 
HETATM   16  N4  UNL     1       8.433  14.985  36.482  1.00  0.00    -0.221 N 
HETATM   17  N3  UNL     1       8.362  16.162  35.883  1.00  0.00    -0.282 N 
ATOM     18  H4  UNL     1       8.855  14.151  36.074  1.00  0.00     0.209 HD
HETATM   19  C3  UNL     1       7.734  17.031  36.727  1.00  0.00     0.098 A 
ATOM     20  H3  UNL     1       8.715  16.382  34.952  1.00  0.00     0.188 HD
HETATM   21  C9  UNL     1       7.448  16.294  37.844  1.00  0.00     0.080 A 
HETATM   22  C10 UNL     1       6.760  16.792  39.062  1.00  0.00     0.074 C 
BRANCH  19  23
HETATM   23  C2  UNL     1       7.465  18.429  36.426  1.00  0.00     0.051 C 
HETATM   24  C1  UNL     1       6.144  18.977  36.086  1.00  0.00     0.072 C 
HETATM   25  N1  UNL     1       8.448  19.304  36.449  1.00  0.00    -0.309 N 
ATOM     26  H1  UNL     1       8.239  20.279  36.235  1.00  0.00     0.186 HD
BRANCH  25  27
HETATM   27  N2  UNL     1       9.753  18.956  36.750  1.00  0.00    -0.345 N 
ATOM     28  H22 UNL     1      10.192  18.233  36.181  1.00  0.00     0.176 HD
ATOM     29  H21 UNL     1      10.280  19.390  37.508  1.00  0.00     0.176 HD
ENDBRANCH  25  27
ENDBRANCH  19  23
ENDBRANCH   1  15
TORSDOF 4
ENDMDL
MODEL 3
REMARK VINA RESULT: -7.222232203      1.940      2.487
REMARK  4 active torsions:
REMARK  status: ('A' for Active; 'I' for Inactive)
REMARK    1  A    between atoms: C2_2  and  C3_8 
REMARK    2  A    between atoms: N1_3  and  N2_5 
REMARK    3  A    between atoms: N5_13  and  C4_14 
REMARK    4  A    between atoms: C8_22  and  N9_23 
ROOT
HETATM    1  C4  UNL     1       7.081  14.836  39.575  1.00  0.00     0.708 A 
HETATM    2  N6  UNL     1       6.040  14.092  39.964  1.00  0.00    -0.175 N 
ATOM      3  H6  UNL     1       5.109  14.496  39.863  1.00  0.00     0.185 HD
HETATM    4  C5  UNL     1       6.128  12.850  40.477  1.00  0.00     0.156 A 
HETATM    5  N7  UNL     1       5.009  12.094  40.877  1.00  0.00    -0.080 NA
HETATM    6  C6  UNL     1       7.411  12.310  40.608  1.00  0.00     0.130 A 
HETATM    7  C7  UNL     1       7.519  10.986  41.154  1.00  0.00     0.106 C 
HETATM    8  N8  UNL     1       7.625   9.924  41.586  1.00  0.00    -0.191 NA
HETATM    9  C8  UNL     1       8.505  13.051  40.217  1.00  0.00     0.139 A 
HETATM   10  N10 UNL     1       8.317  14.275  39.719  1.00  0.00    -0.173 N 
ATOM     11  H10 UNL     1       9.134  14.814  39.432  1.00  0.00     0.186 HD
ENDROOT
BRANCH   9  12
HETATM   12  N9  UNL     1       9.674  12.520  40.351  1.00  0.00    -0.384 N 
ATOM     13  H92 UNL     1      10.476  13.032  40.719  1.00  0.00     0.157 HD
ATOM     14  H91 UNL     1       9.790  11.545  40.074  1.00  0.00     0.157 HD
ENDBRANCH   9  12
BRANCH   1  15
HETATM   15  N5  UNL     1       6.970  16.132  39.042  1.00  0.00    -0.074 N 
HETATM   16  N4  UNL     1       6.590  17.205  39.690  1.00  0.00    -0.221 N 
HETATM   17  N3  UNL     1       6.597  18.261  38.892  1.00  0.00    -0.282 N 
ATOM     18  H4  UNL     1       6.325  17.224  40.675  1.00  0.00     0.209 HD
HETATM   19  C3  UNL     1       7.003  17.855  37.655  1.00  0.00     0.098 A 
ATOM     20  H3  UNL     1       6.342  19.212  39.157  1.00  0.00     0.188 HD
HETATM   21  C9  UNL     1       7.231  16.511  37.780  1.00  0.00     0.080 A 
HETATM   22  C10 UNL     1       7.693  15.602  36.700  1.00  0.00     0.074 C 
BRANCH  19  23
HETATM   23  C2  UNL     1       7.141  18.730  36.500  1.00  0.00     0.051 C 
HETATM   24  C1  UNL     1       6.046  19.107  35.596  1.00  0.00     0.072 C 
HETATM   25  N1  UNL     1       8.316  19.245  36.207  1.00  0.00    -0.309 N 
ATOM     26  H1  UNL     1       8.392  19.856  35.394  1.00  0.00     0.186 HD
BRANCH  25  27
HETATM   27  N2  UNL     1       9.452  18.993  36.956  1.00  0.00    -0.345 N 
ATOM     28  H22 UNL     1       9.387  18.289  37.690  1.00  0.00     0.176 HD
ATOM     29  H21 UNL     1      10.335  19.479  36.800  1.00  0.00     0.176 HD
ENDBRANCH  25  27
ENDBRANCH  19  23
ENDBRANCH   1  15
TORSDOF 4
ENDMDL
MODEL 4
REMARK VINA RESULT: -7.221996414      1.971      2.374
REMARK  4 active torsions:
REMARK  status: ('A' for Active; 'I' for Inactive)
REMARK    1  A    between atoms: C2_2  and  C3_8 
REMARK    2  A    between atoms: N1_3  and  N2_5 
REMARK    3  A    between atoms: N5_13  and  C4_14 
REMARK    4  A    between atoms: C8_22  and  N9_23 
ROOT
HETATM    1  C4  UNL     1       7.187  14.836  39.605  1.00  0.00     0.708 A 
HETATM    2  N6  UNL     1       8.358  14.217  39.785  1.00  0.00    -0.175 N 
ATOM      3  H6  UNL     1       9.203  14.720  39.512  1.00  0.00     0.185 HD
HETATM    4  C5  UNL     1       8.509  12.982  40.300  1.00  0.00     0.156 A 
HETATM    5  N7  UNL     1       9.760  12.361  40.475  1.00  0.00    -0.080 NA
HETATM    6  C6  UNL     1       7.342  12.306  40.670  1.00  0.00     0.130 A 
HETATM    7  C7  UNL     1       7.487  10.988  41.221  1.00  0.00     0.106 C 
HETATM    8  N8  UNL     1       7.585   9.931  41.668  1.00  0.00    -0.191 NA
HETATM    9  C8  UNL     1       6.118  12.916  40.497  1.00  0.00     0.139 A 
HETATM   10  N10 UNL     1       6.070  14.143  39.979  1.00  0.00    -0.173 N 
ATOM     11  H10 UNL     1       5.159  14.585  39.856  1.00  0.00     0.186 HD
ENDROOT
BRANCH   9  12
HETATM   12  N9  UNL     1       5.063  12.262  40.851  1.00  0.00    -0.384 N 
ATOM     13  H92 UNL     1       5.026  11.681  41.690  1.00  0.00     0.157 HD
ATOM     14  H91 UNL     1       4.235  12.334  40.259  1.00  0.00     0.157 HD
ENDBRANCH   9  12
BRANCH   1  15
HETATM   15  N5  UNL     1       7.049  16.126  39.065  1.00  0.00    -0.074 N 
HETATM   16  N4  UNL     1       6.675  17.200  39.714  1.00  0.00    -0.221 N 
HETATM   17  N3  UNL     1       6.651  18.249  38.908  1.00  0.00    -0.282 N 
ATOM     18  H4  UNL     1       6.436  17.225  40.706  1.00  0.00     0.209 HD
HETATM   19  C3  UNL     1       7.029  17.838  37.664  1.00  0.00     0.098 A 
ATOM     20  H3  UNL     1       6.393  19.200  39.172  1.00  0.00     0.188 HD
HETATM   21  C9  UNL     1       7.273  16.497  37.794  1.00  0.00     0.080 A 
HETATM   22  C10 UNL     1       7.717  15.585  36.709  1.00  0.00     0.074 C 
BRANCH  19  23
HETATM   23  C2  UNL     1       7.128  18.705  36.499  1.00  0.00     0.051 C 
HETATM   24  C1  UNL     1       6.014  19.035  35.599  1.00  0.00     0.072 C 
HETATM   25  N1  UNL     1       8.282  19.257  36.192  1.00  0.00    -0.309 N 
ATOM     26  H1  UNL     1       8.331  19.862  35.372  1.00  0.00     0.186 HD
BRANCH  25  27
HETATM   27  N2  UNL     1       9.432  19.052  36.934  1.00  0.00    -0.345 N 
ATOM     28  H22 UNL     1       9.422  18.298  37.621  1.00  0.00     0.176 HD
ATOM     29  H21 UNL     1      10.272  19.620  36.820  1.00  0.00     0.176 HD
ENDBRANCH  25  27
ENDBRANCH  19  23
ENDBRANCH   1  15
TORSDOF 4
ENDMDL
MODEL 5
REMARK VINA RESULT: -7.197813234      1.327      6.713
REMARK  4 active torsions:
REMARK  status: ('A' for Active; 'I' for Inactive)
REMARK    1  A    between atoms: C2_2  and  C3_8 
REMARK    2  A    between atoms: N1_3  and  N2_5 
REMARK    3  A    between atoms: N5_13  and  C4_14 
REMARK    4  A    between atoms: C8_22  and  N9_23 
ROOT
HETATM    1  C4  UNL     1       6.608  15.257  38.744  1.00  0.00     0.708 A 
HETATM    2  N6  UNL     1       6.317  16.479  39.202  1.00  0.00    -0.175 N 
ATOM      3  H6  UNL     1       5.748  16.543  40.046  1.00  0.00     0.185 HD
HETATM    4  C5  UNL     1       6.718  17.632  38.634  1.00  0.00     0.156 A 
HETATM    5  N7  UNL     1       6.392  18.904  39.144  1.00  0.00    -0.080 NA
HETATM    6  C6  UNL     1       7.497  17.529  37.478  1.00  0.00     0.130 A 
HETATM    7  C7  UNL     1       7.932  18.751  36.861  1.00  0.00     0.106 C 
HETATM    8  N8  UNL     1       8.292  19.720  36.355  1.00  0.00    -0.191 NA
HETATM    9  C8  UNL     1       7.815  16.284  36.980  1.00  0.00     0.139 A 
HETATM   10  N10 UNL     1       7.371  15.197  37.613  1.00  0.00    -0.173 N 
ATOM     11  H10 UNL     1       7.613  14.280  37.236  1.00  0.00     0.186 HD
ENDROOT
BRANCH   9  12
HETATM   12  N9  UNL     1       8.537  16.227  35.911  1.00  0.00    -0.384 N 
ATOM     13  H92 UNL     1       8.168  16.429  34.982  1.00  0.00     0.157 HD
ATOM     14  H91 UNL     1       9.519  15.968  36.012  1.00  0.00     0.157 HD
ENDBRANCH   9  12
BRANCH   1  15
HETATM   15  N5  UNL     1       6.180  14.063  39.351  1.00  0.00    -0.074 N 
HETATM   16  N4  UNL     1       5.936  12.931  38.741  1.00  0.00    -0.221 N 
HETATM   17  N3  UNL     1       5.551  12.007  39.607  1.00  0.00    -0.282 N 
ATOM     18  H4  UNL     1       6.030  12.781  37.737  1.00  0.00     0.209 HD
HETATM   19  C3  UNL     1       5.543  12.567  40.851  1.00  0.00     0.098 A 
ATOM     20  H3  UNL     1       5.304  11.043  39.383  1.00  0.00     0.188 HD
HETATM   21  C9  UNL     1       5.943  13.862  40.658  1.00  0.00     0.080 A 
HETATM   22  C10 UNL     1       6.096  14.892  41.716  1.00  0.00     0.074 C 
BRANCH  19  23
HETATM   23  C2  UNL     1       5.176  11.867  42.072  1.00  0.00     0.051 C 
HETATM   24  C1  UNL     1       3.811  11.775  42.611  1.00  0.00     0.072 C 
HETATM   25  N1  UNL     1       6.102  11.254  42.778  1.00  0.00    -0.309 N 
ATOM     26  H1  UNL     1       5.824  10.769  43.631  1.00  0.00     0.186 HD
BRANCH  25  27
HETATM   27  N2  UNL     1       7.437  11.242  42.412  1.00  0.00    -0.345 N 
ATOM     28  H22 UNL     1       7.729  11.879  41.672  1.00  0.00     0.176 HD
ATOM     29  H21 UNL     1       8.123  10.628  42.850  1.00  0.00     0.176 HD
ENDBRANCH  25  27
ENDBRANCH  19  23
ENDBRANCH   1  15
TORSDOF 4
ENDMDL
