MODEL 1
REMARK VINA RESULT: -6.214637314      0.000      0.000
REMARK  5 active torsions:
REMARK  status: ('A' for Active; 'I' for Inactive)
REMARK    1  A    between atoms: N1_4  and  C4_5 
REMARK    2  A    between atoms: C4_5  and  C5_6 
REMARK    3  A    between atoms: C5_6  and  C6_7 
REMARK    4  A    between atoms: C6_7  and  C7_8 
REMARK    5  A    between atoms: C7_8  and  N2_9 
ROOT
HETATM    1  C5  UNL     1      37.076  73.348  34.233  1.00  0.00     0.022 C 
ENDROOT
BRANCH   1   2
HETATM    2  C4  UNL     1      37.479  71.889  34.219  1.00  0.00     0.128 C 
BRANCH   2   3
HETATM    3  N1  UNL     1      37.085  71.245  35.443  1.00  0.00    -0.366 N 
HETATM    4  C3  UNL     1      37.953  70.423  36.057  1.00  0.00     0.090 A 
HETATM    5  C2  UNL     1      37.638  69.777  37.230  1.00  0.00     0.017 A 
HETATM    6  C1  UNL     1      36.411  69.948  37.829  1.00  0.00     0.003 A 
HETATM    7  C14 UNL     1      35.521  70.795  37.194  1.00  0.00     0.017 A 
HETATM    8  C13 UNL     1      35.869  71.426  36.020  1.00  0.00     0.090 A 
ENDBRANCH   2   3
ENDBRANCH   1   2
BRANCH   1   9
HETATM    9  C6  UNL     1      38.320  74.188  34.526  1.00  0.00     0.021 C 
BRANCH   9  10
HETATM   10  C7  UNL     1      37.953  75.084  35.696  1.00  0.00     0.122 C 
BRANCH  10  11
HETATM   11  N2  UNL     1      37.932  74.385  36.947  1.00  0.00    -0.385 N 
HETATM   12  C8  UNL     1      38.961  73.656  37.453  1.00  0.00     0.082 A 
HETATM   13  C9  UNL     1      38.593  73.133  38.660  1.00  0.00    -0.003 A 
HETATM   14  C10 UNL     1      37.291  73.526  38.957  1.00  0.00     0.034 A 
HETATM   15  C11 UNL     1      36.031  74.101  38.899  1.00  0.00     0.036 A 
HETATM   16  C12 UNL     1      36.886  74.353  37.802  1.00  0.00     0.092 A 
ENDBRANCH  10  11
ENDBRANCH   9  10
ENDBRANCH   1   9
TORSDOF 5
ENDMDL
MODEL 2
REMARK VINA RESULT: -6.203641727      0.043      1.167
REMARK  5 active torsions:
REMARK  status: ('A' for Active; 'I' for Inactive)
REMARK    1  A    between atoms: N1_4  and  C4_5 
REMARK    2  A    between atoms: C4_5  and  C5_6 
REMARK    3  A    between atoms: C5_6  and  C6_7 
REMARK    4  A    between atoms: C6_7  and  C7_8 
REMARK    5  A    between atoms: C7_8  and  N2_9 
ROOT
HETATM    1  C5  UNL     1      37.006  73.371  34.270  1.00  0.00     0.022 C 
ENDROOT
BRANCH   1   2
HETATM    2  C4  UNL     1      37.420  71.917  34.197  1.00  0.00     0.128 C 
BRANCH   2   3
HETATM    3  N1  UNL     1      37.105  71.241  35.426  1.00  0.00    -0.366 N 
HETATM    4  C3  UNL     1      35.898  71.430  35.985  1.00  0.00     0.090 A 
HETATM    5  C2  UNL     1      35.536  70.813  37.159  1.00  0.00     0.017 A 
HETATM    6  C1  UNL     1      36.402  69.970  37.817  1.00  0.00     0.003 A 
HETATM    7  C14 UNL     1      37.644  69.779  37.239  1.00  0.00     0.017 A 
HETATM    8  C13 UNL     1      37.974  70.412  36.062  1.00  0.00     0.090 A 
ENDBRANCH   2   3
ENDBRANCH   1   2
BRANCH   1   9
HETATM    9  C6  UNL     1      38.254  74.215  34.535  1.00  0.00     0.021 C 
BRANCH   9  10
HETATM   10  C7  UNL     1      37.915  75.104  35.718  1.00  0.00     0.122 C 
BRANCH  10  11
HETATM   11  N2  UNL     1      37.904  74.395  36.964  1.00  0.00    -0.385 N 
HETATM   12  C8  UNL     1      38.936  73.658  37.452  1.00  0.00     0.082 A 
HETATM   13  C9  UNL     1      38.578  73.126  38.658  1.00  0.00    -0.003 A 
HETATM   14  C10 UNL     1      37.282  73.522  38.973  1.00  0.00     0.034 A 
HETATM   15  C11 UNL     1      36.024  74.102  38.934  1.00  0.00     0.036 A 
HETATM   16  C12 UNL     1      36.868  74.360  37.830  1.00  0.00     0.092 A 
ENDBRANCH  10  11
ENDBRANCH   9  10
ENDBRANCH   1   9
TORSDOF 5
ENDMDL
MODEL 3
REMARK VINA RESULT: -6.102919814      1.297      3.420
REMARK  5 active torsions:
REMARK  status: ('A' for Active; 'I' for Inactive)
REMARK    1  A    between atoms: N1_4  and  C4_5 
REMARK    2  A    between atoms: C4_5  and  C5_6 
REMARK    3  A    between atoms: C5_6  and  C6_7 
REMARK    4  A    between atoms: C6_7  and  C7_8 
REMARK    5  A    between atoms: C7_8  and  N2_9 
ROOT
HETATM    1  C5  UNL     1      37.270  74.517  37.739  1.00  0.00     0.022 C 
ENDROOT
BRANCH   1   2
HETATM    2  C4  UNL     1      37.634  73.371  38.659  1.00  0.00     0.128 C 
BRANCH   2   3
HETATM    3  N1  UNL     1      37.107  72.133  38.154  1.00  0.00    -0.366 N 
HETATM    4  C3  UNL     1      35.811  72.068  37.806  1.00  0.00     0.090 A 
HETATM    5  C2  UNL     1      35.247  70.913  37.316  1.00  0.00     0.017 A 
HETATM    6  C1  UNL     1      35.992  69.766  37.162  1.00  0.00     0.003 A 
HETATM    7  C14 UNL     1      37.326  69.837  37.523  1.00  0.00     0.017 A 
HETATM    8  C13 UNL     1      37.858  71.010  38.009  1.00  0.00     0.090 A 
ENDBRANCH   2   3
ENDBRANCH   1   2
BRANCH   1   9
HETATM    9  C6  UNL     1      38.484  74.836  36.864  1.00  0.00     0.021 C 
BRANCH   9  10
HETATM   10  C7  UNL     1      37.956  74.959  35.446  1.00  0.00     0.122 C 
BRANCH  10  11
HETATM   11  N2  UNL     1      37.588  73.697  34.876  1.00  0.00    -0.385 N 
HETATM   12  C8  UNL     1      38.412  72.622  34.761  1.00  0.00     0.082 A 
HETATM   13  C9  UNL     1      37.731  71.594  34.174  1.00  0.00    -0.003 A 
HETATM   14  C10 UNL     1      36.429  71.999  33.895  1.00  0.00     0.034 A 
HETATM   15  C11 UNL     1      35.266  72.743  33.782  1.00  0.00     0.036 A 
HETATM   16  C12 UNL     1      36.371  73.395  34.374  1.00  0.00     0.092 A 
ENDBRANCH  10  11
ENDBRANCH   9  10
ENDBRANCH   1   9
TORSDOF 5
ENDMDL
MODEL 4
REMARK VINA RESULT: -6.036370221      1.458      3.813
REMARK  5 active torsions:
REMARK  status: ('A' for Active; 'I' for Inactive)
REMARK    1  A    between atoms: N1_4  and  C4_5 
REMARK    2  A    between atoms: C4_5  and  C5_6 
REMARK    3  A    between atoms: C5_6  and  C6_7 
REMARK    4  A    between atoms: C6_7  and  C7_8 
REMARK    5  A    between atoms: C7_8  and  N2_9 
ROOT
HETATM    1  C5  UNL     1      38.025  73.783  38.470  1.00  0.00     0.022 C 
ENDROOT
BRANCH   1   2
HETATM    2  C4  UNL     1      37.736  74.360  37.100  1.00  0.00     0.128 C 
BRANCH   2   3
HETATM    3  N1  UNL     1      36.693  73.614  36.450  1.00  0.00    -0.366 N 
HETATM    4  C3  UNL     1      36.806  73.341  35.139  1.00  0.00     0.090 A 
HETATM    5  C2  UNL     1      35.844  72.633  34.458  1.00  0.00     0.017 A 
HETATM    6  C1  UNL     1      34.715  72.171  35.096  1.00  0.00     0.003 A 
HETATM    7  C14 UNL     1      34.602  72.456  36.445  1.00  0.00     0.017 A 
HETATM    8  C13 UNL     1      35.585  73.167  37.096  1.00  0.00     0.090 A 
ENDBRANCH   2   3
ENDBRANCH   1   2
BRANCH   1   9
HETATM    9  C6  UNL     1      39.441  73.207  38.461  1.00  0.00     0.021 C 
BRANCH   9  10
HETATM   10  C7  UNL     1      39.295  71.733  38.798  1.00  0.00     0.122 C 
BRANCH  10  11
HETATM   11  N2  UNL     1      38.651  70.985  37.759  1.00  0.00    -0.385 N 
HETATM   12  C8  UNL     1      39.136  70.819  36.501  1.00  0.00     0.082 A 
HETATM   13  C9  UNL     1      38.266  70.050  35.781  1.00  0.00    -0.003 A 
HETATM   14  C10 UNL     1      37.183  69.702  36.583  1.00  0.00     0.034 A 
HETATM   15  C11 UNL     1      36.309  69.570  37.650  1.00  0.00     0.036 A 
HETATM   16  C12 UNL     1      37.473  70.337  37.884  1.00  0.00     0.092 A 
ENDBRANCH  10  11
ENDBRANCH   9  10
ENDBRANCH   1   9
TORSDOF 5
ENDMDL
MODEL 5
REMARK VINA RESULT: -6.030249568      1.275      3.623
REMARK  5 active torsions:
REMARK  status: ('A' for Active; 'I' for Inactive)
REMARK    1  A    between atoms: N1_4  and  C4_5 
REMARK    2  A    between atoms: C4_5  and  C5_6 
REMARK    3  A    between atoms: C5_6  and  C6_7 
REMARK    4  A    between atoms: C6_7  and  C7_8 
REMARK    5  A    between atoms: C7_8  and  N2_9 
ROOT
HETATM    1  C5  UNL     1      37.224  74.512  37.805  1.00  0.00     0.022 C 
ENDROOT
BRANCH   1   2
HETATM    2  C4  UNL     1      37.466  73.357  38.753  1.00  0.00     0.128 C 
BRANCH   2   3
HETATM    3  N1  UNL     1      37.004  72.124  38.175  1.00  0.00    -0.366 N 
HETATM    4  C3  UNL     1      35.798  72.093  37.582  1.00  0.00     0.090 A 
HETATM    5  C2  UNL     1      35.298  70.946  37.011  1.00  0.00     0.017 A 
HETATM    6  C1  UNL     1      36.019  69.773  37.023  1.00  0.00     0.003 A 
HETATM    7  C14 UNL     1      37.259  69.810  37.634  1.00  0.00     0.017 A 
HETATM    8  C13 UNL     1      37.729  70.976  38.196  1.00  0.00     0.090 A 
ENDBRANCH   2   3
ENDBRANCH   1   2
BRANCH   1   9
HETATM    9  C6  UNL     1      38.475  74.701  36.946  1.00  0.00     0.021 C 
BRANCH   9  10
HETATM   10  C7  UNL     1      37.978  74.959  35.534  1.00  0.00     0.122 C 
BRANCH  10  11
HETATM   11  N2  UNL     1      37.607  73.758  34.846  1.00  0.00    -0.385 N 
HETATM   12  C8  UNL     1      36.491  73.607  34.086  1.00  0.00     0.082 A 
HETATM   13  C9  UNL     1      36.457  72.337  33.583  1.00  0.00    -0.003 A 
HETATM   14  C10 UNL     1      37.577  71.635  34.021  1.00  0.00     0.034 A 
HETATM   15  C11 UNL     1      38.767  71.286  34.637  1.00  0.00     0.036 A 
HETATM   16  C12 UNL     1      38.314  72.607  34.853  1.00  0.00     0.092 A 
ENDBRANCH  10  11
ENDBRANCH   9  10
ENDBRANCH   1   9
TORSDOF 5
ENDMDL
