MODEL 1
REMARK VINA RESULT: -6.494844068      0.000      0.000
REMARK  5 active torsions:
REMARK  status: ('A' for Active; 'I' for Inactive)
REMARK    1  A    between atoms: N1_1  and  C1_5 
REMARK    2  A    between atoms: C1_5  and  C2_6 
REMARK    3  A    between atoms: C2_6  and  C3_7 
REMARK    4  A    between atoms: N2_12  and  C8_13 
REMARK    5  A    between atoms: C8_13  and  C9_14 
ROOT
HETATM    1  C3  UNL     1      40.218  72.820  36.317  1.00  0.00     0.013 A 
HETATM    2  C4  UNL     1      41.235  72.102  36.980  1.00  0.00     0.025 A 
HETATM    3  C5  UNL     1      41.247  71.997  38.347  1.00  0.00     0.003 A 
HETATM    4  C6  UNL     1      40.221  72.627  39.015  1.00  0.00     0.017 A 
HETATM    5  C7  UNL     1      39.246  73.319  38.332  1.00  0.00     0.091 A 
HETATM    6  N2  UNL     1      39.242  73.419  36.975  1.00  0.00    -0.356 N 
ENDROOT
BRANCH   6   7
HETATM    7  C8  UNL     1      38.215  74.197  36.329  1.00  0.00     0.166 C 
BRANCH   7   8
HETATM    8  C9  UNL     1      36.971  73.470  36.023  1.00  0.00    -0.040 A 
HETATM    9  C10 UNL     1      36.611  73.218  34.690  1.00  0.00     0.009 A 
HETATM   10  C11 UNL     1      35.438  72.557  34.393  1.00  0.00     0.001 A 
HETATM   11  C12 UNL     1      34.575  72.118  35.382  1.00  0.00     0.000 A 
HETATM   12  C13 UNL     1      34.911  72.356  36.675  1.00  0.00     0.001 A 
HETATM   13  C14 UNL     1      36.098  73.025  36.969  1.00  0.00     0.009 A 
ENDBRANCH   7   8
ENDBRANCH   6   7
BRANCH   1  14
HETATM   14  C2  UNL     1      40.301  72.791  34.857  1.00  0.00     0.084 C 
BRANCH  14  15
HETATM   15  C1  UNL     1      40.472  71.336  34.440  1.00  0.00     0.235 C 
BRANCH  15  16
HETATM   16  N1  UNL     1      39.182  70.707  34.340  1.00  0.00    -0.079 N 
ATOM     17  H13 UNL     1      38.835  70.394  35.247  1.00  0.00     0.274 HD
ATOM     18  H12 UNL     1      38.443  71.377  34.124  1.00  0.00     0.274 HD
ATOM     19  H11 UNL     1      39.223  69.948  33.661  1.00  0.00     0.274 HD
ENDBRANCH  15  16
ENDBRANCH  14  15
ENDBRANCH   1  14
TORSDOF 5
ENDMDL
MODEL 2
REMARK VINA RESULT: -6.452363872      0.045      1.174
REMARK  5 active torsions:
REMARK  status: ('A' for Active; 'I' for Inactive)
REMARK    1  A    between atoms: N1_1  and  C1_5 
REMARK    2  A    between atoms: C1_5  and  C2_6 
REMARK    3  A    between atoms: C2_6  and  C3_7 
REMARK    4  A    between atoms: N2_12  and  C8_13 
REMARK    5  A    between atoms: C8_13  and  C9_14 
ROOT
HETATM    1  C3  UNL     1      40.226  72.819  36.318  1.00  0.00     0.013 A 
HETATM    2  C4  UNL     1      41.230  72.077  36.976  1.00  0.00     0.025 A 
HETATM    3  C5  UNL     1      41.240  71.961  38.341  1.00  0.00     0.003 A 
HETATM    4  C6  UNL     1      40.225  72.606  39.015  1.00  0.00     0.017 A 
HETATM    5  C7  UNL     1      39.263  73.320  38.337  1.00  0.00     0.091 A 
HETATM    6  N2  UNL     1      39.260  73.430  36.981  1.00  0.00    -0.356 N 
ENDROOT
BRANCH   6   7
HETATM    7  C8  UNL     1      38.248  74.232  36.341  1.00  0.00     0.166 C 
BRANCH   7   8
HETATM    8  C9  UNL     1      37.004  73.521  35.999  1.00  0.00    -0.040 A 
HETATM    9  C10 UNL     1      36.139  73.085  37.015  1.00  0.00     0.009 A 
HETATM   10  C11 UNL     1      34.983  72.400  36.706  1.00  0.00     0.001 A 
HETATM   11  C12 UNL     1      34.629  72.115  35.398  1.00  0.00     0.000 A 
HETATM   12  C13 UNL     1      35.456  72.530  34.407  1.00  0.00     0.001 A 
HETATM   13  C14 UNL     1      36.624  73.222  34.726  1.00  0.00     0.009 A 
ENDBRANCH   7   8
ENDBRANCH   6   7
BRANCH   1  14
HETATM   14  C2  UNL     1      40.308  72.799  34.858  1.00  0.00     0.084 C 
BRANCH  14  15
HETATM   15  C1  UNL     1      40.478  71.347  34.432  1.00  0.00     0.235 C 
BRANCH  15  16
HETATM   16  N1  UNL     1      39.186  70.721  34.326  1.00  0.00    -0.079 N 
ATOM     17  H13 UNL     1      38.599  70.910  35.139  1.00  0.00     0.274 HD
ATOM     18  H12 UNL     1      38.601  71.163  33.617  1.00  0.00     0.274 HD
ATOM     19  H11 UNL     1      39.303  69.722  34.160  1.00  0.00     0.274 HD
ENDBRANCH  15  16
ENDBRANCH  14  15
ENDBRANCH   1  14
TORSDOF 5
ENDMDL
MODEL 3
REMARK VINA RESULT: -6.379994434      1.630      2.887
REMARK  5 active torsions:
REMARK  status: ('A' for Active; 'I' for Inactive)
REMARK    1  A    between atoms: N1_1  and  C1_5 
REMARK    2  A    between atoms: C1_5  and  C2_6 
REMARK    3  A    between atoms: C2_6  and  C3_7 
REMARK    4  A    between atoms: N2_12  and  C8_13 
REMARK    5  A    between atoms: C8_13  and  C9_14 
ROOT
HETATM    1  C3  UNL     1      39.632  71.465  35.546  1.00  0.00     0.013 A 
HETATM    2  C4  UNL     1      40.506  71.294  34.452  1.00  0.00     0.025 A 
HETATM    3  C5  UNL     1      40.980  72.374  33.754  1.00  0.00     0.003 A 
HETATM    4  C6  UNL     1      40.552  73.612  34.183  1.00  0.00     0.017 A 
HETATM    5  C7  UNL     1      39.697  73.737  35.255  1.00  0.00     0.091 A 
HETATM    6  N2  UNL     1      39.231  72.659  35.942  1.00  0.00    -0.356 N 
ENDROOT
BRANCH   6   7
HETATM    7  C8  UNL     1      38.304  72.863  37.026  1.00  0.00     0.166 C 
BRANCH   7   8
HETATM    8  C9  UNL     1      36.893  72.580  36.710  1.00  0.00    -0.040 A 
HETATM    9  C10 UNL     1      36.054  72.009  37.680  1.00  0.00     0.009 A 
HETATM   10  C11 UNL     1      34.738  71.721  37.387  1.00  0.00     0.001 A 
HETATM   11  C12 UNL     1      34.192  71.979  36.140  1.00  0.00     0.000 A 
HETATM   12  C13 UNL     1      34.993  72.530  35.194  1.00  0.00     0.001 A 
HETATM   13  C14 UNL     1      36.323  72.818  35.496  1.00  0.00     0.009 A 
ENDBRANCH   7   8
ENDBRANCH   6   7
BRANCH   1  14
HETATM   14  C2  UNL     1      39.262  70.227  36.232  1.00  0.00     0.084 C 
BRANCH  14  15
HETATM   15  C1  UNL     1      40.517  69.687  36.904  1.00  0.00     0.235 C 
BRANCH  15  16
HETATM   16  N1  UNL     1      40.525  70.071  38.291  1.00  0.00    -0.079 N 
ATOM     17  H13 UNL     1      40.194  71.027  38.428  1.00  0.00     0.274 HD
ATOM     18  H12 UNL     1      39.805  69.588  38.828  1.00  0.00     0.274 HD
ATOM     19  H11 UNL     1      41.457  69.928  38.680  1.00  0.00     0.274 HD
ENDBRANCH  15  16
ENDBRANCH  14  15
ENDBRANCH   1  14
TORSDOF 5
ENDMDL
MODEL 4
REMARK VINA RESULT: -6.342676143      1.695      2.195
REMARK  5 active torsions:
REMARK  status: ('A' for Active; 'I' for Inactive)
REMARK    1  A    between atoms: N1_1  and  C1_5 
REMARK    2  A    between atoms: C1_5  and  C2_6 
REMARK    3  A    between atoms: C2_6  and  C3_7 
REMARK    4  A    between atoms: N2_12  and  C8_13 
REMARK    5  A    between atoms: C8_13  and  C9_14 
ROOT
HETATM    1  C3  UNL     1      39.984  71.983  36.168  1.00  0.00     0.013 A 
HETATM    2  C4  UNL     1      41.080  72.274  37.008  1.00  0.00     0.025 A 
HETATM    3  C5  UNL     1      41.571  71.335  37.876  1.00  0.00     0.003 A 
HETATM    4  C6  UNL     1      40.935  70.112  37.874  1.00  0.00     0.017 A 
HETATM    5  C7  UNL     1      39.868  69.867  37.039  1.00  0.00     0.091 A 
HETATM    6  N2  UNL     1      39.387  70.806  36.180  1.00  0.00    -0.356 N 
ENDROOT
BRANCH   6   7
HETATM    7  C8  UNL     1      38.238  70.494  35.367  1.00  0.00     0.166 C 
BRANCH   7   8
HETATM    8  C9  UNL     1      36.948  70.978  35.888  1.00  0.00    -0.040 A 
HETATM    9  C10 UNL     1      36.178  71.880  35.136  1.00  0.00     0.009 A 
HETATM   10  C11 UNL     1      34.979  72.355  35.624  1.00  0.00     0.001 A 
HETATM   11  C12 UNL     1      34.487  71.969  36.859  1.00  0.00     0.000 A 
HETATM   12  C13 UNL     1      35.222  71.099  37.596  1.00  0.00     0.001 A 
HETATM   13  C14 UNL     1      36.433  70.622  37.098  1.00  0.00     0.009 A 
ENDBRANCH   7   8
ENDBRANCH   6   7
BRANCH   1  14
HETATM   14  C2  UNL     1      39.614  73.061  35.251  1.00  0.00     0.084 C 
BRANCH  14  15
HETATM   15  C1  UNL     1      40.782  73.268  34.296  1.00  0.00     0.235 C 
BRANCH  15  16
HETATM   16  N1  UNL     1      40.846  72.172  33.366  1.00  0.00    -0.079 N 
ATOM     17  H13 UNL     1      41.633  71.551  33.556  1.00  0.00     0.274 HD
ATOM     18  H12 UNL     1      40.091  71.501  33.509  1.00  0.00     0.274 HD
ATOM     19  H11 UNL     1      40.863  72.533  32.412  1.00  0.00     0.274 HD
ENDBRANCH  15  16
ENDBRANCH  14  15
ENDBRANCH   1  14
TORSDOF 5
ENDMDL
MODEL 5
REMARK VINA RESULT: -6.335878716      2.095      5.113
REMARK  5 active torsions:
REMARK  status: ('A' for Active; 'I' for Inactive)
REMARK    1  A    between atoms: N1_1  and  C1_5 
REMARK    2  A    between atoms: C1_5  and  C2_6 
REMARK    3  A    between atoms: C2_6  and  C3_7 
REMARK    4  A    between atoms: N2_12  and  C8_13 
REMARK    5  A    between atoms: C8_13  and  C9_14 
ROOT
HETATM    1  C3  UNL     1      36.757  72.464  37.683  1.00  0.00     0.013 A 
HETATM    2  C4  UNL     1      35.425  71.999  37.663  1.00  0.00     0.025 A 
HETATM    3  C5  UNL     1      35.147  70.659  37.606  1.00  0.00     0.003 A 
HETATM    4  C6  UNL     1      36.235  69.813  37.569  1.00  0.00     0.017 A 
HETATM    5  C7  UNL     1      37.520  70.306  37.590  1.00  0.00     0.091 A 
HETATM    6  N2  UNL     1      37.787  71.639  37.646  1.00  0.00    -0.356 N 
ENDROOT
BRANCH   6   7
HETATM    7  C8  UNL     1      39.157  72.085  37.619  1.00  0.00     0.166 C 
BRANCH   7   8
HETATM    8  C9  UNL     1      39.745  72.233  36.277  1.00  0.00    -0.040 A 
HETATM    9  C10 UNL     1      39.850  73.504  35.690  1.00  0.00     0.009 A 
HETATM   10  C11 UNL     1      40.380  73.651  34.426  1.00  0.00     0.001 A 
HETATM   11  C12 UNL     1      40.826  72.567  33.689  1.00  0.00     0.000 A 
HETATM   12  C13 UNL     1      40.729  71.333  34.244  1.00  0.00     0.001 A 
HETATM   13  C14 UNL     1      40.192  71.191  35.523  1.00  0.00     0.009 A 
ENDBRANCH   7   8
ENDBRANCH   6   7
BRANCH   1  14
HETATM   14  C2  UNL     1      36.896  73.915  37.810  1.00  0.00     0.084 C 
BRANCH  14  15
HETATM   15  C1  UNL     1      35.910  74.375  38.876  1.00  0.00     0.235 C 
BRANCH  15  16
HETATM   16  N1  UNL     1      36.628  74.955  39.980  1.00  0.00    -0.079 N 
ATOM     17  H13 UNL     1      36.659  74.333  40.788  1.00  0.00     0.274 HD
ATOM     18  H12 UNL     1      37.631  75.012  39.800  1.00  0.00     0.274 HD
ATOM     19  H11 UNL     1      36.227  75.864  40.209  1.00  0.00     0.274 HD
ENDBRANCH  15  16
ENDBRANCH  14  15
ENDBRANCH   1  14
TORSDOF 5
ENDMDL
