MODEL 1
REMARK VINA RESULT: -6.065990774      0.000      0.000
REMARK  4 active torsions:
REMARK  status: ('A' for Active; 'I' for Inactive)
REMARK    1  A    between atoms: N1_4  and  C4_5 
REMARK    2  A    between atoms: C4_5  and  C5_6 
REMARK    3  A    between atoms: C5_6  and  C6_7 
REMARK    4  A    between atoms: C6_7  and  N2_8 
ROOT
HETATM    1  C5  UNL     1      38.011  74.415  37.410  1.00  0.00     0.040 C 
ENDROOT
BRANCH   1   2
HETATM    2  C4  UNL     1      38.078  73.451  38.566  1.00  0.00     0.129 C 
BRANCH   2   3
HETATM    3  N1  UNL     1      37.265  72.292  38.190  1.00  0.00    -0.366 N 
HETATM    4  C3  UNL     1      37.814  71.064  38.175  1.00  0.00     0.090 A 
HETATM    5  C2  UNL     1      37.078  69.950  37.826  1.00  0.00     0.017 A 
HETATM    6  C1  UNL     1      35.752  70.109  37.486  1.00  0.00     0.003 A 
HETATM    7  C13 UNL     1      35.164  71.364  37.495  1.00  0.00     0.017 A 
HETATM    8  C12 UNL     1      35.977  72.425  37.857  1.00  0.00     0.090 A 
ENDBRANCH   2   3
ENDBRANCH   1   2
BRANCH   1   9
HETATM    9  C6  UNL     1      38.979  74.080  36.312  1.00  0.00     0.129 C 
BRANCH   9  10
HETATM   10  N2  UNL     1      38.217  73.613  35.188  1.00  0.00    -0.366 N 
HETATM   11  C7  UNL     1      38.241  72.321  34.838  1.00  0.00     0.090 A 
HETATM   12  C8  UNL     1      37.528  71.827  33.770  1.00  0.00     0.017 A 
HETATM   13  C9  UNL     1      36.769  72.702  33.043  1.00  0.00     0.003 A 
HETATM   14  C10 UNL     1      36.734  74.046  33.395  1.00  0.00     0.017 A 
HETATM   15  C11 UNL     1      37.477  74.468  34.482  1.00  0.00     0.090 A 
ENDBRANCH   9  10
ENDBRANCH   1   9
TORSDOF 4
ENDMDL
MODEL 2
REMARK VINA RESULT: -6.062160614      0.042      4.035
REMARK  4 active torsions:
REMARK  status: ('A' for Active; 'I' for Inactive)
REMARK    1  A    between atoms: N1_4  and  C4_5 
REMARK    2  A    between atoms: C4_5  and  C5_6 
REMARK    3  A    between atoms: C5_6  and  C6_7 
REMARK    4  A    between atoms: C6_7  and  N2_8 
ROOT
HETATM    1  C5  UNL     1      38.005  74.422  37.427  1.00  0.00     0.040 C 
ENDROOT
BRANCH   1   2
HETATM    2  C4  UNL     1      38.993  74.070  36.345  1.00  0.00     0.129 C 
BRANCH   2   3
HETATM    3  N1  UNL     1      38.209  73.602  35.200  1.00  0.00    -0.366 N 
HETATM    4  C3  UNL     1      38.227  72.301  34.861  1.00  0.00     0.090 A 
HETATM    5  C2  UNL     1      37.499  71.824  33.789  1.00  0.00     0.017 A 
HETATM    6  C1  UNL     1      36.742  72.710  33.054  1.00  0.00     0.003 A 
HETATM    7  C13 UNL     1      36.707  74.056  33.385  1.00  0.00     0.017 A 
HETATM    8  C12 UNL     1      37.466  74.445  34.474  1.00  0.00     0.090 A 
ENDBRANCH   2   3
ENDBRANCH   1   2
BRANCH   1   9
HETATM    9  C6  UNL     1      38.022  73.452  38.572  1.00  0.00     0.129 C 
BRANCH   9  10
HETATM   10  N2  UNL     1      37.228  72.316  38.194  1.00  0.00    -0.366 N 
HETATM   11  C7  UNL     1      37.756  71.086  38.191  1.00  0.00     0.090 A 
HETATM   12  C8  UNL     1      37.035  69.969  37.837  1.00  0.00     0.017 A 
HETATM   13  C9  UNL     1      35.727  70.136  37.473  1.00  0.00     0.003 A 
HETATM   14  C10 UNL     1      35.167  71.408  37.471  1.00  0.00     0.017 A 
HETATM   15  C11 UNL     1      35.954  72.482  37.841  1.00  0.00     0.090 A 
ENDBRANCH   9  10
ENDBRANCH   1   9
TORSDOF 4
ENDMDL
MODEL 3
REMARK VINA RESULT: -6.033849792      1.088      4.451
REMARK  4 active torsions:
REMARK  status: ('A' for Active; 'I' for Inactive)
REMARK    1  A    between atoms: N1_4  and  C4_5 
REMARK    2  A    between atoms: C4_5  and  C5_6 
REMARK    3  A    between atoms: C5_6  and  C6_7 
REMARK    4  A    between atoms: C6_7  and  N2_8 
ROOT
HETATM    1  C5  UNL     1      39.819  72.514  37.049  1.00  0.00     0.040 C 
ENDROOT
BRANCH   1   2
HETATM    2  C4  UNL     1      39.962  72.107  35.605  1.00  0.00     0.129 C 
BRANCH   2   3
HETATM    3  N1  UNL     1      38.813  72.674  34.896  1.00  0.00    -0.366 N 
HETATM    4  C3  UNL     1      38.626  74.005  34.878  1.00  0.00     0.090 A 
HETATM    5  C2  UNL     1      37.554  74.573  34.218  1.00  0.00     0.017 A 
HETATM    6  C1  UNL     1      36.662  73.749  33.568  1.00  0.00     0.003 A 
HETATM    7  C13 UNL     1      36.835  72.374  33.572  1.00  0.00     0.017 A 
HETATM    8  C12 UNL     1      37.936  71.891  34.258  1.00  0.00     0.090 A 
ENDBRANCH   2   3
ENDBRANCH   1   2
BRANCH   1   9
HETATM    9  C6  UNL     1      39.393  71.381  37.937  1.00  0.00     0.129 C 
BRANCH   9  10
HETATM   10  N2  UNL     1      37.969  71.244  37.816  1.00  0.00    -0.366 N 
HETATM   11  C7  UNL     1      37.165  72.299  37.995  1.00  0.00     0.090 A 
HETATM   12  C8  UNL     1      35.796  72.216  37.888  1.00  0.00     0.017 A 
HETATM   13  C9  UNL     1      35.246  71.001  37.588  1.00  0.00     0.003 A 
HETATM   14  C10 UNL     1      36.069  69.897  37.400  1.00  0.00     0.017 A 
HETATM   15  C11 UNL     1      37.436  70.058  37.522  1.00  0.00     0.090 A 
ENDBRANCH   9  10
ENDBRANCH   1   9
TORSDOF 4
ENDMDL
MODEL 4
REMARK VINA RESULT: -6.033336945      1.094      4.410
REMARK  4 active torsions:
REMARK  status: ('A' for Active; 'I' for Inactive)
REMARK    1  A    between atoms: N1_4  and  C4_5 
REMARK    2  A    between atoms: C4_5  and  C5_6 
REMARK    3  A    between atoms: C5_6  and  C6_7 
REMARK    4  A    between atoms: C6_7  and  N2_8 
ROOT
HETATM    1  C5  UNL     1      39.831  72.490  37.041  1.00  0.00     0.040 C 
ENDROOT
BRANCH   1   2
HETATM    2  C4  UNL     1      39.960  72.080  35.597  1.00  0.00     0.129 C 
BRANCH   2   3
HETATM    3  N1  UNL     1      38.816  72.664  34.894  1.00  0.00    -0.366 N 
HETATM    4  C3  UNL     1      37.938  71.865  34.262  1.00  0.00     0.090 A 
HETATM    5  C2  UNL     1      36.848  72.381  33.590  1.00  0.00     0.017 A 
HETATM    6  C1  UNL     1      36.665  73.747  33.570  1.00  0.00     0.003 A 
HETATM    7  C13 UNL     1      37.556  74.590  34.215  1.00  0.00     0.017 A 
HETATM    8  C12 UNL     1      38.620  73.986  34.864  1.00  0.00     0.090 A 
ENDBRANCH   2   3
ENDBRANCH   1   2
BRANCH   1   9
HETATM    9  C6  UNL     1      39.400  71.362  37.934  1.00  0.00     0.129 C 
BRANCH   9  10
HETATM   10  N2  UNL     1      37.975  71.232  37.815  1.00  0.00    -0.366 N 
HETATM   11  C7  UNL     1      37.178  72.292  37.993  1.00  0.00     0.090 A 
HETATM   12  C8  UNL     1      35.807  72.217  37.890  1.00  0.00     0.017 A 
HETATM   13  C9  UNL     1      35.251  71.004  37.593  1.00  0.00     0.003 A 
HETATM   14  C10 UNL     1      36.067  69.895  37.406  1.00  0.00     0.017 A 
HETATM   15  C11 UNL     1      37.435  70.049  37.525  1.00  0.00     0.090 A 
ENDBRANCH   9  10
ENDBRANCH   1   9
TORSDOF 4
ENDMDL
MODEL 5
REMARK VINA RESULT: -6.019829349      1.100      4.254
REMARK  4 active torsions:
REMARK  status: ('A' for Active; 'I' for Inactive)
REMARK    1  A    between atoms: N1_4  and  C4_5 
REMARK    2  A    between atoms: C4_5  and  C5_6 
REMARK    3  A    between atoms: C5_6  and  C6_7 
REMARK    4  A    between atoms: C6_7  and  N2_8 
ROOT
HETATM    1  C5  UNL     1      39.855  72.513  37.029  1.00  0.00     0.040 C 
ENDROOT
BRANCH   1   2
HETATM    2  C4  UNL     1      39.985  72.100  35.585  1.00  0.00     0.129 C 
BRANCH   2   3
HETATM    3  N1  UNL     1      38.835  72.673  34.882  1.00  0.00    -0.366 N 
HETATM    4  C3  UNL     1      37.974  71.868  34.237  1.00  0.00     0.090 A 
HETATM    5  C2  UNL     1      36.879  72.373  33.565  1.00  0.00     0.017 A 
HETATM    6  C1  UNL     1      36.674  73.736  33.560  1.00  0.00     0.003 A 
HETATM    7  C13 UNL     1      37.547  74.586  34.219  1.00  0.00     0.017 A 
HETATM    8  C12 UNL     1      38.617  73.993  34.866  1.00  0.00     0.090 A 
ENDBRANCH   2   3
ENDBRANCH   1   2
BRANCH   1   9
HETATM    9  C6  UNL     1      39.427  71.386  37.924  1.00  0.00     0.129 C 
BRANCH   9  10
HETATM   10  N2  UNL     1      38.001  71.258  37.811  1.00  0.00    -0.366 N 
HETATM   11  C7  UNL     1      37.444  70.077  37.521  1.00  0.00     0.090 A 
HETATM   12  C8  UNL     1      36.083  69.906  37.404  1.00  0.00     0.017 A 
HETATM   13  C9  UNL     1      35.279  70.995  37.592  1.00  0.00     0.003 A 
HETATM   14  C10 UNL     1      35.844  72.228  37.894  1.00  0.00     0.017 A 
HETATM   15  C11 UNL     1      37.220  72.322  37.996  1.00  0.00     0.090 A 
ENDBRANCH   9  10
ENDBRANCH   1   9
TORSDOF 4
ENDMDL
