MODEL 1
REMARK VINA RESULT: -6.452500839      0.000      0.000
REMARK  4 active torsions:
REMARK  status: ('A' for Active; 'I' for Inactive)
REMARK    1  A    between atoms: C3_3  and  C4_4 
REMARK    2  A    between atoms: C4_4  and  C5_5 
REMARK    3  A    between atoms: C5_5  and  C6_6 
REMARK    4  A    between atoms: C6_6  and  N1_7 
ROOT
HETATM    1  C1  UNL     1      35.586  72.736  33.888  1.00  0.00     0.012 C 
HETATM    2  C2  UNL     1      34.928  72.449  34.855  1.00  0.00    -0.117 C 
HETATM    3  C3  UNL     1      34.130  72.112  36.062  1.00  0.00     0.093 C 
ENDROOT
BRANCH   3   4
HETATM    4  C4  UNL     1      35.108  72.028  37.200  1.00  0.00     0.014 C 
BRANCH   4   5
HETATM    5  C5  UNL     1      35.605  70.649  37.497  1.00  0.00     0.021 C 
BRANCH   5   6
HETATM    6  C6  UNL     1      37.088  70.673  37.680  1.00  0.00     0.130 C 
BRANCH   6   7
HETATM    7  N1  UNL     1      37.801  70.776  36.425  1.00  0.00    -0.341 N 
HETATM    8  C7  UNL     1      37.995  69.861  35.472  1.00  0.00     0.183 A 
HETATM    9  N2  UNL     1      38.713  70.356  34.461  1.00  0.00    -0.350 N 
HETATM   10  C8  UNL     1      38.994  71.634  34.773  1.00  0.00     0.060 A 
ATOM     11  H2  UNL     1      38.995  69.861  33.615  1.00  0.00     0.166 HD
HETATM   12  C9  UNL     1      39.698  72.647  34.129  1.00  0.00     0.032 A 
HETATM   13  C13 UNL     1      38.420  71.885  36.000  1.00  0.00     0.062 A 
HETATM   14  C10 UNL     1      39.851  73.907  34.664  1.00  0.00     0.002 A 
HETATM   15  C11 UNL     1      39.276  74.154  35.889  1.00  0.00     0.002 A 
HETATM   16  C12 UNL     1      38.574  73.163  36.545  1.00  0.00     0.032 A 
ENDBRANCH   6   7
ENDBRANCH   5   6
ENDBRANCH   4   5
ENDBRANCH   3   4
TORSDOF 4
ENDMDL
MODEL 2
REMARK VINA RESULT: -6.451014364      1.145      1.636
REMARK  4 active torsions:
REMARK  status: ('A' for Active; 'I' for Inactive)
REMARK    1  A    between atoms: C3_3  and  C4_4 
REMARK    2  A    between atoms: C4_4  and  C5_5 
REMARK    3  A    between atoms: C5_5  and  C6_6 
REMARK    4  A    between atoms: C6_6  and  N1_7 
ROOT
HETATM    1  C1  UNL     1      34.619  72.323  35.180  1.00  0.00     0.012 C 
HETATM    2  C2  UNL     1      34.769  71.838  36.272  1.00  0.00    -0.117 C 
HETATM    3  C3  UNL     1      34.980  71.237  37.615  1.00  0.00     0.093 C 
ENDROOT
BRANCH   3   4
HETATM    4  C4  UNL     1      35.969  70.122  37.424  1.00  0.00     0.014 C 
BRANCH   4   5
HETATM    5  C5  UNL     1      37.311  70.366  38.036  1.00  0.00     0.021 C 
BRANCH   5   6
HETATM    6  C6  UNL     1      38.382  70.122  37.023  1.00  0.00     0.130 C 
BRANCH   6   7
HETATM    7  N1  UNL     1      38.305  71.034  35.903  1.00  0.00    -0.341 N 
HETATM    8  C7  UNL     1      38.231  70.780  34.594  1.00  0.00     0.183 A 
HETATM    9  N2  UNL     1      38.176  71.908  33.881  1.00  0.00    -0.350 N 
HETATM   10  C8  UNL     1      38.217  72.926  34.760  1.00  0.00     0.060 A 
ATOM     11  H2  UNL     1      38.115  71.984  32.866  1.00  0.00     0.166 HD
HETATM   12  C9  UNL     1      38.193  74.310  34.627  1.00  0.00     0.032 A 
HETATM   13  C13 UNL     1      38.297  72.368  36.018  1.00  0.00     0.062 A 
HETATM   14  C10 UNL     1      38.247  75.165  35.705  1.00  0.00     0.002 A 
HETATM   15  C11 UNL     1      38.326  74.606  36.959  1.00  0.00     0.002 A 
HETATM   16  C12 UNL     1      38.351  73.235  37.114  1.00  0.00     0.032 A 
ENDBRANCH   6   7
ENDBRANCH   5   6
ENDBRANCH   4   5
ENDBRANCH   3   4
TORSDOF 4
ENDMDL
MODEL 3
REMARK VINA RESULT: -6.419390661      1.559      2.804
REMARK  4 active torsions:
REMARK  status: ('A' for Active; 'I' for Inactive)
REMARK    1  A    between atoms: C3_3  and  C4_4 
REMARK    2  A    between atoms: C4_4  and  C5_5 
REMARK    3  A    between atoms: C5_5  and  C6_6 
REMARK    4  A    between atoms: C6_6  and  N1_7 
ROOT
HETATM    1  C1  UNL     1      34.250  72.310  36.045  1.00  0.00     0.012 C 
HETATM    2  C2  UNL     1      34.877  71.636  36.821  1.00  0.00    -0.117 C 
HETATM    3  C3  UNL     1      35.672  70.805  37.762  1.00  0.00     0.093 C 
ENDROOT
BRANCH   3   4
HETATM    4  C4  UNL     1      36.440  69.831  36.915  1.00  0.00     0.014 C 
BRANCH   4   5
HETATM    5  C5  UNL     1      37.906  69.770  37.204  1.00  0.00     0.021 C 
BRANCH   5   6
HETATM    6  C6  UNL     1      38.675  70.300  36.038  1.00  0.00     0.130 C 
BRANCH   6   7
HETATM    7  N1  UNL     1      38.654  71.745  35.970  1.00  0.00    -0.341 N 
HETATM    8  C7  UNL     1      39.232  72.650  36.764  1.00  0.00     0.183 A 
HETATM    9  N2  UNL     1      38.969  73.894  36.358  1.00  0.00    -0.350 N 
HETATM   10  C8  UNL     1      38.192  73.790  35.264  1.00  0.00     0.060 A 
ATOM     11  H2  UNL     1      39.293  74.758  36.793  1.00  0.00     0.166 HD
HETATM   12  C9  UNL     1      37.607  74.720  34.411  1.00  0.00     0.032 A 
HETATM   13  C13 UNL     1      38.003  72.445  35.032  1.00  0.00     0.062 A 
HETATM   14  C10 UNL     1      36.835  74.359  33.329  1.00  0.00     0.002 A 
HETATM   15  C11 UNL     1      36.648  73.015  33.100  1.00  0.00     0.002 A 
HETATM   16  C12 UNL     1      37.220  72.077  33.933  1.00  0.00     0.032 A 
ENDBRANCH   6   7
ENDBRANCH   5   6
ENDBRANCH   4   5
ENDBRANCH   3   4
TORSDOF 4
ENDMDL
MODEL 4
REMARK VINA RESULT: -6.404561669      1.796      4.508
REMARK  4 active torsions:
REMARK  status: ('A' for Active; 'I' for Inactive)
REMARK    1  A    between atoms: C3_3  and  C4_4 
REMARK    2  A    between atoms: C4_4  and  C5_5 
REMARK    3  A    between atoms: C5_5  and  C6_6 
REMARK    4  A    between atoms: C6_6  and  N1_7 
ROOT
HETATM    1  C1  UNL     1      37.471  73.960  37.931  1.00  0.00     0.012 C 
HETATM    2  C2  UNL     1      37.814  74.576  36.954  1.00  0.00    -0.117 C 
HETATM    3  C3  UNL     1      38.221  75.322  35.735  1.00  0.00     0.093 C 
ENDROOT
BRANCH   3   4
HETATM    4  C4  UNL     1      38.262  74.314  34.622  1.00  0.00     0.014 C 
BRANCH   4   5
HETATM    5  C5  UNL     1      37.007  74.221  33.814  1.00  0.00     0.021 C 
BRANCH   5   6
HETATM    6  C6  UNL     1      36.641  72.788  33.608  1.00  0.00     0.130 C 
BRANCH   6   7
HETATM    7  N1  UNL     1      35.893  72.240  34.719  1.00  0.00    -0.341 N 
HETATM    8  C7  UNL     1      34.614  72.419  35.063  1.00  0.00     0.183 A 
HETATM    9  N2  UNL     1      34.306  71.731  36.165  1.00  0.00    -0.350 N 
HETATM   10  C8  UNL     1      35.424  71.087  36.547  1.00  0.00     0.060 A 
ATOM     11  H2  UNL     1      33.398  71.700  36.628  1.00  0.00     0.166 HD
HETATM   12  C9  UNL     1      35.725  70.231  37.602  1.00  0.00     0.032 A 
HETATM   13  C13 UNL     1      36.406  71.412  35.637  1.00  0.00     0.062 A 
HETATM   14  C10 UNL     1      36.976  69.684  37.785  1.00  0.00     0.002 A 
HETATM   15  C11 UNL     1      37.954  70.010  36.875  1.00  0.00     0.002 A 
HETATM   16  C12 UNL     1      37.677  70.857  35.822  1.00  0.00     0.032 A 
ENDBRANCH   6   7
ENDBRANCH   5   6
ENDBRANCH   4   5
ENDBRANCH   3   4
TORSDOF 4
ENDMDL
MODEL 5
REMARK VINA RESULT: -6.367544940      1.821      3.562
REMARK  4 active torsions:
REMARK  status: ('A' for Active; 'I' for Inactive)
REMARK    1  A    between atoms: C3_3  and  C4_4 
REMARK    2  A    between atoms: C4_4  and  C5_5 
REMARK    3  A    between atoms: C5_5  and  C6_6 
REMARK    4  A    between atoms: C6_6  and  N1_7 
ROOT
HETATM    1  C1  UNL     1      35.867  74.524  39.673  1.00  0.00     0.012 C 
HETATM    2  C2  UNL     1      36.822  74.054  39.109  1.00  0.00    -0.117 C 
HETATM    3  C3  UNL     1      37.986  73.451  38.409  1.00  0.00     0.093 C 
ENDROOT
BRANCH   3   4
HETATM    4  C4  UNL     1      38.033  72.012  38.838  1.00  0.00     0.014 C 
BRANCH   4   5
HETATM    5  C5  UNL     1      39.018  71.169  38.091  1.00  0.00     0.021 C 
BRANCH   5   6
HETATM    6  C6  UNL     1      38.301  70.311  37.100  1.00  0.00     0.130 C 
BRANCH   6   7
HETATM    7  N1  UNL     1      38.222  70.921  35.791  1.00  0.00    -0.341 N 
HETATM    8  C7  UNL     1      39.159  71.049  34.847  1.00  0.00     0.183 A 
HETATM    9  N2  UNL     1      38.682  71.680  33.771  1.00  0.00    -0.350 N 
HETATM   10  C8  UNL     1      37.394  71.970  34.029  1.00  0.00     0.060 A 
ATOM     11  H2  UNL     1      39.195  71.899  32.917  1.00  0.00     0.166 HD
HETATM   12  C9  UNL     1      36.390  72.608  33.307  1.00  0.00     0.032 A 
HETATM   13  C13 UNL     1      37.119  71.492  35.292  1.00  0.00     0.062 A 
HETATM   14  C10 UNL     1      35.117  72.789  33.798  1.00  0.00     0.002 A 
HETATM   15  C11 UNL     1      34.845  72.310  35.058  1.00  0.00     0.002 A 
HETATM   16  C12 UNL     1      35.825  71.674  35.791  1.00  0.00     0.032 A 
ENDBRANCH   6   7
ENDBRANCH   5   6
ENDBRANCH   4   5
ENDBRANCH   3   4
TORSDOF 4
ENDMDL
