MODEL 1
REMARK VINA RESULT: -6.553495656      0.000      0.000
REMARK  4 active torsions:
REMARK  status: ('A' for Active; 'I' for Inactive)
REMARK    1  A    between atoms: C3_3  and  C4_4 
REMARK    2  A    between atoms: C4_4  and  C5_5 
REMARK    3  A    between atoms: C5_5  and  N1_6 
REMARK    4  A    between atoms: C8_11  and  C9_12 
ROOT
HETATM    1  C1  UNL     1      35.880  72.687  34.198  1.00  0.00     0.012 C 
HETATM    2  C2  UNL     1      36.927  72.091  34.215  1.00  0.00    -0.117 C 
HETATM    3  C3  UNL     1      38.213  71.367  34.225  1.00  0.00     0.094 C 
ENDROOT
BRANCH   3   4
HETATM    4  C4  UNL     1      39.295  72.184  34.892  1.00  0.00     0.032 C 
BRANCH   4   5
HETATM    5  C5  UNL     1      40.261  71.189  35.527  1.00  0.00     0.131 C 
BRANCH   5   6
HETATM    6  N1  UNL     1      40.359  71.345  36.964  1.00  0.00    -0.341 N 
HETATM    7  C6  UNL     1      41.552  71.618  37.601  1.00  0.00     0.109 A 
HETATM    8  C7  UNL     1      41.360  71.704  38.943  1.00  0.00     0.107 A 
HETATM    9  N2  UNL     1      40.072  71.489  39.145  1.00  0.00    -0.350 N 
HETATM   10  C8  UNL     1      39.449  71.268  37.939  1.00  0.00     0.117 A 
ATOM     11  H2  UNL     1      39.610  71.488  40.055  1.00  0.00     0.166 HD
BRANCH  10  12
HETATM   12  C9  UNL     1      38.003  71.056  37.830  1.00  0.00     0.008 A 
HETATM   13  C10 UNL     1      37.350  69.908  37.522  1.00  0.00     0.015 A 
HETATM   14  C11 UNL     1      35.960  69.805  37.384  1.00  0.00     0.001 A 
HETATM   15  C12 UNL     1      35.191  70.909  37.566  1.00  0.00     0.000 A 
HETATM   16  C13 UNL     1      35.799  72.093  37.880  1.00  0.00     0.001 A 
HETATM   17  C14 UNL     1      37.164  72.165  38.007  1.00  0.00     0.015 A 
ENDBRANCH  10  12
ENDBRANCH   5   6
ENDBRANCH   4   5
ENDBRANCH   3   4
TORSDOF 4
ENDMDL
MODEL 2
REMARK VINA RESULT: -6.516683995      1.291      3.363
REMARK  4 active torsions:
REMARK  status: ('A' for Active; 'I' for Inactive)
REMARK    1  A    between atoms: C3_3  and  C4_4 
REMARK    2  A    between atoms: C4_4  and  C5_5 
REMARK    3  A    between atoms: C5_5  and  N1_6 
REMARK    4  A    between atoms: C8_11  and  C9_12 
ROOT
HETATM    1  C1  UNL     1      34.768  72.301  36.357  1.00  0.00     0.012 C 
HETATM    2  C2  UNL     1      35.305  71.309  36.782  1.00  0.00    -0.117 C 
HETATM    3  C3  UNL     1      35.970  70.094  37.291  1.00  0.00     0.094 C 
ENDROOT
BRANCH   3   4
HETATM    4  C4  UNL     1      37.235  70.438  38.042  1.00  0.00     0.032 C 
BRANCH   4   5
HETATM    5  C5  UNL     1      38.394  69.898  37.209  1.00  0.00     0.131 C 
BRANCH   5   6
HETATM    6  N1  UNL     1      39.459  70.867  37.041  1.00  0.00    -0.341 N 
HETATM    7  C6  UNL     1      40.652  70.785  37.729  1.00  0.00     0.109 A 
HETATM    8  C7  UNL     1      41.463  71.821  37.390  1.00  0.00     0.107 A 
HETATM    9  N2  UNL     1      40.792  72.539  36.506  1.00  0.00    -0.350 N 
HETATM   10  C8  UNL     1      39.563  71.964  36.285  1.00  0.00     0.117 A 
ATOM     11  H2  UNL     1      41.134  73.388  36.056  1.00  0.00     0.166 HD
BRANCH  10  12
HETATM   12  C9  UNL     1      38.610  72.499  35.309  1.00  0.00     0.008 A 
HETATM   13  C10 UNL     1      38.002  71.840  34.290  1.00  0.00     0.015 A 
HETATM   14  C11 UNL     1      37.141  72.443  33.365  1.00  0.00     0.001 A 
HETATM   15  C12 UNL     1      36.880  73.770  33.469  1.00  0.00     0.000 A 
HETATM   16  C13 UNL     1      37.466  74.483  34.478  1.00  0.00     0.001 A 
HETATM   17  C14 UNL     1      38.307  73.865  35.372  1.00  0.00     0.015 A 
ENDBRANCH  10  12
ENDBRANCH   5   6
ENDBRANCH   4   5
ENDBRANCH   3   4
TORSDOF 4
ENDMDL
MODEL 3
REMARK VINA RESULT: -6.513504491      2.222      3.657
REMARK  4 active torsions:
REMARK  status: ('A' for Active; 'I' for Inactive)
REMARK    1  A    between atoms: C3_3  and  C4_4 
REMARK    2  A    between atoms: C4_4  and  C5_5 
REMARK    3  A    between atoms: C5_5  and  N1_6 
REMARK    4  A    between atoms: C8_11  and  C9_12 
ROOT
HETATM    1  C1  UNL     1      35.979  73.896  39.355  1.00  0.00     0.012 C 
HETATM    2  C2  UNL     1      36.614  74.261  38.398  1.00  0.00    -0.117 C 
HETATM    3  C3  UNL     1      37.397  74.717  37.234  1.00  0.00     0.094 C 
ENDROOT
BRANCH   3   4
HETATM    4  C4  UNL     1      38.789  74.130  37.248  1.00  0.00     0.032 C 
BRANCH   4   5
HETATM    5  C5  UNL     1      39.284  74.155  35.805  1.00  0.00     0.131 C 
BRANCH   5   6
HETATM    6  N1  UNL     1      39.434  72.827  35.244  1.00  0.00    -0.341 N 
HETATM    7  C6  UNL     1      40.661  72.305  34.891  1.00  0.00     0.109 A 
HETATM    8  C7  UNL     1      40.512  71.053  34.384  1.00  0.00     0.107 A 
HETATM    9  N2  UNL     1      39.216  70.794  34.417  1.00  0.00    -0.350 N 
HETATM   10  C8  UNL     1      38.546  71.875  34.942  1.00  0.00     0.117 A 
ATOM     11  H2  UNL     1      38.780  69.928  34.103  1.00  0.00     0.166 HD
BRANCH  10  12
HETATM   12  C9  UNL     1      37.097  71.869  35.161  1.00  0.00     0.008 A 
HETATM   13  C10 UNL     1      36.138  72.460  34.405  1.00  0.00     0.015 A 
HETATM   14  C11 UNL     1      34.772  72.450  34.718  1.00  0.00     0.001 A 
HETATM   15  C12 UNL     1      34.353  71.817  35.843  1.00  0.00     0.000 A 
HETATM   16  C13 UNL     1      35.279  71.203  36.641  1.00  0.00     0.001 A 
HETATM   17  C14 UNL     1      36.612  71.229  36.310  1.00  0.00     0.015 A 
ENDBRANCH  10  12
ENDBRANCH   5   6
ENDBRANCH   4   5
ENDBRANCH   3   4
TORSDOF 4
ENDMDL
MODEL 4
REMARK VINA RESULT: -6.497537675      1.326      3.553
REMARK  4 active torsions:
REMARK  status: ('A' for Active; 'I' for Inactive)
REMARK    1  A    between atoms: C3_3  and  C4_4 
REMARK    2  A    between atoms: C4_4  and  C5_5 
REMARK    3  A    between atoms: C5_5  and  N1_6 
REMARK    4  A    between atoms: C8_11  and  C9_12 
ROOT
HETATM    1  C1  UNL     1      35.084  72.274  36.495  1.00  0.00     0.012 C 
HETATM    2  C2  UNL     1      35.500  71.245  36.962  1.00  0.00    -0.117 C 
HETATM    3  C3  UNL     1      36.010  69.979  37.524  1.00  0.00     0.094 C 
ENDROOT
BRANCH   3   4
HETATM    4  C4  UNL     1      37.510  69.881  37.375  1.00  0.00     0.032 C 
BRANCH   4   5
HETATM    5  C5  UNL     1      38.103  71.012  38.210  1.00  0.00     0.131 C 
BRANCH   5   6
HETATM    6  N1  UNL     1      39.391  71.456  37.715  1.00  0.00    -0.341 N 
HETATM    7  C6  UNL     1      40.580  71.096  38.315  1.00  0.00     0.109 A 
HETATM    8  C7  UNL     1      41.628  71.655  37.656  1.00  0.00     0.107 A 
HETATM    9  N2  UNL     1      41.107  72.352  36.661  1.00  0.00    -0.350 N 
HETATM   10  C8  UNL     1      39.737  72.237  36.688  1.00  0.00     0.117 A 
ATOM     11  H2  UNL     1      41.639  72.892  35.978  1.00  0.00     0.166 HD
BRANCH  10  12
HETATM   12  C9  UNL     1      38.878  72.853  35.673  1.00  0.00     0.008 A 
HETATM   13  C10 UNL     1      38.419  74.129  35.633  1.00  0.00     0.015 A 
HETATM   14  C11 UNL     1      37.553  74.623  34.649  1.00  0.00     0.001 A 
HETATM   15  C12 UNL     1      37.129  73.796  33.661  1.00  0.00     0.000 A 
HETATM   16  C13 UNL     1      37.562  72.499  33.653  1.00  0.00     0.001 A 
HETATM   17  C14 UNL     1      38.412  72.041  34.631  1.00  0.00     0.015 A 
ENDBRANCH  10  12
ENDBRANCH   5   6
ENDBRANCH   4   5
ENDBRANCH   3   4
TORSDOF 4
ENDMDL
MODEL 5
REMARK VINA RESULT: -6.492809328      1.841      3.140
REMARK  4 active torsions:
REMARK  status: ('A' for Active; 'I' for Inactive)
REMARK    1  A    between atoms: C3_3  and  C4_4 
REMARK    2  A    between atoms: C4_4  and  C5_5 
REMARK    3  A    between atoms: C5_5  and  N1_6 
REMARK    4  A    between atoms: C8_11  and  C9_12 
ROOT
HETATM    1  C1  UNL     1      35.991  74.190  39.484  1.00  0.00     0.012 C 
HETATM    2  C2  UNL     1      36.833  74.290  38.628  1.00  0.00    -0.117 C 
HETATM    3  C3  UNL     1      37.869  74.422  37.586  1.00  0.00     0.094 C 
ENDROOT
BRANCH   3   4
HETATM    4  C4  UNL     1      39.126  73.676  37.967  1.00  0.00     0.032 C 
BRANCH   4   5
HETATM    5  C5  UNL     1      39.691  73.091  36.677  1.00  0.00     0.131 C 
BRANCH   5   6
HETATM    6  N1  UNL     1      39.533  71.652  36.599  1.00  0.00    -0.341 N 
HETATM    7  C6  UNL     1      40.592  70.781  36.742  1.00  0.00     0.109 A 
HETATM    8  C7  UNL     1      40.166  69.497  36.616  1.00  0.00     0.107 A 
HETATM    9  N2  UNL     1      38.864  69.561  36.399  1.00  0.00    -0.350 N 
HETATM   10  C8  UNL     1      38.466  70.878  36.386  1.00  0.00     0.117 A 
ATOM     11  H2  UNL     1      38.248  68.759  36.263  1.00  0.00     0.166 HD
BRANCH  10  12
HETATM   12  C9  UNL     1      37.063  71.271  36.226  1.00  0.00     0.008 A 
HETATM   13  C10 UNL     1      36.494  71.916  35.176  1.00  0.00     0.015 A 
HETATM   14  C11 UNL     1      35.149  72.305  35.126  1.00  0.00     0.001 A 
HETATM   15  C12 UNL     1      34.340  72.032  36.181  1.00  0.00     0.000 A 
HETATM   16  C13 UNL     1      34.862  71.383  37.266  1.00  0.00     0.001 A 
HETATM   17  C14 UNL     1      36.185  71.014  37.287  1.00  0.00     0.015 A 
ENDBRANCH  10  12
ENDBRANCH   5   6
ENDBRANCH   4   5
ENDBRANCH   3   4
TORSDOF 4
ENDMDL
