MODEL 1
REMARK VINA RESULT: -5.370334216      0.000      0.000
REMARK  5 active torsions:
REMARK  status: ('A' for Active; 'I' for Inactive)
REMARK    1  A    between atoms: N1_1  and  C1_5 
REMARK    2  A    between atoms: C1_5  and  C2_6 
REMARK    3  A    between atoms: C2_6  and  C3_7 
REMARK    4  A    between atoms: C4_8  and  C5_9 
REMARK    5  A    between atoms: C5_9  and  N2_10 
ROOT
HETATM    1  C3  UNL     1     -14.625   3.280  22.295  1.00  0.00    -0.103 C 
HETATM    2  C4  UNL     1     -13.758   3.770  22.980  1.00  0.00    -0.076 C 
ENDROOT
BRANCH   1   3
HETATM    3  C2  UNL     1     -15.653   2.671  21.452  1.00  0.00     0.121 C 
BRANCH   3   4
HETATM    4  C1  UNL     1     -17.011   3.156  21.902  1.00  0.00     0.241 C 
BRANCH   4   5
HETATM    5  N1  UNL     1     -17.817   2.037  22.275  1.00  0.00    -0.079 N 
ATOM      6  H13 UNL     1     -17.837   1.318  21.551  1.00  0.00     0.274 HD
ATOM      7  H12 UNL     1     -17.389   1.484  23.018  1.00  0.00     0.274 HD
ATOM      8  H11 UNL     1     -18.752   2.359  22.524  1.00  0.00     0.274 HD
ENDBRANCH   4   5
ENDBRANCH   3   4
ENDBRANCH   1   3
BRANCH   2   9
HETATM    9  C5  UNL     1     -12.682   4.354  23.798  1.00  0.00     0.365 C 
BRANCH   9  10
HETATM   10  N2  UNL     1     -13.269   5.111  24.860  1.00  0.00     0.099 N 
HETATM   11  C6  UNL     1     -14.055   4.305  25.766  1.00  0.00     0.273 C 
HETATM   12  C7  UNL     1     -14.649   5.379  26.667  1.00  0.00     0.032 C 
HETATM   13  C8  UNL     1     -14.923   6.488  25.680  1.00  0.00     0.032 C 
HETATM   14  C9  UNL     1     -14.077   6.208  24.451  1.00  0.00     0.273 C 
ENDBRANCH   9  10
ENDBRANCH   2   9
TORSDOF 5
ENDMDL
MODEL 2
REMARK VINA RESULT: -5.229955214      1.034      1.602
REMARK  5 active torsions:
REMARK  status: ('A' for Active; 'I' for Inactive)
REMARK    1  A    between atoms: N1_1  and  C1_5 
REMARK    2  A    between atoms: C1_5  and  C2_6 
REMARK    3  A    between atoms: C2_6  and  C3_7 
REMARK    4  A    between atoms: C4_8  and  C5_9 
REMARK    5  A    between atoms: C5_9  and  N2_10 
ROOT
HETATM    1  C3  UNL     1     -14.789   3.582  21.834  1.00  0.00    -0.103 C 
HETATM    2  C4  UNL     1     -14.156   4.416  22.435  1.00  0.00    -0.076 C 
ENDROOT
BRANCH   1   3
HETATM    3  C2  UNL     1     -15.578   2.575  21.124  1.00  0.00     0.121 C 
BRANCH   3   4
HETATM    4  C1  UNL     1     -17.042   2.932  21.230  1.00  0.00     0.241 C 
BRANCH   4   5
HETATM    5  N1  UNL     1     -17.654   2.135  22.246  1.00  0.00    -0.079 N 
ATOM      6  H13 UNL     1     -18.469   1.628  21.901  1.00  0.00     0.274 HD
ATOM      7  H12 UNL     1     -17.081   1.332  22.504  1.00  0.00     0.274 HD
ATOM      8  H11 UNL     1     -17.877   2.722  23.050  1.00  0.00     0.274 HD
ENDBRANCH   4   5
ENDBRANCH   3   4
ENDBRANCH   1   3
BRANCH   2   9
HETATM    9  C5  UNL     1     -13.406   5.438  23.185  1.00  0.00     0.365 C 
BRANCH   9  10
HETATM   10  N2  UNL     1     -14.294   6.081  24.103  1.00  0.00     0.099 N 
HETATM   11  C6  UNL     1     -13.982   7.477  24.312  1.00  0.00     0.273 C 
HETATM   12  C7  UNL     1     -14.972   7.833  25.412  1.00  0.00     0.032 C 
HETATM   13  C8  UNL     1     -14.961   6.578  26.251  1.00  0.00     0.032 C 
HETATM   14  C9  UNL     1     -14.395   5.469  25.383  1.00  0.00     0.273 C 
ENDBRANCH   9  10
ENDBRANCH   2   9
TORSDOF 5
ENDMDL
MODEL 3
REMARK VINA RESULT: -5.100750522      1.100      1.316
REMARK  5 active torsions:
REMARK  status: ('A' for Active; 'I' for Inactive)
REMARK    1  A    between atoms: N1_1  and  C1_5 
REMARK    2  A    between atoms: C1_5  and  C2_6 
REMARK    3  A    between atoms: C2_6  and  C3_7 
REMARK    4  A    between atoms: C4_8  and  C5_9 
REMARK    5  A    between atoms: C5_9  and  N2_10 
ROOT
HETATM    1  C3  UNL     1     -14.591   2.908  21.311  1.00  0.00    -0.103 C 
HETATM    2  C4  UNL     1     -13.549   3.365  21.719  1.00  0.00    -0.076 C 
ENDROOT
BRANCH   1   3
HETATM    3  C2  UNL     1     -15.861   2.353  20.845  1.00  0.00     0.121 C 
BRANCH   3   4
HETATM    4  C1  UNL     1     -16.994   3.031  21.577  1.00  0.00     0.241 C 
BRANCH   4   5
HETATM    5  N1  UNL     1     -17.783   2.047  22.250  1.00  0.00    -0.079 N 
ATOM      6  H13 UNL     1     -18.227   1.398  21.600  1.00  0.00     0.274 HD
ATOM      7  H12 UNL     1     -17.209   1.375  22.759  1.00  0.00     0.274 HD
ATOM      8  H11 UNL     1     -18.461   2.510  22.856  1.00  0.00     0.274 HD
ENDBRANCH   4   5
ENDBRANCH   3   4
ENDBRANCH   1   3
BRANCH   2   9
HETATM    9  C5  UNL     1     -12.289   3.918  22.244  1.00  0.00     0.365 C 
BRANCH   9  10
HETATM   10  N2  UNL     1     -12.567   4.644  23.443  1.00  0.00     0.099 N 
HETATM   11  C6  UNL     1     -13.367   3.897  24.387  1.00  0.00     0.273 C 
HETATM   12  C7  UNL     1     -13.612   4.953  25.457  1.00  0.00     0.032 C 
HETATM   13  C8  UNL     1     -13.793   6.198  24.622  1.00  0.00     0.032 C 
HETATM   14  C9  UNL     1     -13.192   5.909  23.259  1.00  0.00     0.273 C 
ENDBRANCH   9  10
ENDBRANCH   2   9
TORSDOF 5
ENDMDL
MODEL 4
REMARK VINA RESULT: -5.096300288      1.432      1.676
REMARK  5 active torsions:
REMARK  status: ('A' for Active; 'I' for Inactive)
REMARK    1  A    between atoms: N1_1  and  C1_5 
REMARK    2  A    between atoms: C1_5  and  C2_6 
REMARK    3  A    between atoms: C2_6  and  C3_7 
REMARK    4  A    between atoms: C4_8  and  C5_9 
REMARK    5  A    between atoms: C5_9  and  N2_10 
ROOT
HETATM    1  C3  UNL     1     -14.210   3.980  21.905  1.00  0.00    -0.103 C 
HETATM    2  C4  UNL     1     -13.659   4.714  22.691  1.00  0.00    -0.076 C 
ENDROOT
BRANCH   1   3
HETATM    3  C2  UNL     1     -14.881   3.072  20.976  1.00  0.00     0.121 C 
BRANCH   3   4
HETATM    4  C1  UNL     1     -14.503   1.650  21.315  1.00  0.00     0.241 C 
BRANCH   4   5
HETATM    5  N1  UNL     1     -14.968   1.333  22.629  1.00  0.00    -0.079 N 
ATOM      6  H13 UNL     1     -14.602   0.442  22.963  1.00  0.00     0.274 HD
ATOM      7  H12 UNL     1     -14.554   1.937  23.340  1.00  0.00     0.274 HD
ATOM      8  H11 UNL     1     -15.988   1.362  22.645  1.00  0.00     0.274 HD
ENDBRANCH   4   5
ENDBRANCH   3   4
ENDBRANCH   1   3
BRANCH   2   9
HETATM    9  C5  UNL     1     -12.993   5.590  23.669  1.00  0.00     0.365 C 
BRANCH   9  10
HETATM   10  N2  UNL     1     -13.463   5.262  24.978  1.00  0.00     0.099 N 
HETATM   11  C6  UNL     1     -13.365   3.852  25.281  1.00  0.00     0.273 C 
HETATM   12  C7  UNL     1     -14.056   3.798  26.636  1.00  0.00     0.032 C 
HETATM   13  C8  UNL     1     -15.174   4.796  26.449  1.00  0.00     0.032 C 
HETATM   14  C9  UNL     1     -14.795   5.670  25.267  1.00  0.00     0.273 C 
ENDBRANCH   9  10
ENDBRANCH   2   9
TORSDOF 5
ENDMDL
MODEL 5
REMARK VINA RESULT: -5.044964420      1.249      2.502
REMARK  5 active torsions:
REMARK  status: ('A' for Active; 'I' for Inactive)
REMARK    1  A    between atoms: N1_1  and  C1_5 
REMARK    2  A    between atoms: C1_5  and  C2_6 
REMARK    3  A    between atoms: C2_6  and  C3_7 
REMARK    4  A    between atoms: C4_8  and  C5_9 
REMARK    5  A    between atoms: C5_9  and  N2_10 
ROOT
HETATM    1  C3  UNL     1     -15.229   3.761  22.539  1.00  0.00    -0.103 C 
HETATM    2  C4  UNL     1     -14.920   4.535  23.413  1.00  0.00    -0.076 C 
ENDROOT
BRANCH   1   3
HETATM    3  C2  UNL     1     -15.625   2.813  21.497  1.00  0.00     0.121 C 
BRANCH   3   4
HETATM    4  C1  UNL     1     -17.122   2.883  21.309  1.00  0.00     0.241 C 
BRANCH   4   5
HETATM    5  N1  UNL     1     -17.765   2.081  22.302  1.00  0.00    -0.079 N 
ATOM      6  H13 UNL     1     -17.122   1.419  22.738  1.00  0.00     0.274 HD
ATOM      7  H12 UNL     1     -18.007   2.619  23.135  1.00  0.00     0.274 HD
ATOM      8  H11 UNL     1     -18.577   1.619  21.893  1.00  0.00     0.274 HD
ENDBRANCH   4   5
ENDBRANCH   3   4
ENDBRANCH   1   3
BRANCH   2   9
HETATM    9  C5  UNL     1     -14.561   5.466  24.496  1.00  0.00     0.365 C 
BRANCH   9  10
HETATM   10  N2  UNL     1     -13.137   5.563  24.570  1.00  0.00     0.099 N 
HETATM   11  C6  UNL     1     -12.555   6.249  23.438  1.00  0.00     0.273 C 
HETATM   12  C7  UNL     1     -11.071   6.067  23.721  1.00  0.00     0.032 C 
HETATM   13  C8  UNL     1     -11.036   4.664  24.279  1.00  0.00     0.032 C 
HETATM   14  C9  UNL     1     -12.449   4.328  24.721  1.00  0.00     0.273 C 
ENDBRANCH   9  10
ENDBRANCH   2   9
TORSDOF 5
ENDMDL
