MODEL 1
REMARK VINA RESULT: -5.570680881      0.000      0.000
REMARK  2 active torsions:
REMARK  status: ('A' for Active; 'I' for Inactive)
REMARK    1  A    between atoms: O1_2  and  C2_3 
REMARK    2  A    between atoms: C2_3  and  C4_6 
ROOT
HETATM    1  C2  UNL     1     -14.498   3.367  22.999  1.00  0.00     0.235 C 
HETATM    2  C3  UNL     1     -15.714   3.894  22.352  1.00  0.00     0.092 C 
HETATM    3  N1  UNL     1     -16.680   4.294  21.844  1.00  0.00    -0.194 NA
ENDROOT
BRANCH   1   4
HETATM    4  O1  UNL     1     -13.519   3.325  21.998  1.00  0.00    -0.376 OA
HETATM    5  C1  UNL     1     -13.746   2.273  21.138  1.00  0.00     0.203 C 
ENDBRANCH   1   4
BRANCH   1   6
HETATM    6  C4  UNL     1     -14.140   4.319  24.102  1.00  0.00    -0.005 C 
HETATM    7  C5  UNL     1     -12.751   4.042  24.568  1.00  0.00     0.019 C 
HETATM    8  C6  UNL     1     -14.338   5.725  23.590  1.00  0.00     0.012 C 
HETATM    9  C7  UNL     1     -14.466   6.574  24.840  1.00  0.00     0.001 C 
HETATM   10  C8  UNL     1     -14.931   5.615  25.925  1.00  0.00     0.001 C 
HETATM   11  C9  UNL     1     -15.090   4.270  25.264  1.00  0.00     0.012 C 
ENDBRANCH   1   6
TORSDOF 2
ENDMDL
MODEL 2
REMARK VINA RESULT: -5.467953126      1.781      3.402
REMARK  2 active torsions:
REMARK  status: ('A' for Active; 'I' for Inactive)
REMARK    1  A    between atoms: O1_2  and  C2_3 
REMARK    2  A    between atoms: C2_3  and  C4_6 
ROOT
HETATM    1  C2  UNL     1     -14.525   4.940  24.019  1.00  0.00     0.235 C 
HETATM    2  C3  UNL     1     -15.486   4.653  22.937  1.00  0.00     0.092 C 
HETATM    3  N1  UNL     1     -16.253   4.439  22.091  1.00  0.00    -0.194 NA
ENDROOT
BRANCH   1   4
HETATM    4  O1  UNL     1     -14.609   3.858  24.903  1.00  0.00    -0.376 OA
HETATM    5  C1  UNL     1     -15.246   4.228  26.068  1.00  0.00     0.203 C 
ENDBRANCH   1   4
BRANCH   1   6
HETATM    6  C4  UNL     1     -13.171   5.050  23.384  1.00  0.00    -0.005 C 
HETATM    7  C5  UNL     1     -12.767   6.485  23.316  1.00  0.00     0.019 C 
HETATM    8  C6  UNL     1     -12.213   4.190  24.171  1.00  0.00     0.012 C 
HETATM    9  C7  UNL     1     -11.056   3.938  23.223  1.00  0.00     0.001 C 
HETATM   10  C8  UNL     1     -11.637   4.123  21.830  1.00  0.00     0.001 C 
HETATM   11  C9  UNL     1     -13.099   4.433  22.017  1.00  0.00     0.012 C 
ENDBRANCH   1   6
TORSDOF 2
ENDMDL
MODEL 3
REMARK VINA RESULT: -5.382899510      1.761      3.023
REMARK  2 active torsions:
REMARK  status: ('A' for Active; 'I' for Inactive)
REMARK    1  A    between atoms: O1_2  and  C2_3 
REMARK    2  A    between atoms: C2_3  and  C4_6 
ROOT
HETATM    1  C2  UNL     1     -14.650   4.927  24.064  1.00  0.00     0.235 C 
HETATM    2  C3  UNL     1     -15.542   4.625  22.930  1.00  0.00     0.092 C 
HETATM    3  N1  UNL     1     -16.255   4.400  22.040  1.00  0.00    -0.194 NA
ENDROOT
BRANCH   1   4
HETATM    4  O1  UNL     1     -14.840   3.892  24.988  1.00  0.00    -0.376 OA
HETATM    5  C1  UNL     1     -15.341   4.383  26.174  1.00  0.00     0.203 C 
ENDBRANCH   1   4
BRANCH   1   6
HETATM    6  C4  UNL     1     -13.250   4.956  23.526  1.00  0.00    -0.005 C 
HETATM    7  C5  UNL     1     -13.252   4.492  22.108  1.00  0.00     0.019 C 
HETATM    8  C6  UNL     1     -12.708   6.353  23.704  1.00  0.00     0.012 C 
HETATM    9  C7  UNL     1     -11.201   6.192  23.635  1.00  0.00     0.001 C 
HETATM   10  C8  UNL     1     -10.939   4.744  24.020  1.00  0.00     0.001 C 
HETATM   11  C9  UNL     1     -12.282   4.137  24.331  1.00  0.00     0.012 C 
ENDBRANCH   1   6
TORSDOF 2
ENDMDL
MODEL 4
REMARK VINA RESULT: -5.282090759      2.064      2.874
REMARK  2 active torsions:
REMARK  status: ('A' for Active; 'I' for Inactive)
REMARK    1  A    between atoms: O1_2  and  C2_3 
REMARK    2  A    between atoms: C2_3  and  C4_6 
ROOT
HETATM    1  C2  UNL     1     -14.595   3.953  23.509  1.00  0.00     0.235 C 
HETATM    2  C3  UNL     1     -14.894   4.216  24.929  1.00  0.00     0.092 C 
HETATM    3  N1  UNL     1     -15.134   4.407  26.050  1.00  0.00    -0.194 NA
ENDROOT
BRANCH   1   4
HETATM    4  O1  UNL     1     -15.624   4.562  22.781  1.00  0.00    -0.376 OA
HETATM    5  C1  UNL     1     -16.475   3.616  22.253  1.00  0.00     0.203 C 
ENDBRANCH   1   4
BRANCH   1   6
HETATM    6  C4  UNL     1     -13.257   4.566  23.222  1.00  0.00    -0.005 C 
HETATM    7  C5  UNL     1     -12.863   4.267  21.815  1.00  0.00     0.019 C 
HETATM    8  C6  UNL     1     -13.343   6.042  23.526  1.00  0.00     0.012 C 
HETATM    9  C7  UNL     1     -11.903   6.479  23.715  1.00  0.00     0.001 C 
HETATM   10  C8  UNL     1     -11.152   5.214  24.104  1.00  0.00     0.001 C 
HETATM   11  C9  UNL     1     -12.177   4.112  24.163  1.00  0.00     0.012 C 
ENDBRANCH   1   6
TORSDOF 2
ENDMDL
MODEL 5
REMARK VINA RESULT: -5.213009984      2.216      2.984
REMARK  2 active torsions:
REMARK  status: ('A' for Active; 'I' for Inactive)
REMARK    1  A    between atoms: O1_2  and  C2_3 
REMARK    2  A    between atoms: C2_3  and  C4_6 
ROOT
HETATM    1  C2  UNL     1     -14.396   4.070  23.525  1.00  0.00     0.235 C 
HETATM    2  C3  UNL     1     -14.860   4.235  24.915  1.00  0.00     0.092 C 
HETATM    3  N1  UNL     1     -15.230   4.347  26.011  1.00  0.00    -0.194 NA
ENDROOT
BRANCH   1   4
HETATM    4  O1  UNL     1     -15.377   4.661  22.720  1.00  0.00    -0.376 OA
HETATM    5  C1  UNL     1     -16.299   3.724  22.308  1.00  0.00     0.203 C 
ENDBRANCH   1   4
BRANCH   1   6
HETATM    6  C4  UNL     1     -13.075   4.774  23.418  1.00  0.00    -0.005 C 
HETATM    7  C5  UNL     1     -12.084   4.112  24.314  1.00  0.00     0.019 C 
HETATM    8  C6  UNL     1     -12.666   4.785  21.966  1.00  0.00     0.012 C 
HETATM    9  C7  UNL     1     -11.650   5.907  21.862  1.00  0.00     0.001 C 
HETATM   10  C8  UNL     1     -11.960   6.832  23.029  1.00  0.00     0.001 C 
HETATM   11  C9  UNL     1     -13.152   6.240  23.735  1.00  0.00     0.012 C 
ENDBRANCH   1   6
TORSDOF 2
ENDMDL
