MODEL 1
REMARK VINA RESULT: -5.789311473      0.000      0.000
REMARK  3 active torsions:
REMARK  status: ('A' for Active; 'I' for Inactive)
REMARK    1  A    between atoms: C2_2  and  O2_4 
REMARK    2  A    between atoms: O2_4  and  N1_5 
REMARK    3  A    between atoms: C3_7  and  C4_8 
ROOT
HETATM    1  N1  UNL     1     -13.951   4.127  24.792  1.00  0.00    -0.272 N 
ATOM      2  H1  UNL     1     -13.472   3.625  25.539  1.00  0.00     0.193 HD
HETATM    3  C3  UNL     1     -14.246   3.511  23.711  1.00  0.00     0.092 C 
ENDROOT
BRANCH   1   4
HETATM    4  O2  UNL     1     -14.267   5.450  24.962  1.00  0.00    -0.201 OA
BRANCH   4   5
HETATM    5  C2  UNL     1     -15.011   5.931  26.011  1.00  0.00     0.277 C 
HETATM    6  C1  UNL     1     -15.449   7.344  25.992  1.00  0.00     0.128 C 
HETATM    7  O1  UNL     1     -15.303   5.186  26.956  1.00  0.00    -0.264 OA
ENDBRANCH   4   5
ENDBRANCH   1   4
BRANCH   3   8
HETATM    8  C4  UNL     1     -14.940   4.234  22.626  1.00  0.00     0.026 C 
HETATM    9  C5  UNL     1     -16.365   3.818  22.461  1.00  0.00     0.010 C 
HETATM   10  C6  UNL     1     -16.454   2.963  21.220  1.00  0.00     0.001 C 
HETATM   11  C7  UNL     1     -15.023   2.492  21.057  1.00  0.00     0.001 C 
HETATM   12  C8  UNL     1     -14.268   3.802  21.318  1.00  0.00     0.010 C 
ENDBRANCH   3   8
TORSDOF 3
ENDMDL
MODEL 2
REMARK VINA RESULT: -5.615362390      2.642      4.381
REMARK  3 active torsions:
REMARK  status: ('A' for Active; 'I' for Inactive)
REMARK    1  A    between atoms: C2_2  and  O2_4 
REMARK    2  A    between atoms: O2_4  and  N1_5 
REMARK    3  A    between atoms: C3_7  and  C4_8 
ROOT
HETATM    1  N1  UNL     1     -15.793   4.069  23.932  1.00  0.00    -0.272 N 
ATOM      2  H1  UNL     1     -16.367   3.680  24.680  1.00  0.00     0.193 HD
HETATM    3  C3  UNL     1     -14.591   4.426  24.183  1.00  0.00     0.092 C 
ENDROOT
BRANCH   1   4
HETATM    4  O2  UNL     1     -16.323   4.201  22.673  1.00  0.00    -0.201 OA
BRANCH   4   5
HETATM    5  C2  UNL     1     -16.750   3.145  21.907  1.00  0.00     0.277 C 
HETATM    6  C1  UNL     1     -15.887   2.662  20.807  1.00  0.00     0.128 C 
HETATM    7  O1  UNL     1     -17.844   2.614  22.140  1.00  0.00    -0.264 OA
ENDBRANCH   4   5
ENDBRANCH   1   4
BRANCH   3   8
HETATM    8  C4  UNL     1     -13.757   4.990  23.103  1.00  0.00     0.026 C 
HETATM    9  C5  UNL     1     -12.932   3.961  22.401  1.00  0.00     0.010 C 
HETATM   10  C6  UNL     1     -11.503   4.126  22.859  1.00  0.00     0.001 C 
HETATM   11  C7  UNL     1     -11.676   4.855  24.177  1.00  0.00     0.001 C 
HETATM   12  C8  UNL     1     -12.727   5.899  23.781  1.00  0.00     0.010 C 
ENDBRANCH   3   8
TORSDOF 3
ENDMDL
MODEL 3
REMARK VINA RESULT: -5.405515933      2.792      4.642
REMARK  3 active torsions:
REMARK  status: ('A' for Active; 'I' for Inactive)
REMARK    1  A    between atoms: C2_2  and  O2_4 
REMARK    2  A    between atoms: O2_4  and  N1_5 
REMARK    3  A    between atoms: C3_7  and  C4_8 
ROOT
HETATM    1  N1  UNL     1     -15.343   4.917  23.679  1.00  0.00    -0.272 N 
ATOM      2  H1  UNL     1     -16.132   5.431  24.072  1.00  0.00     0.193 HD
HETATM    3  C3  UNL     1     -14.166   5.407  23.769  1.00  0.00     0.092 C 
ENDROOT
BRANCH   1   4
HETATM    4  O2  UNL     1     -15.563   3.712  23.062  1.00  0.00    -0.201 OA
BRANCH   4   5
HETATM    5  C2  UNL     1     -15.967   3.582  21.756  1.00  0.00     0.277 C 
HETATM    6  C1  UNL     1     -15.189   2.712  20.847  1.00  0.00     0.128 C 
HETATM    7  O1  UNL     1     -16.969   4.190  21.355  1.00  0.00    -0.264 OA
ENDBRANCH   4   5
ENDBRANCH   1   4
BRANCH   3   8
HETATM    8  C4  UNL     1     -13.021   4.667  23.201  1.00  0.00     0.026 C 
HETATM    9  C5  UNL     1     -12.089   4.138  24.242  1.00  0.00     0.010 C 
HETATM   10  C6  UNL     1     -10.849   4.999  24.229  1.00  0.00     0.001 C 
HETATM   11  C7  UNL     1     -11.355   6.273  23.583  1.00  0.00     0.001 C 
HETATM   12  C8  UNL     1     -12.182   5.691  22.430  1.00  0.00     0.010 C 
ENDBRANCH   3   8
TORSDOF 3
ENDMDL
MODEL 4
REMARK VINA RESULT: -5.393396908      2.519      3.367
REMARK  3 active torsions:
REMARK  status: ('A' for Active; 'I' for Inactive)
REMARK    1  A    between atoms: C2_2  and  O2_4 
REMARK    2  A    between atoms: O2_4  and  N1_5 
REMARK    3  A    between atoms: C3_7  and  C4_8 
ROOT
HETATM    1  N1  UNL     1     -15.392   6.995  26.105  1.00  0.00    -0.272 N 
ATOM      2  H1  UNL     1     -15.570   7.121  27.102  1.00  0.00     0.193 HD
HETATM    3  C3  UNL     1     -14.948   5.872  25.684  1.00  0.00     0.092 C 
ENDROOT
BRANCH   1   4
HETATM    4  O2  UNL     1     -15.634   8.031  25.239  1.00  0.00    -0.201 OA
BRANCH   4   5
HETATM    5  C2  UNL     1     -14.825   9.134  25.120  1.00  0.00     0.277 C 
HETATM    6  C1  UNL     1     -13.856   9.195  24.004  1.00  0.00     0.128 C 
HETATM    7  O1  UNL     1     -14.912  10.057  25.940  1.00  0.00    -0.264 OA
ENDBRANCH   4   5
ENDBRANCH   1   4
BRANCH   3   8
HETATM    8  C4  UNL     1     -14.689   5.684  24.243  1.00  0.00     0.026 C 
HETATM    9  C5  UNL     1     -15.253   4.409  23.707  1.00  0.00     0.010 C 
HETATM   10  C6  UNL     1     -14.104   3.453  23.490  1.00  0.00     0.001 C 
HETATM   11  C7  UNL     1     -13.042   4.022  24.408  1.00  0.00     0.001 C 
HETATM   12  C8  UNL     1     -13.173   5.518  24.093  1.00  0.00     0.010 C 
ENDBRANCH   3   8
TORSDOF 3
ENDMDL
MODEL 5
REMARK VINA RESULT: -5.263159640      2.338      3.072
REMARK  3 active torsions:
REMARK  status: ('A' for Active; 'I' for Inactive)
REMARK    1  A    between atoms: C2_2  and  O2_4 
REMARK    2  A    between atoms: O2_4  and  N1_5 
REMARK    3  A    between atoms: C3_7  and  C4_8 
ROOT
HETATM    1  N1  UNL     1     -15.131   5.137  25.021  1.00  0.00    -0.272 N 
ATOM      2  H1  UNL     1     -16.068   4.735  24.984  1.00  0.00     0.193 HD
HETATM    3  C3  UNL     1     -14.232   4.711  24.218  1.00  0.00     0.092 C 
ENDROOT
BRANCH   1   4
HETATM    4  O2  UNL     1     -14.856   6.125  25.932  1.00  0.00    -0.201 OA
BRANCH   4   5
HETATM    5  C2  UNL     1     -15.456   7.360  25.927  1.00  0.00     0.277 C 
HETATM    6  C1  UNL     1     -14.806   8.470  25.196  1.00  0.00     0.128 C 
HETATM    7  O1  UNL     1     -16.524   7.532  26.529  1.00  0.00    -0.264 OA
ENDBRANCH   4   5
ENDBRANCH   1   4
BRANCH   3   8
HETATM    8  C4  UNL     1     -12.874   5.290  24.268  1.00  0.00     0.026 C 
HETATM    9  C5  UNL     1     -12.598   6.237  23.147  1.00  0.00     0.010 C 
HETATM   10  C6  UNL     1     -11.682   5.539  22.170  1.00  0.00     0.001 C 
HETATM   11  C7  UNL     1     -11.923   4.080  22.498  1.00  0.00     0.001 C 
HETATM   12  C8  UNL     1     -11.900   4.131  24.031  1.00  0.00     0.010 C 
ENDBRANCH   3   8
TORSDOF 3
ENDMDL
