MODEL 1
REMARK VINA RESULT: -5.409718671      0.000      0.000
REMARK  2 active torsions:
REMARK  status: ('A' for Active; 'I' for Inactive)
REMARK    1  A    between atoms: C3_3  and  C4_4 
REMARK    2  A    between atoms: C4_4  and  C5_6 
ROOT
HETATM    1  C5  UNL     1     -14.059   3.468  22.958  1.00  0.00     0.195 C 
HETATM    2  C6  UNL     1     -13.944   3.590  21.441  1.00  0.00     0.040 C 
HETATM    3  C7  UNL     1     -14.935   2.647  20.819  1.00  0.00     0.005 C 
HETATM    4  C8  UNL     1     -16.334   3.014  21.234  1.00  0.00     0.026 C 
HETATM    5  C9  UNL     1     -16.213   4.052  22.348  1.00  0.00     0.168 C 
HETATM    6  O2  UNL     1     -15.358   3.645  23.346  1.00  0.00    -0.378 OA
ENDROOT
BRANCH   1   7
HETATM    7  C4  UNL     1     -13.137   4.376  23.651  1.00  0.00     0.177 C 
HETATM    8  O1  UNL     1     -12.389   3.898  24.536  1.00  0.00    -0.290 OA
BRANCH   7   9
HETATM    9  C3  UNL     1     -13.083   5.791  23.330  1.00  0.00     0.048 C 
HETATM   10  C2  UNL     1     -13.770   6.734  23.955  1.00  0.00    -0.027 C 
HETATM   11  C1  UNL     1     -14.698   6.470  25.077  1.00  0.00     0.036 C 
ENDBRANCH   7   9
ENDBRANCH   1   7
TORSDOF 2
ENDMDL
MODEL 2
REMARK VINA RESULT: -5.290008339      1.240      1.894
REMARK  2 active torsions:
REMARK  status: ('A' for Active; 'I' for Inactive)
REMARK    1  A    between atoms: C3_3  and  C4_4 
REMARK    2  A    between atoms: C4_4  and  C5_6 
ROOT
HETATM    1  C5  UNL     1     -14.615   4.490  22.573  1.00  0.00     0.195 C 
HETATM    2  C6  UNL     1     -15.892   3.711  22.879  1.00  0.00     0.040 C 
HETATM    3  C7  UNL     1     -16.534   3.333  21.574  1.00  0.00     0.005 C 
HETATM    4  C8  UNL     1     -15.608   2.460  20.771  1.00  0.00     0.026 C 
HETATM    5  C9  UNL     1     -14.248   2.492  21.465  1.00  0.00     0.168 C 
HETATM    6  O2  UNL     1     -13.824   3.777  21.716  1.00  0.00    -0.378 OA
ENDROOT
BRANCH   1   7
HETATM    7  C4  UNL     1     -13.907   4.881  23.798  1.00  0.00     0.177 C 
HETATM    8  O1  UNL     1     -12.913   4.204  24.150  1.00  0.00    -0.290 OA
BRANCH   7   9
HETATM    9  C3  UNL     1     -14.336   6.020  24.591  1.00  0.00     0.048 C 
HETATM   10  C2  UNL     1     -14.957   5.938  25.756  1.00  0.00    -0.027 C 
HETATM   11  C1  UNL     1     -15.303   4.659  26.417  1.00  0.00     0.036 C 
ENDBRANCH   7   9
ENDBRANCH   1   7
TORSDOF 2
ENDMDL
MODEL 3
REMARK VINA RESULT: -5.282060279      1.380      4.027
REMARK  2 active torsions:
REMARK  status: ('A' for Active; 'I' for Inactive)
REMARK    1  A    between atoms: C3_3  and  C4_4 
REMARK    2  A    between atoms: C4_4  and  C5_6 
ROOT
HETATM    1  C5  UNL     1     -14.755   4.944  23.432  1.00  0.00     0.195 C 
HETATM    2  C6  UNL     1     -13.936   5.986  24.189  1.00  0.00     0.040 C 
HETATM    3  C7  UNL     1     -14.803   6.567  25.271  1.00  0.00     0.005 C 
HETATM    4  C8  UNL     1     -15.232   5.490  26.230  1.00  0.00     0.026 C 
HETATM    5  C9  UNL     1     -14.843   4.152  25.604  1.00  0.00     0.168 C 
HETATM    6  O2  UNL     1     -15.286   4.038  24.307  1.00  0.00    -0.378 OA
ENDROOT
BRANCH   1   7
HETATM    7  C4  UNL     1     -13.974   4.306  22.365  1.00  0.00     0.177 C 
HETATM    8  O1  UNL     1     -12.747   4.130  22.553  1.00  0.00    -0.290 OA
BRANCH   7   9
HETATM    9  C3  UNL     1     -14.594   3.884  21.121  1.00  0.00     0.048 C 
HETATM   10  C2  UNL     1     -14.925   2.637  20.827  1.00  0.00    -0.027 C 
HETATM   11  C1  UNL     1     -14.702   1.490  21.737  1.00  0.00     0.036 C 
ENDBRANCH   7   9
ENDBRANCH   1   7
TORSDOF 2
ENDMDL
MODEL 4
REMARK VINA RESULT: -5.223388563      1.415      2.187
REMARK  2 active torsions:
REMARK  status: ('A' for Active; 'I' for Inactive)
REMARK    1  A    between atoms: C3_3  and  C4_4 
REMARK    2  A    between atoms: C4_4  and  C5_6 
ROOT
HETATM    1  C5  UNL     1     -14.950   4.561  22.466  1.00  0.00     0.195 C 
HETATM    2  C6  UNL     1     -16.228   3.756  22.687  1.00  0.00     0.040 C 
HETATM    3  C7  UNL     1     -16.680   3.220  21.357  1.00  0.00     0.005 C 
HETATM    4  C8  UNL     1     -15.627   2.317  20.775  1.00  0.00     0.026 C 
HETATM    5  C9  UNL     1     -14.371   2.483  21.629  1.00  0.00     0.168 C 
HETATM    6  O2  UNL     1     -14.029   3.805  21.796  1.00  0.00    -0.378 OA
ENDROOT
BRANCH   1   7
HETATM    7  C4  UNL     1     -14.424   5.106  23.723  1.00  0.00     0.177 C 
HETATM    8  O1  UNL     1     -14.917   4.695  24.800  1.00  0.00    -0.290 OA
BRANCH   7   9
HETATM    9  C3  UNL     1     -13.360   6.094  23.734  1.00  0.00     0.048 C 
HETATM   10  C2  UNL     1     -12.078   5.822  23.915  1.00  0.00    -0.027 C 
HETATM   11  C1  UNL     1     -11.549   4.457  24.135  1.00  0.00     0.036 C 
ENDBRANCH   7   9
ENDBRANCH   1   7
TORSDOF 2
ENDMDL
MODEL 5
REMARK VINA RESULT: -5.199840163      1.458      4.188
REMARK  2 active torsions:
REMARK  status: ('A' for Active; 'I' for Inactive)
REMARK    1  A    between atoms: C3_3  and  C4_4 
REMARK    2  A    between atoms: C4_4  and  C5_6 
ROOT
HETATM    1  C5  UNL     1     -15.338   4.612  23.020  1.00  0.00     0.195 C 
HETATM    2  C6  UNL     1     -13.994   4.974  22.394  1.00  0.00     0.040 C 
HETATM    3  C7  UNL     1     -13.223   5.799  23.386  1.00  0.00     0.005 C 
HETATM    4  C8  UNL     1     -12.980   5.009  24.643  1.00  0.00     0.026 C 
HETATM    5  C9  UNL     1     -13.834   3.747  24.552  1.00  0.00     0.168 C 
HETATM    6  O2  UNL     1     -15.145   4.029  24.242  1.00  0.00    -0.378 OA
ENDROOT
BRANCH   1   7
HETATM    7  C4  UNL     1     -16.152   3.782  22.124  1.00  0.00     0.177 C 
HETATM    8  O1  UNL     1     -17.301   3.453  22.502  1.00  0.00    -0.290 OA
BRANCH   7   9
HETATM    9  C3  UNL     1     -15.653   3.348  20.831  1.00  0.00     0.048 C 
HETATM   10  C2  UNL     1     -14.926   2.261  20.628  1.00  0.00    -0.027 C 
HETATM   11  C1  UNL     1     -14.518   1.331  21.705  1.00  0.00     0.036 C 
ENDBRANCH   7   9
ENDBRANCH   1   7
TORSDOF 2
ENDMDL
