MODEL 1
REMARK VINA RESULT: -8.095589872      0.000      0.000
REMARK  4 active torsions:
REMARK  status: ('A' for Active; 'I' for Inactive)
REMARK    1  A    between atoms: C2_2  and  C3_4 
REMARK    2  A    between atoms: C3_4  and  C5_6 
REMARK    3  A    between atoms: C5_6  and  C6_8 
REMARK       I    between atoms: C6_8  and  N1_10 
REMARK    4  A    between atoms: C10_15  and  S1_16 
ROOT
HETATM    1  C6  UNL     1      -3.592  23.273   5.871  1.00  0.00     0.292 C 
HETATM    2  O3  UNL     1      -3.200  22.835   7.004  1.00  0.00    -0.264 OA
HETATM    3  N1  UNL     1      -3.635  22.457   4.745  1.00  0.00    -0.323 N 
ATOM      4  H1  UNL     1      -2.742  22.307   4.276  1.00  0.00     0.169 HD
HETATM    5  C7  UNL     1      -4.621  21.879   4.225  1.00  0.00     0.026 C 
HETATM    6  C8  UNL     1      -5.942  22.019   4.800  1.00  0.00     0.024 C 
HETATM    7  C9  UNL     1      -6.883  21.134   4.639  1.00  0.00     0.013 C 
HETATM    8  C10 UNL     1      -6.785  19.880   3.876  1.00  0.00     0.275 C 
HETATM    9  S2  UNL     1      -5.143  19.465   3.397  1.00  0.00     0.173 S 
HETATM   10  O7  UNL     1      -4.436  18.900   4.597  1.00  0.00    -0.226 OA
HETATM   11  O8  UNL     1      -5.103  18.547   2.236  1.00  0.00    -0.226 OA
HETATM   12  C11 UNL     1      -4.386  21.046   2.996  1.00  0.00     0.199 C 
ENDROOT
BRANCH   1  13
HETATM   13  C5  UNL     1      -3.997  24.671   5.788  1.00  0.00     0.227 C 
HETATM   14  O2  UNL     1      -3.256  25.474   5.188  1.00  0.00    -0.286 OA
BRANCH  13  15
HETATM   15  C3  UNL     1      -5.250  25.160   6.389  1.00  0.00     0.130 C 
HETATM   16  C4  UNL     1      -5.415  26.598   5.898  1.00  0.00     0.026 C 
BRANCH  15  17
HETATM   17  C2  UNL     1      -5.225  25.101   7.861  1.00  0.00     0.134 C 
HETATM   18  C1  UNL     1      -6.066  24.049   8.540  1.00  0.00     0.091 C 
HETATM   19  O1  UNL     1      -4.550  25.873   8.503  1.00  0.00    -0.298 OA
ENDBRANCH  15  17
ENDBRANCH  13  15
ENDBRANCH   1  13
BRANCH   8  20
HETATM   20  S1  UNL     1      -7.885  19.902   2.479  1.00  0.00     0.124 S 
HETATM   21  O4  UNL     1      -8.305  18.499   2.145  1.00  0.00    -0.594 OA
HETATM   22  O5  UNL     1      -9.106  20.692   2.900  1.00  0.00    -0.594 OA
HETATM   23  O6  UNL     1      -7.219  20.661   1.162  1.00  0.00    -0.594 OA
ENDBRANCH   8  20
TORSDOF 4
ENDMDL
MODEL 2
REMARK VINA RESULT: -8.085971340      1.503      2.222
REMARK  4 active torsions:
REMARK  status: ('A' for Active; 'I' for Inactive)
REMARK    1  A    between atoms: C2_2  and  C3_4 
REMARK    2  A    between atoms: C3_4  and  C5_6 
REMARK    3  A    between atoms: C5_6  and  C6_8 
REMARK       I    between atoms: C6_8  and  N1_10 
REMARK    4  A    between atoms: C10_15  and  S1_16 
ROOT
HETATM    1  C6  UNL     1      -4.519  22.890   6.095  1.00  0.00     0.292 C 
HETATM    2  O3  UNL     1      -3.942  22.498   7.163  1.00  0.00    -0.264 OA
HETATM    3  N1  UNL     1      -4.434  22.168   4.908  1.00  0.00    -0.323 N 
ATOM      4  H1  UNL     1      -3.571  22.293   4.379  1.00  0.00     0.169 HD
HETATM    5  C7  UNL     1      -5.271  21.385   4.397  1.00  0.00     0.026 C 
HETATM    6  C8  UNL     1      -6.535  21.129   5.055  1.00  0.00     0.024 C 
HETATM    7  C9  UNL     1      -7.222  20.039   4.873  1.00  0.00     0.013 C 
HETATM    8  C10 UNL     1      -6.859  18.910   4.002  1.00  0.00     0.275 C 
HETATM    9  S2  UNL     1      -5.206  18.979   3.399  1.00  0.00     0.173 S 
HETATM   10  O7  UNL     1      -4.287  18.544   4.506  1.00  0.00    -0.226 OA
HETATM   11  O8  UNL     1      -5.017  18.184   2.165  1.00  0.00    -0.226 OA
HETATM   12  C11 UNL     1      -4.921  20.728   3.091  1.00  0.00     0.199 C 
ENDROOT
BRANCH   1  13
HETATM   13  C5  UNL     1      -5.281  24.132   6.152  1.00  0.00     0.227 C 
HETATM   14  O2  UNL     1      -6.217  24.222   6.969  1.00  0.00    -0.286 OA
BRANCH  13  15
HETATM   15  C3  UNL     1      -4.976  25.278   5.277  1.00  0.00     0.130 C 
HETATM   16  C4  UNL     1      -5.138  26.522   6.149  1.00  0.00     0.026 C 
BRANCH  15  17
HETATM   17  C2  UNL     1      -5.861  25.334   4.100  1.00  0.00     0.134 C 
HETATM   18  C1  UNL     1      -5.897  26.615   3.305  1.00  0.00     0.091 C 
HETATM   19  O1  UNL     1      -6.537  24.381   3.783  1.00  0.00    -0.298 OA
ENDBRANCH  15  17
ENDBRANCH  13  15
ENDBRANCH   1  13
BRANCH   8  20
HETATM   20  S1  UNL     1      -8.029  18.731   2.676  1.00  0.00     0.124 S 
HETATM   21  O4  UNL     1      -8.038  17.307   2.199  1.00  0.00    -0.594 OA
HETATM   22  O5  UNL     1      -9.390  19.065   3.249  1.00  0.00    -0.594 OA
HETATM   23  O6  UNL     1      -7.733  19.782   1.426  1.00  0.00    -0.594 OA
ENDBRANCH   8  20
TORSDOF 4
ENDMDL
MODEL 3
REMARK VINA RESULT: -8.067806058      2.620      6.988
REMARK  4 active torsions:
REMARK  status: ('A' for Active; 'I' for Inactive)
REMARK    1  A    between atoms: C2_2  and  C3_4 
REMARK    2  A    between atoms: C3_4  and  C5_6 
REMARK    3  A    between atoms: C5_6  and  C6_8 
REMARK       I    between atoms: C6_8  and  N1_10 
REMARK    4  A    between atoms: C10_15  and  S1_16 
ROOT
HETATM    1  C6  UNL     1      -7.251  20.995   3.478  1.00  0.00     0.292 C 
HETATM    2  O3  UNL     1      -8.342  21.388   2.945  1.00  0.00    -0.264 OA
HETATM    3  N1  UNL     1      -6.163  21.848   3.638  1.00  0.00    -0.323 N 
ATOM      4  H1  UNL     1      -5.596  21.998   2.804  1.00  0.00     0.169 HD
HETATM    5  C7  UNL     1      -5.784  22.460   4.666  1.00  0.00     0.026 C 
HETATM    6  C8  UNL     1      -6.508  22.324   5.912  1.00  0.00     0.024 C 
HETATM    7  C9  UNL     1      -6.488  23.230   6.847  1.00  0.00     0.013 C 
HETATM    8  C10 UNL     1      -5.757  24.506   6.814  1.00  0.00     0.275 C 
HETATM    9  S2  UNL     1      -5.098  24.909   5.232  1.00  0.00     0.173 S 
HETATM   10  O7  UNL     1      -6.222  25.421   4.375  1.00  0.00    -0.226 OA
HETATM   11  O8  UNL     1      -3.969  25.863   5.311  1.00  0.00    -0.226 OA
HETATM   12  C11 UNL     1      -4.561  23.328   4.562  1.00  0.00     0.199 C 
ENDROOT
BRANCH   1  13
HETATM   13  C5  UNL     1      -7.174  19.607   3.920  1.00  0.00     0.227 C 
HETATM   14  O2  UNL     1      -7.356  19.353   5.126  1.00  0.00    -0.286 OA
BRANCH  13  15
HETATM   15  C3  UNL     1      -6.890  18.504   2.986  1.00  0.00     0.130 C 
HETATM   16  C4  UNL     1      -7.872  17.390   3.346  1.00  0.00     0.026 C 
BRANCH  15  17
HETATM   17  C2  UNL     1      -5.496  18.034   3.082  1.00  0.00     0.134 C 
HETATM   18  C1  UNL     1      -4.399  19.002   2.715  1.00  0.00     0.091 C 
HETATM   19  O1  UNL     1      -5.242  16.908   3.444  1.00  0.00    -0.298 OA
ENDBRANCH  15  17
ENDBRANCH  13  15
ENDBRANCH   1  13
BRANCH   8  20
HETATM   20  S1  UNL     1      -4.502  24.550   8.072  1.00  0.00     0.124 S 
HETATM   21  O4  UNL     1      -4.292  25.965   8.527  1.00  0.00    -0.594 OA
HETATM   22  O5  UNL     1      -5.025  23.733   9.236  1.00  0.00    -0.594 OA
HETATM   23  O6  UNL     1      -3.078  23.861   7.569  1.00  0.00    -0.594 OA
ENDBRANCH   8  20
TORSDOF 4
ENDMDL
MODEL 4
REMARK VINA RESULT: -8.053928947      2.691      7.127
REMARK  4 active torsions:
REMARK  status: ('A' for Active; 'I' for Inactive)
REMARK    1  A    between atoms: C2_2  and  C3_4 
REMARK    2  A    between atoms: C3_4  and  C5_6 
REMARK    3  A    between atoms: C5_6  and  C6_8 
REMARK       I    between atoms: C6_8  and  N1_10 
REMARK    4  A    between atoms: C10_15  and  S1_16 
ROOT
HETATM    1  C6  UNL     1      -8.028  20.661   3.264  1.00  0.00     0.292 C 
HETATM    2  O3  UNL     1      -9.104  21.178   2.813  1.00  0.00    -0.264 OA
HETATM    3  N1  UNL     1      -6.823  21.359   3.264  1.00  0.00    -0.323 N 
ATOM      4  H1  UNL     1      -6.330  21.383   2.372  1.00  0.00     0.169 HD
HETATM    5  C7  UNL     1      -6.260  21.962   4.210  1.00  0.00     0.026 C 
HETATM    6  C8  UNL     1      -6.863  21.995   5.525  1.00  0.00     0.024 C 
HETATM    7  C9  UNL     1      -6.624  22.935   6.393  1.00  0.00     0.013 C 
HETATM    8  C10 UNL     1      -5.734  24.092   6.207  1.00  0.00     0.275 C 
HETATM    9  S2  UNL     1      -5.192  24.315   4.547  1.00  0.00     0.173 S 
HETATM   10  O7  UNL     1      -6.318  24.937   3.769  1.00  0.00    -0.226 OA
HETATM   11  O8  UNL     1      -3.942  25.102   4.456  1.00  0.00    -0.226 OA
HETATM   12  C11 UNL     1      -4.948  22.642   3.933  1.00  0.00     0.199 C 
ENDROOT
BRANCH   1  13
HETATM   13  C5  UNL     1      -8.095  19.301   3.786  1.00  0.00     0.227 C 
HETATM   14  O2  UNL     1      -7.734  19.093   4.961  1.00  0.00    -0.286 OA
BRANCH  13  15
HETATM   15  C3  UNL     1      -8.576  18.173   2.970  1.00  0.00     0.130 C 
HETATM   16  C4  UNL     1      -9.686  17.511   3.786  1.00  0.00     0.026 C 
BRANCH  15  17
HETATM   17  C2  UNL     1      -7.502  17.213   2.656  1.00  0.00     0.134 C 
HETATM   18  C1  UNL     1      -6.078  17.640   2.906  1.00  0.00     0.091 C 
HETATM   19  O1  UNL     1      -7.759  16.117   2.212  1.00  0.00    -0.298 OA
ENDBRANCH  15  17
ENDBRANCH  13  15
ENDBRANCH   1  13
BRANCH   8  20
HETATM   20  S1  UNL     1      -4.361  24.021   7.335  1.00  0.00     0.124 S 
HETATM   21  O4  UNL     1      -3.786  25.396   7.518  1.00  0.00    -0.594 OA
HETATM   22  O5  UNL     1      -4.912  23.540   8.661  1.00  0.00    -0.594 OA
HETATM   23  O6  UNL     1      -3.198  22.941   6.849  1.00  0.00    -0.594 OA
ENDBRANCH   8  20
TORSDOF 4
ENDMDL
MODEL 5
REMARK VINA RESULT: -7.750594629      1.344      1.780
REMARK  4 active torsions:
REMARK  status: ('A' for Active; 'I' for Inactive)
REMARK    1  A    between atoms: C2_2  and  C3_4 
REMARK    2  A    between atoms: C3_4  and  C5_6 
REMARK    3  A    between atoms: C5_6  and  C6_8 
REMARK       I    between atoms: C6_8  and  N1_10 
REMARK    4  A    between atoms: C10_15  and  S1_16 
ROOT
HETATM    1  C6  UNL     1      -4.858  22.673   6.650  1.00  0.00     0.292 C 
HETATM    2  O3  UNL     1      -4.142  22.188   7.589  1.00  0.00    -0.264 OA
HETATM    3  N1  UNL     1      -4.760  22.213   5.340  1.00  0.00    -0.323 N 
ATOM      4  H1  UNL     1      -3.972  22.578   4.805  1.00  0.00     0.169 HD
HETATM    5  C7  UNL     1      -5.505  21.411   4.727  1.00  0.00     0.026 C 
HETATM    6  C8  UNL     1      -6.656  20.828   5.382  1.00  0.00     0.024 C 
HETATM    7  C9  UNL     1      -7.180  19.692   5.021  1.00  0.00     0.013 C 
HETATM    8  C10 UNL     1      -6.719  18.824   3.926  1.00  0.00     0.275 C 
HETATM    9  S2  UNL     1      -5.152  19.282   3.267  1.00  0.00     0.173 S 
HETATM   10  O7  UNL     1      -4.089  18.806   4.218  1.00  0.00    -0.226 OA
HETATM   11  O8  UNL     1      -4.943  18.777   1.891  1.00  0.00    -0.226 OA
HETATM   12  C11 UNL     1      -5.166  21.080   3.300  1.00  0.00     0.199 C 
ENDROOT
BRANCH   1  13
HETATM   13  C5  UNL     1      -5.795  23.737   6.992  1.00  0.00     0.227 C 
HETATM   14  O2  UNL     1      -6.863  23.434   7.558  1.00  0.00    -0.286 OA
BRANCH  13  15
HETATM   15  C3  UNL     1      -5.516  25.152   6.691  1.00  0.00     0.130 C 
HETATM   16  C4  UNL     1      -5.331  25.226   5.176  1.00  0.00     0.026 C 
BRANCH  15  17
HETATM   17  C2  UNL     1      -4.321  25.649   7.397  1.00  0.00     0.134 C 
HETATM   18  C1  UNL     1      -3.077  25.905   6.584  1.00  0.00     0.091 C 
HETATM   19  O1  UNL     1      -4.341  25.846   8.590  1.00  0.00    -0.298 OA
ENDBRANCH  15  17
ENDBRANCH  13  15
ENDBRANCH   1  13
BRANCH   8  20
HETATM   20  S1  UNL     1      -7.951  18.706   2.651  1.00  0.00     0.124 S 
HETATM   21  O4  UNL     1      -7.971  17.311   2.096  1.00  0.00    -0.594 OA
HETATM   22  O5  UNL     1      -9.286  18.991   3.308  1.00  0.00    -0.594 OA
HETATM   23  O6  UNL     1      -7.728  19.829   1.449  1.00  0.00    -0.594 OA
ENDBRANCH   8  20
TORSDOF 4
ENDMDL
