MODEL 1
REMARK VINA RESULT: -7.521752875      0.000      0.000
REMARK  3 active torsions:
REMARK  status: ('A' for Active; 'I' for Inactive)
REMARK    1  A    between atoms: S1_2  and  N1_5 
REMARK       I    between atoms: N1_5  and  C2_7 
REMARK    2  A    between atoms: C2_7  and  C3_9 
REMARK    3  A    between atoms: C6_12  and  S2_13 
ROOT
HETATM    1  S2  UNL     1      -4.854  21.710   1.547  1.00  0.00    -0.044 SA
HETATM    2  C7  UNL     1      -3.190  21.259   1.144  1.00  0.00     0.134 C 
HETATM    3  N2  UNL     1      -2.107  20.964   0.860  1.00  0.00    -0.184 NA
ENDROOT
BRANCH   1   4
HETATM    4  C6  UNL     1      -5.729  20.170   2.034  1.00  0.00     0.087 C 
HETATM    5  C5  UNL     1      -5.496  19.875   3.478  1.00  0.00     0.068 C 
HETATM    6  C4  UNL     1      -5.071  21.055   4.242  1.00  0.00    -0.003 C 
HETATM    7  C9  UNL     1      -6.608  19.092   4.041  1.00  0.00     0.252 C 
HETATM    8  C3  UNL     1      -5.469  21.196   5.498  1.00  0.00     0.031 C 
HETATM    9  C10 UNL     1      -6.332  20.174   6.077  1.00  0.00     0.213 C 
HETATM   10  O6  UNL     1      -7.191  19.575   5.172  1.00  0.00    -0.365 OA
HETATM   11  S3  UNL     1      -7.892  19.116   2.775  1.00  0.00     0.173 S 
HETATM   12  C8  UNL     1      -7.174  20.402   1.772  1.00  0.00     0.160 C 
HETATM   13  O4  UNL     1      -7.914  17.836   2.010  1.00  0.00    -0.225 OA
HETATM   14  O5  UNL     1      -9.211  19.510   3.328  1.00  0.00    -0.225 OA
BRANCH   8  15
HETATM   15  C2  UNL     1      -5.069  22.347   6.286  1.00  0.00     0.262 C 
HETATM   16  N1  UNL     1      -5.853  22.798   7.356  1.00  0.00    -0.251 N 
ATOM     17  H1  UNL     1      -6.712  22.296   7.578  1.00  0.00     0.181 HD
HETATM   18  O3  UNL     1      -4.002  22.965   6.015  1.00  0.00    -0.267 OA
BRANCH  16  19
HETATM   19  S1  UNL     1      -5.424  24.172   8.318  1.00  0.00     0.229 S 
HETATM   20  C1  UNL     1      -5.325  25.652   7.348  1.00  0.00     0.186 C 
HETATM   21  O1  UNL     1      -6.481  24.327   9.366  1.00  0.00    -0.206 OA
HETATM   22  O2  UNL     1      -4.100  23.978   8.998  1.00  0.00    -0.206 OA
ENDBRANCH  16  19
ENDBRANCH   8  15
ENDBRANCH   1   4
TORSDOF 3
ENDMDL
MODEL 2
REMARK VINA RESULT: -7.477117413      1.204      1.204
REMARK  3 active torsions:
REMARK  status: ('A' for Active; 'I' for Inactive)
REMARK    1  A    between atoms: S1_2  and  N1_5 
REMARK       I    between atoms: N1_5  and  C2_7 
REMARK    2  A    between atoms: C2_7  and  C3_9 
REMARK    3  A    between atoms: C6_12  and  S2_13 
ROOT
HETATM    1  S2  UNL     1      -5.138  21.919   1.474  1.00  0.00    -0.044 SA
HETATM    2  C7  UNL     1      -5.614  22.215  -0.206  1.00  0.00     0.134 C 
HETATM    3  N2  UNL     1      -5.940  22.421  -1.297  1.00  0.00    -0.184 NA
ENDROOT
BRANCH   1   4
HETATM    4  C6  UNL     1      -5.868  20.306   1.967  1.00  0.00     0.087 C 
HETATM    5  C5  UNL     1      -5.511  19.986   3.380  1.00  0.00     0.068 C 
HETATM    6  C4  UNL     1      -5.115  21.169   4.153  1.00  0.00    -0.003 C 
HETATM    7  C9  UNL     1      -6.524  19.109   3.991  1.00  0.00     0.252 C 
HETATM    8  C3  UNL     1      -5.431  21.243   5.438  1.00  0.00     0.031 C 
HETATM    9  C10 UNL     1      -6.178  20.145   6.039  1.00  0.00     0.213 C 
HETATM   10  O6  UNL     1      -7.056  19.515   5.176  1.00  0.00    -0.365 OA
HETATM   11  S3  UNL     1      -7.894  19.080   2.819  1.00  0.00     0.173 S 
HETATM   12  C8  UNL     1      -7.341  20.442   1.814  1.00  0.00     0.160 C 
HETATM   13  O4  UNL     1      -7.883  17.824   2.013  1.00  0.00    -0.225 OA
HETATM   14  O5  UNL     1      -9.194  19.362   3.476  1.00  0.00    -0.225 OA
BRANCH   8  15
HETATM   15  C2  UNL     1      -5.055  22.396   6.236  1.00  0.00     0.262 C 
HETATM   16  N1  UNL     1      -5.826  22.795   7.336  1.00  0.00    -0.251 N 
ATOM     17  H1  UNL     1      -6.657  22.254   7.573  1.00  0.00     0.181 HD
HETATM   18  O3  UNL     1      -4.022  23.062   5.948  1.00  0.00    -0.267 OA
BRANCH  16  19
HETATM   19  S1  UNL     1      -5.425  24.168   8.312  1.00  0.00     0.229 S 
HETATM   20  C1  UNL     1      -5.360  25.659   7.357  1.00  0.00     0.186 C 
HETATM   21  O1  UNL     1      -6.484  24.289   9.363  1.00  0.00    -0.206 OA
HETATM   22  O2  UNL     1      -4.097  23.995   8.988  1.00  0.00    -0.206 OA
ENDBRANCH  16  19
ENDBRANCH   8  15
ENDBRANCH   1   4
TORSDOF 3
ENDMDL
MODEL 3
REMARK VINA RESULT: -7.433046708      1.554      1.610
REMARK  3 active torsions:
REMARK  status: ('A' for Active; 'I' for Inactive)
REMARK    1  A    between atoms: S1_2  and  N1_5 
REMARK       I    between atoms: N1_5  and  C2_7 
REMARK    2  A    between atoms: C2_7  and  C3_9 
REMARK    3  A    between atoms: C6_12  and  S2_13 
ROOT
HETATM    1  S2  UNL     1      -5.853  21.993   1.564  1.00  0.00    -0.044 SA
HETATM    2  C7  UNL     1      -5.880  22.087  -0.204  1.00  0.00     0.134 C 
HETATM    3  N2  UNL     1      -5.917  22.157  -1.359  1.00  0.00    -0.184 NA
ENDROOT
BRANCH   1   4
HETATM    4  C6  UNL     1      -6.314  20.273   2.021  1.00  0.00     0.087 C 
HETATM    5  C5  UNL     1      -5.921  19.989   3.431  1.00  0.00     0.068 C 
HETATM    6  C4  UNL     1      -5.729  21.206   4.230  1.00  0.00    -0.003 C 
HETATM    7  C9  UNL     1      -6.782  18.948   4.016  1.00  0.00     0.252 C 
HETATM    8  C3  UNL     1      -6.061  21.203   5.513  1.00  0.00     0.031 C 
HETATM    9  C10 UNL     1      -6.624  19.987   6.086  1.00  0.00     0.213 C 
HETATM   10  O6  UNL     1      -7.382  19.239   5.203  1.00  0.00    -0.365 OA
HETATM   11  S3  UNL     1      -8.120  18.718   2.830  1.00  0.00     0.173 S 
HETATM   12  C8  UNL     1      -7.789  20.172   1.855  1.00  0.00     0.160 C 
HETATM   13  O4  UNL     1      -7.900  17.497   2.003  1.00  0.00    -0.225 OA
HETATM   14  O5  UNL     1      -9.454  18.773   3.479  1.00  0.00    -0.225 OA
BRANCH   8  15
HETATM   15  C2  UNL     1      -5.884  22.386   6.334  1.00  0.00     0.262 C 
HETATM   16  N1  UNL     1      -4.605  22.887   6.614  1.00  0.00    -0.251 N 
ATOM     17  H1  UNL     1      -3.796  22.406   6.222  1.00  0.00     0.181 HD
HETATM   18  O3  UNL     1      -6.886  22.986   6.814  1.00  0.00    -0.267 OA
BRANCH  16  19
HETATM   19  S1  UNL     1      -4.341  24.288   7.596  1.00  0.00     0.229 S 
HETATM   20  C1  UNL     1      -5.096  25.732   6.901  1.00  0.00     0.186 C 
HETATM   21  O1  UNL     1      -4.937  24.006   8.940  1.00  0.00    -0.206 OA
HETATM   22  O2  UNL     1      -2.878  24.570   7.771  1.00  0.00    -0.206 OA
ENDBRANCH  16  19
ENDBRANCH   8  15
ENDBRANCH   1   4
TORSDOF 3
ENDMDL
MODEL 4
REMARK VINA RESULT: -7.431629099      2.996      6.761
REMARK  3 active torsions:
REMARK  status: ('A' for Active; 'I' for Inactive)
REMARK    1  A    between atoms: S1_2  and  N1_5 
REMARK       I    between atoms: N1_5  and  C2_7 
REMARK    2  A    between atoms: C2_7  and  C3_9 
REMARK    3  A    between atoms: C6_12  and  S2_13 
ROOT
HETATM    1  S2  UNL     1      -5.654  25.742   3.732  1.00  0.00    -0.044 SA
HETATM    2  C7  UNL     1      -5.765  27.475   3.386  1.00  0.00     0.134 C 
HETATM    3  N2  UNL     1      -5.817  28.608   3.155  1.00  0.00    -0.184 NA
ENDROOT
BRANCH   1   4
HETATM    4  C6  UNL     1      -5.503  25.563   5.555  1.00  0.00     0.087 C 
HETATM    5  C5  UNL     1      -6.041  24.242   5.992  1.00  0.00     0.068 C 
HETATM    6  C4  UNL     1      -6.100  23.258   4.904  1.00  0.00    -0.003 C 
HETATM    7  C9  UNL     1      -5.401  23.802   7.243  1.00  0.00     0.252 C 
HETATM    8  C3  UNL     1      -5.869  21.980   5.168  1.00  0.00     0.031 C 
HETATM    9  C10 UNL     1      -5.548  21.596   6.537  1.00  0.00     0.213 C 
HETATM   10  O6  UNL     1      -4.853  22.556   7.250  1.00  0.00    -0.365 OA
HETATM   11  S3  UNL     1      -4.029  24.945   7.499  1.00  0.00     0.173 S 
HETATM   12  C8  UNL     1      -4.055  25.673   5.873  1.00  0.00     0.160 C 
HETATM   13  O4  UNL     1      -4.375  25.978   8.518  1.00  0.00    -0.225 OA
HETATM   14  O5  UNL     1      -2.756  24.233   7.773  1.00  0.00    -0.225 OA
BRANCH   8  15
HETATM   15  C2  UNL     1      -5.920  20.978   4.119  1.00  0.00     0.262 C 
HETATM   16  N1  UNL     1      -5.378  19.701   4.313  1.00  0.00    -0.251 N 
ATOM     17  H1  UNL     1      -4.950  19.483   5.213  1.00  0.00     0.181 HD
HETATM   18  O3  UNL     1      -6.456  21.245   3.008  1.00  0.00    -0.267 OA
BRANCH  16  19
HETATM   19  S1  UNL     1      -5.405  18.476   3.090  1.00  0.00     0.229 S 
HETATM   20  C1  UNL     1      -7.058  18.076   2.594  1.00  0.00     0.186 C 
HETATM   21  O1  UNL     1      -4.640  19.004   1.917  1.00  0.00    -0.206 OA
HETATM   22  O2  UNL     1      -4.747  17.212   3.562  1.00  0.00    -0.206 OA
ENDBRANCH  16  19
ENDBRANCH   8  15
ENDBRANCH   1   4
TORSDOF 3
ENDMDL
MODEL 5
REMARK VINA RESULT: -7.345544554      2.778      6.470
REMARK  3 active torsions:
REMARK  status: ('A' for Active; 'I' for Inactive)
REMARK    1  A    between atoms: S1_2  and  N1_5 
REMARK       I    between atoms: N1_5  and  C2_7 
REMARK    2  A    between atoms: C2_7  and  C3_9 
REMARK    3  A    between atoms: C6_12  and  S2_13 
ROOT
HETATM    1  S2  UNL     1      -3.041  24.425   4.046  1.00  0.00    -0.044 SA
HETATM    2  C7  UNL     1      -1.365  24.409   4.618  1.00  0.00     0.134 C 
HETATM    3  N2  UNL     1      -0.272  24.378   4.997  1.00  0.00    -0.184 NA
ENDROOT
BRANCH   1   4
HETATM    4  C6  UNL     1      -4.058  25.189   5.373  1.00  0.00     0.087 C 
HETATM    5  C5  UNL     1      -5.346  24.453   5.527  1.00  0.00     0.068 C 
HETATM    6  C4  UNL     1      -5.298  23.092   4.977  1.00  0.00    -0.003 C 
HETATM    7  C9  UNL     1      -5.870  24.592   6.895  1.00  0.00     0.252 C 
HETATM    8  C3  UNL     1      -5.977  22.124   5.575  1.00  0.00     0.031 C 
HETATM    9  C10 UNL     1      -6.742  22.443   6.775  1.00  0.00     0.213 C 
HETATM   10  O6  UNL     1      -6.187  23.443   7.554  1.00  0.00    -0.365 OA
HETATM   11  S3  UNL     1      -4.532  25.348   7.839  1.00  0.00     0.173 S 
HETATM   12  C8  UNL     1      -3.254  25.109   6.621  1.00  0.00     0.160 C 
HETATM   13  O4  UNL     1      -4.773  26.807   8.036  1.00  0.00    -0.225 OA
HETATM   14  O5  UNL     1      -4.251  24.610   9.096  1.00  0.00    -0.225 OA
BRANCH   8  15
HETATM   15  C2  UNL     1      -5.956  20.767   5.061  1.00  0.00     0.262 C 
HETATM   16  N1  UNL     1      -5.325  20.465   3.847  1.00  0.00    -0.251 N 
ATOM     17  H1  UNL     1      -4.872  21.218   3.330  1.00  0.00     0.181 HD
HETATM   18  O3  UNL     1      -6.511  19.833   5.703  1.00  0.00    -0.267 OA
BRANCH  16  19
HETATM   19  S1  UNL     1      -5.282  18.865   3.186  1.00  0.00     0.229 S 
HETATM   20  C1  UNL     1      -6.907  18.246   2.850  1.00  0.00     0.186 C 
HETATM   21  O1  UNL     1      -4.495  18.932   1.914  1.00  0.00    -0.206 OA
HETATM   22  O2  UNL     1      -4.605  17.902   4.118  1.00  0.00    -0.206 OA
ENDBRANCH  16  19
ENDBRANCH   8  15
ENDBRANCH   1   4
TORSDOF 3
ENDMDL
