MODEL 1
REMARK VINA RESULT: -5.255954627      0.000      0.000
REMARK  4 active torsions:
REMARK  status: ('A' for Active; 'I' for Inactive)
REMARK    1  A    between atoms: C4_6  and  C5_7 
REMARK    2  A    between atoms: C5_7  and  N2_8 
REMARK    3  A    between atoms: C5_7  and  O2_12 
REMARK    4  A    between atoms: C5_7  and  C6_14 
ROOT
HETATM    1  C1  UNL     1      25.251  61.505  30.853  1.00  0.00     0.312 C 
HETATM    2  N1  UNL     1      24.137  60.879  30.128  1.00  0.00     0.120 N 
HETATM    3  C2  UNL     1      24.516  60.258  28.881  1.00  0.00     0.310 A 
HETATM    4  C3  UNL     1      23.841  61.284  28.052  1.00  0.00     0.214 A 
HETATM    5  O1  UNL     1      22.626  60.881  27.448  1.00  0.00    -0.344 OA
HETATM    6  C4  UNL     1      21.789  61.884  27.892  1.00  0.00     0.392 C 
HETATM    7  N3  UNL     1      22.001  61.776  29.342  1.00  0.00    -0.009 N 
ATOM      8  H31 UNL     1      21.605  60.950  29.793  1.00  0.00     0.283 HD
ATOM      9  H32 UNL     1      21.483  62.436  29.922  1.00  0.00     0.283 HD
HETATM   10  C8  UNL     1      23.447  61.891  29.381  1.00  0.00     0.452 A 
ENDROOT
BRANCH   6  11
HETATM   11  C5  UNL     1      20.362  61.719  27.517  1.00  0.00     0.293 C 
BRANCH  11  12
HETATM   12  N2  UNL     1      20.049  60.294  27.637  1.00  0.00    -0.039 N 
ATOM     13  H23 UNL     1      20.061  59.961  28.602  1.00  0.00     0.278 HD
ATOM     14  H22 UNL     1      19.072  60.081  27.438  1.00  0.00     0.278 HD
ATOM     15  H21 UNL     1      20.700  59.793  27.032  1.00  0.00     0.278 HD
ENDBRANCH  11  12
BRANCH  11  16
HETATM   16  O2  UNL     1      20.115  62.140  26.214  1.00  0.00    -0.359 OA
ATOM     17  H2  UNL     1      19.345  61.723  25.847  1.00  0.00     0.213 HD
ENDBRANCH  11  16
BRANCH  11  18
HETATM   18  C6  UNL     1      19.517  62.484  28.434  1.00  0.00     0.057 C 
HETATM   19  C7  UNL     1      18.337  62.979  28.096  1.00  0.00     0.085 C 
HETATM   20 CL1  UNL     1      17.336  63.890  29.196  1.00  0.00    -0.097 Cl
ENDBRANCH  11  18
ENDBRANCH   6  11
TORSDOF 4
ENDMDL
MODEL 2
REMARK VINA RESULT: -4.820122336      1.244      1.478
REMARK  4 active torsions:
REMARK  status: ('A' for Active; 'I' for Inactive)
REMARK    1  A    between atoms: C4_6  and  C5_7 
REMARK    2  A    between atoms: C5_7  and  N2_8 
REMARK    3  A    between atoms: C5_7  and  O2_12 
REMARK    4  A    between atoms: C5_7  and  C6_14 
ROOT
HETATM    1  C1  UNL     1      25.634  60.482  30.069  1.00  0.00     0.312 C 
HETATM    2  N1  UNL     1      24.678  61.343  29.359  1.00  0.00     0.120 N 
HETATM    3  C2  UNL     1      24.009  62.305  30.202  1.00  0.00     0.310 A 
HETATM    4  C3  UNL     1      22.700  61.613  30.119  1.00  0.00     0.214 A 
HETATM    5  O1  UNL     1      21.733  62.229  29.290  1.00  0.00    -0.344 OA
HETATM    6  C4  UNL     1      21.408  61.169  28.467  1.00  0.00     0.392 C 
HETATM    7  N3  UNL     1      22.741  60.816  27.962  1.00  0.00    -0.009 N 
ATOM      8  H31 UNL     1      23.162  61.476  27.307  1.00  0.00     0.283 HD
ATOM      9  H32 UNL     1      22.781  60.028  27.314  1.00  0.00     0.283 HD
HETATM   10  C8  UNL     1      23.436  60.639  29.223  1.00  0.00     0.452 A 
ENDROOT
BRANCH   6  11
HETATM   11  C5  UNL     1      20.458  61.496  27.374  1.00  0.00     0.293 C 
BRANCH  11  12
HETATM   12  N2  UNL     1      20.347  60.303  26.532  1.00  0.00    -0.039 N 
ATOM     13  H23 UNL     1      19.729  59.593  26.925  1.00  0.00     0.278 HD
ATOM     14  H22 UNL     1      19.826  60.468  25.671  1.00  0.00     0.278 HD
ATOM     15  H21 UNL     1      21.294  59.963  26.368  1.00  0.00     0.278 HD
ENDBRANCH  11  12
BRANCH  11  16
HETATM   16  O2  UNL     1      20.901  62.567  26.603  1.00  0.00    -0.359 OA
ATOM     17  H2  UNL     1      20.181  63.102  26.293  1.00  0.00     0.213 HD
ENDBRANCH  11  16
BRANCH  11  18
HETATM   18  C6  UNL     1      19.148  61.822  27.936  1.00  0.00     0.057 C 
HETATM   19  C7  UNL     1      18.665  63.053  27.992  1.00  0.00     0.085 C 
HETATM   20 CL1  UNL     1      17.101  63.432  28.664  1.00  0.00    -0.097 Cl
ENDBRANCH  11  18
ENDBRANCH   6  11
TORSDOF 4
ENDMDL
MODEL 3
REMARK VINA RESULT: -4.651277384      2.937      5.219
REMARK  4 active torsions:
REMARK  status: ('A' for Active; 'I' for Inactive)
REMARK    1  A    between atoms: C4_6  and  C5_7 
REMARK    2  A    between atoms: C5_7  and  N2_8 
REMARK    3  A    between atoms: C5_7  and  O2_12 
REMARK    4  A    between atoms: C5_7  and  C6_14 
ROOT
HETATM    1  C1  UNL     1      17.430  63.200  28.413  1.00  0.00     0.312 C 
HETATM    2  N1  UNL     1      18.897  63.272  28.362  1.00  0.00     0.120 N 
HETATM    3  C2  UNL     1      19.475  62.719  27.161  1.00  0.00     0.310 A 
HETATM    4  C3  UNL     1      20.043  61.541  27.861  1.00  0.00     0.214 A 
HETATM    5  O1  UNL     1      21.443  61.571  28.070  1.00  0.00    -0.344 OA
HETATM    6  C4  UNL     1      21.489  61.361  29.434  1.00  0.00     0.392 C 
HETATM    7  N3  UNL     1      20.619  62.453  29.893  1.00  0.00    -0.009 N 
ATOM      8  H31 UNL     1      21.000  63.396  29.807  1.00  0.00     0.283 HD
ATOM      9  H32 UNL     1      20.476  62.519  30.901  1.00  0.00     0.283 HD
HETATM   10  C8  UNL     1      19.439  62.167  29.099  1.00  0.00     0.452 A 
ENDROOT
BRANCH   6  11
HETATM   11  C5  UNL     1      22.846  61.432  30.031  1.00  0.00     0.293 C 
BRANCH  11  12
HETATM   12  N2  UNL     1      22.735  60.940  31.406  1.00  0.00    -0.039 N 
ATOM     13  H23 UNL     1      23.397  61.382  32.044  1.00  0.00     0.278 HD
ATOM     14  H22 UNL     1      21.881  61.244  31.872  1.00  0.00     0.278 HD
ATOM     15  H21 UNL     1      22.832  59.925  31.368  1.00  0.00     0.278 HD
ENDBRANCH  11  12
BRANCH  11  16
HETATM   16  O2  UNL     1      23.342  62.732  30.043  1.00  0.00    -0.359 OA
ATOM     17  H2  UNL     1      23.792  62.933  30.855  1.00  0.00     0.213 HD
ENDBRANCH  11  16
BRANCH  11  18
HETATM   18  C6  UNL     1      23.764  60.577  29.279  1.00  0.00     0.057 C 
HETATM   19  C7  UNL     1      24.043  60.758  27.997  1.00  0.00     0.085 C 
HETATM   20 CL1  UNL     1      25.139  59.735  27.108  1.00  0.00    -0.097 Cl
ENDBRANCH  11  18
ENDBRANCH   6  11
TORSDOF 4
ENDMDL
MODEL 4
REMARK VINA RESULT: -3.791374942     10.110     11.786
REMARK  4 active torsions:
REMARK  status: ('A' for Active; 'I' for Inactive)
REMARK    1  A    between atoms: C4_6  and  C5_7 
REMARK    2  A    between atoms: C5_7  and  N2_8 
REMARK    3  A    between atoms: C5_7  and  O2_12 
REMARK    4  A    between atoms: C5_7  and  C6_14 
ROOT
HETATM    1  C1  UNL     1      12.472  56.553  20.436  1.00  0.00     0.312 C 
HETATM    2  N1  UNL     1      12.093  57.697  21.275  1.00  0.00     0.120 N 
HETATM    3  C2  UNL     1      11.126  58.581  20.670  1.00  0.00     0.310 A 
HETATM    4  C3  UNL     1      12.106  59.675  20.469  1.00  0.00     0.214 A 
HETATM    5  O1  UNL     1      11.991  60.771  21.358  1.00  0.00    -0.344 OA
HETATM    6  C4  UNL     1      13.281  60.826  21.845  1.00  0.00     0.392 C 
HETATM    7  N3  UNL     1      13.431  59.449  22.336  1.00  0.00    -0.009 N 
ATOM      8  H31 UNL     1      12.895  59.210  23.171  1.00  0.00     0.283 HD
ATOM      9  H32 UNL     1      14.332  59.217  22.754  1.00  0.00     0.283 HD
HETATM   10  C8  UNL     1      13.083  58.725  21.128  1.00  0.00     0.452 A 
ENDROOT
BRANCH   6  11
HETATM   11  C5  UNL     1      13.504  61.833  22.913  1.00  0.00     0.293 C 
BRANCH  11  12
HETATM   12  N2  UNL     1      14.339  61.198  23.933  1.00  0.00    -0.039 N 
ATOM     13  H23 UNL     1      15.332  61.405  23.824  1.00  0.00     0.278 HD
ATOM     14  H22 UNL     1      14.221  61.608  24.859  1.00  0.00     0.278 HD
ATOM     15  H21 UNL     1      14.134  60.199  23.909  1.00  0.00     0.278 HD
ENDBRANCH  11  12
BRANCH  11  16
HETATM   16  O2  UNL     1      12.309  62.254  23.488  1.00  0.00    -0.359 OA
ATOM     17  H2  UNL     1      12.360  63.150  23.798  1.00  0.00     0.213 HD
ENDBRANCH  11  16
BRANCH  11  18
HETATM   18  C6  UNL     1      14.204  62.993  22.361  1.00  0.00     0.057 C 
HETATM   19  C7  UNL     1      14.535  63.104  21.085  1.00  0.00     0.085 C 
HETATM   20 CL1  UNL     1      15.370  64.492  20.436  1.00  0.00    -0.097 Cl
ENDBRANCH  11  18
ENDBRANCH   6  11
TORSDOF 4
ENDMDL
MODEL 5
REMARK VINA RESULT: -2.751011191      1.935      2.154
REMARK  4 active torsions:
REMARK  status: ('A' for Active; 'I' for Inactive)
REMARK    1  A    between atoms: C4_6  and  C5_7 
REMARK    2  A    between atoms: C5_7  and  N2_8 
REMARK    3  A    between atoms: C5_7  and  O2_12 
REMARK    4  A    between atoms: C5_7  and  C6_14 
ROOT
HETATM    1  C1  UNL     1      25.343  60.334  29.474  1.00  0.00     0.312 C 
HETATM    2  N1  UNL     1      24.347  61.407  29.340  1.00  0.00     0.120 N 
HETATM    3  C2  UNL     1      23.833  61.897  30.597  1.00  0.00     0.310 A 
HETATM    4  C3  UNL     1      22.494  61.294  30.395  1.00  0.00     0.214 A 
HETATM    5  O1  UNL     1      21.461  62.198  30.050  1.00  0.00    -0.344 OA
HETATM    6  C4  UNL     1      20.988  61.599  28.900  1.00  0.00     0.392 C 
HETATM    7  N3  UNL     1      22.230  61.517  28.120  1.00  0.00    -0.009 N 
ATOM      8  H31 UNL     1      22.597  62.402  27.768  1.00  0.00     0.283 HD
ATOM      9  H32 UNL     1      22.154  61.091  27.197  1.00  0.00     0.283 HD
HETATM   10  C8  UNL     1      23.067  60.817  29.077  1.00  0.00     0.452 A 
ENDROOT
BRANCH   6  11
HETATM   11  C5  UNL     1      19.926  62.358  28.191  1.00  0.00     0.293 C 
BRANCH  11  12
HETATM   12  N2  UNL     1      20.458  62.710  26.874  1.00  0.00    -0.039 N 
ATOM     13  H23 UNL     1      21.457  62.918  26.887  1.00  0.00     0.278 HD
ATOM     14  H22 UNL     1      20.499  61.916  26.234  1.00  0.00     0.278 HD
ATOM     15  H21 UNL     1      19.893  63.481  26.519  1.00  0.00     0.278 HD
ENDBRANCH  11  12
BRANCH  11  16
HETATM   16  O2  UNL     1      19.573  63.518  28.873  1.00  0.00    -0.359 OA
ATOM     17  H2  UNL     1      20.313  63.901  29.330  1.00  0.00     0.213 HD
ENDBRANCH  11  16
BRANCH  11  18
HETATM   18  C6  UNL     1      18.739  61.518  28.031  1.00  0.00     0.057 C 
HETATM   19  C7  UNL     1      17.532  62.003  27.790  1.00  0.00     0.085 C 
HETATM   20 CL1  UNL     1      16.122  60.994  27.599  1.00  0.00    -0.097 Cl
ENDBRANCH  11  18
ENDBRANCH   6  11
TORSDOF 4
ENDMDL
