MODEL 1
REMARK VINA RESULT: -4.076730285      0.000      0.000
REMARK  5 active torsions:
REMARK  status: ('A' for Active; 'I' for Inactive)
REMARK       I    between atoms: C1_2  and  N3_14 
REMARK    1  A    between atoms: N2_3  and  C2_5 
REMARK    2  A    between atoms: C2_5  and  C3_6 
REMARK    3  A    between atoms: C5_8  and  O1_9 
REMARK    4  A    between atoms: N3_14  and  C7_16 
REMARK    5  A    between atoms: C7_16  and  C8_17 
ROOT
HETATM    1  C8  UNL     1      24.848  60.349  28.580  1.00  0.00    -0.057 C 
HETATM    2  C9  UNL     1      24.770  60.004  27.424  1.00  0.00     0.053 C 
HETATM    3  O3  UNL     1      24.663  59.605  26.096  1.00  0.00    -0.314 OA
ATOM      4  H3  UNL     1      24.601  59.333  25.188  1.00  0.00     0.230 HD
ENDROOT
BRANCH   1   5
HETATM    5  C7  UNL     1      24.931  60.785  29.949  1.00  0.00     0.219 C 
BRANCH   5   6
HETATM    6  N3  UNL     1      23.985  61.810  30.306  1.00  0.00    -0.354 N 
HETATM    7  C1  UNL     1      22.590  61.636  30.360  1.00  0.00     0.184 C 
HETATM    8  N1  UNL     1      22.081  60.355  30.677  1.00  0.00    -0.064 NA
HETATM    9  N2  UNL     1      21.795  62.655  30.132  1.00  0.00    -0.362 N 
ATOM     10  H2  UNL     1      22.152  63.582  29.899  1.00  0.00     0.162 HD
ATOM     11  H3  UNL     1      24.355  62.733  30.537  1.00  0.00     0.163 HD
BRANCH   9  12
HETATM   12  C2  UNL     1      20.372  62.377  30.233  1.00  0.00     0.154 C 
BRANCH  12  13
HETATM   13  C3  UNL     1      19.597  62.724  29.012  1.00  0.00     0.145 C 
HETATM   14  C4  UNL     1      18.872  61.544  28.409  1.00  0.00     0.070 C 
HETATM   15  C5  UNL     1      17.740  62.287  27.689  1.00  0.00     0.180 C 
HETATM   16  C6  UNL     1      17.448  63.330  28.754  1.00  0.00     0.336 C 
HETATM   17  F1  UNL     1      16.711  64.383  28.311  1.00  0.00    -0.217 F 
HETATM   18  O2  UNL     1      18.691  63.737  29.179  1.00  0.00    -0.347 OA
BRANCH  15  19
HETATM   19  O1  UNL     1      16.662  61.507  27.401  1.00  0.00    -0.390 OA
ATOM     20  H1  UNL     1      16.771  60.970  26.625  1.00  0.00     0.210 HD
ENDBRANCH  15  19
ENDBRANCH  12  13
ENDBRANCH   9  12
ENDBRANCH   5   6
ENDBRANCH   1   5
TORSDOF 5
ENDMDL
MODEL 2
REMARK VINA RESULT: -3.367154845      1.705      1.888
REMARK  5 active torsions:
REMARK  status: ('A' for Active; 'I' for Inactive)
REMARK       I    between atoms: C1_2  and  N3_14 
REMARK    1  A    between atoms: N2_3  and  C2_5 
REMARK    2  A    between atoms: C2_5  and  C3_6 
REMARK    3  A    between atoms: C5_8  and  O1_9 
REMARK    4  A    between atoms: N3_14  and  C7_16 
REMARK    5  A    between atoms: C7_16  and  C8_17 
ROOT
HETATM    1  C8  UNL     1      25.037  60.062  28.352  1.00  0.00    -0.057 C 
HETATM    2  C9  UNL     1      24.877  59.835  27.175  1.00  0.00     0.053 C 
HETATM    3  O3  UNL     1      24.677  59.581  25.824  1.00  0.00    -0.314 OA
ATOM      4  H3  UNL     1      24.550  59.402  24.899  1.00  0.00     0.230 HD
ENDROOT
BRANCH   1   5
HETATM    5  C7  UNL     1      25.233  60.359  29.747  1.00  0.00     0.219 C 
BRANCH   5   6
HETATM    6  N3  UNL     1      24.517  61.518  30.215  1.00  0.00    -0.354 N 
HETATM    7  C1  UNL     1      23.139  61.554  30.497  1.00  0.00     0.184 C 
HETATM    8  N1  UNL     1      22.507  60.367  30.934  1.00  0.00    -0.064 NA
HETATM    9  N2  UNL     1      22.475  62.678  30.364  1.00  0.00    -0.362 N 
ATOM     10  H2  UNL     1      22.920  63.539  30.046  1.00  0.00     0.162 HD
ATOM     11  H3  UNL     1      25.049  62.377  30.352  1.00  0.00     0.163 HD
BRANCH   9  12
HETATM   12  C2  UNL     1      21.062  62.616  30.700  1.00  0.00     0.154 C 
BRANCH  12  13
HETATM   13  C3  UNL     1      20.225  61.921  29.685  1.00  0.00     0.145 C 
HETATM   14  C4  UNL     1      18.949  62.659  29.356  1.00  0.00     0.070 C 
HETATM   15  C5  UNL     1      18.705  62.119  27.941  1.00  0.00     0.180 C 
HETATM   16  C6  UNL     1      20.142  62.133  27.449  1.00  0.00     0.336 C 
HETATM   17  F1  UNL     1      20.350  61.395  26.327  1.00  0.00    -0.217 F 
HETATM   18  O2  UNL     1      20.868  61.642  28.508  1.00  0.00    -0.347 OA
BRANCH  15  19
HETATM   19  O1  UNL     1      17.878  62.895  27.188  1.00  0.00    -0.390 OA
ATOM     20  H1  UNL     1      18.099  63.819  27.200  1.00  0.00     0.210 HD
ENDBRANCH  15  19
ENDBRANCH  12  13
ENDBRANCH   9  12
ENDBRANCH   5   6
ENDBRANCH   1   5
TORSDOF 5
ENDMDL
MODEL 3
REMARK VINA RESULT: -3.156039715      1.523      1.755
REMARK  5 active torsions:
REMARK  status: ('A' for Active; 'I' for Inactive)
REMARK       I    between atoms: C1_2  and  N3_14 
REMARK    1  A    between atoms: N2_3  and  C2_5 
REMARK    2  A    between atoms: C2_5  and  C3_6 
REMARK    3  A    between atoms: C5_8  and  O1_9 
REMARK    4  A    between atoms: N3_14  and  C7_16 
REMARK    5  A    between atoms: C7_16  and  C8_17 
ROOT
HETATM    1  C8  UNL     1      24.660  60.126  28.392  1.00  0.00    -0.057 C 
HETATM    2  C9  UNL     1      24.666  59.929  27.199  1.00  0.00     0.053 C 
HETATM    3  O3  UNL     1      24.675  59.687  25.830  1.00  0.00    -0.314 OA
ATOM      4  H3  UNL     1      24.680  59.532  24.893  1.00  0.00     0.230 HD
ENDROOT
BRANCH   1   5
HETATM    5  C7  UNL     1      24.628  60.350  29.814  1.00  0.00     0.219 C 
BRANCH   5   6
HETATM    6  N3  UNL     1      23.320  60.641  30.340  1.00  0.00    -0.354 N 
HETATM    7  C1  UNL     1      22.449  61.626  29.838  1.00  0.00     0.184 C 
HETATM    8  N1  UNL     1      22.517  61.949  28.463  1.00  0.00    -0.064 NA
HETATM    9  N2  UNL     1      21.592  62.211  30.641  1.00  0.00    -0.362 N 
ATOM     10  H2  UNL     1      21.538  61.988  31.634  1.00  0.00     0.162 HD
ATOM     11  H3  UNL     1      23.000  60.092  31.139  1.00  0.00     0.163 HD
BRANCH   9  12
HETATM   12  C2  UNL     1      20.724  63.198  30.020  1.00  0.00     0.154 C 
BRANCH  12  13
HETATM   13  C3  UNL     1      19.353  62.702  29.725  1.00  0.00     0.145 C 
HETATM   14  C4  UNL     1      18.547  63.648  28.866  1.00  0.00     0.070 C 
HETATM   15  C5  UNL     1      17.577  62.643  28.231  1.00  0.00     0.180 C 
HETATM   16  C6  UNL     1      18.557  61.507  27.995  1.00  0.00     0.336 C 
HETATM   17  F1  UNL     1      17.967  60.310  27.744  1.00  0.00    -0.217 F 
HETATM   18  O2  UNL     1      19.305  61.461  29.149  1.00  0.00    -0.347 OA
BRANCH  15  19
HETATM   19  O1  UNL     1      16.994  63.087  27.083  1.00  0.00    -0.390 OA
ATOM     20  H1  UNL     1      16.114  62.758  26.945  1.00  0.00     0.210 HD
ENDBRANCH  15  19
ENDBRANCH  12  13
ENDBRANCH   9  12
ENDBRANCH   5   6
ENDBRANCH   1   5
TORSDOF 5
ENDMDL
MODEL 4
REMARK VINA RESULT: -2.722507170      3.633      6.494
REMARK  5 active torsions:
REMARK  status: ('A' for Active; 'I' for Inactive)
REMARK       I    between atoms: C1_2  and  N3_14 
REMARK    1  A    between atoms: N2_3  and  C2_5 
REMARK    2  A    between atoms: C2_5  and  C3_6 
REMARK    3  A    between atoms: C5_8  and  O1_9 
REMARK    4  A    between atoms: N3_14  and  C7_16 
REMARK    5  A    between atoms: C7_16  and  C8_17 
ROOT
HETATM    1  C8  UNL     1      18.931  63.562  29.439  1.00  0.00    -0.057 C 
HETATM    2  C9  UNL     1      19.516  63.919  30.435  1.00  0.00     0.053 C 
HETATM    3  O3  UNL     1      20.185  64.314  31.587  1.00  0.00    -0.314 OA
ATOM      4  H3  UNL     1      20.645  64.595  32.370  1.00  0.00     0.230 HD
ENDROOT
BRANCH   1   5
HETATM    5  C7  UNL     1      18.259  63.123  28.244  1.00  0.00     0.219 C 
BRANCH   5   6
HETATM    6  N3  UNL     1      19.124  62.529  27.258  1.00  0.00    -0.354 N 
HETATM    7  C1  UNL     1      20.145  61.602  27.535  1.00  0.00     0.184 C 
HETATM    8  N1  UNL     1      19.994  60.743  28.647  1.00  0.00    -0.064 NA
HETATM    9  N2  UNL     1      21.201  61.543  26.758  1.00  0.00    -0.362 N 
ATOM     10  H2  UNL     1      21.322  62.160  25.955  1.00  0.00     0.162 HD
ATOM     11  H3  UNL     1      18.986  62.802  26.285  1.00  0.00     0.163 HD
BRANCH   9  12
HETATM   12  C2  UNL     1      22.188  60.538  27.116  1.00  0.00     0.154 C 
BRANCH  12  13
HETATM   13  C3  UNL     1      23.332  61.064  27.909  1.00  0.00     0.145 C 
HETATM   14  C4  UNL     1      22.911  61.717  29.205  1.00  0.00     0.070 C 
HETATM   15  C5  UNL     1      24.202  61.528  30.011  1.00  0.00     0.180 C 
HETATM   16  C6  UNL     1      24.547  60.123  29.548  1.00  0.00     0.336 C 
HETATM   17  F1  UNL     1      25.828  59.753  29.811  1.00  0.00    -0.217 F 
HETATM   18  O2  UNL     1      24.303  60.142  28.195  1.00  0.00    -0.347 OA
BRANCH  15  19
HETATM   19  O1  UNL     1      24.030  61.615  31.359  1.00  0.00    -0.390 OA
ATOM     20  H1  UNL     1      23.873  60.780  31.782  1.00  0.00     0.210 HD
ENDBRANCH  15  19
ENDBRANCH  12  13
ENDBRANCH   9  12
ENDBRANCH   5   6
ENDBRANCH   1   5
TORSDOF 5
ENDMDL
MODEL 5
REMARK VINA RESULT: -2.712342482      3.602      6.950
REMARK  5 active torsions:
REMARK  status: ('A' for Active; 'I' for Inactive)
REMARK       I    between atoms: C1_2  and  N3_14 
REMARK    1  A    between atoms: N2_3  and  C2_5 
REMARK    2  A    between atoms: C2_5  and  C3_6 
REMARK    3  A    between atoms: C5_8  and  O1_9 
REMARK    4  A    between atoms: N3_14  and  C7_16 
REMARK    5  A    between atoms: C7_16  and  C8_17 
ROOT
HETATM    1  C8  UNL     1      17.519  62.406  28.065  1.00  0.00    -0.057 C 
HETATM    2  C9  UNL     1      17.096  63.451  28.501  1.00  0.00     0.053 C 
HETATM    3  O3  UNL     1      16.598  64.644  29.013  1.00  0.00    -0.314 OA
ATOM      4  H3  UNL     1      16.265  65.464  29.357  1.00  0.00     0.230 HD
ENDROOT
BRANCH   1   5
HETATM    5  C7  UNL     1      18.040  61.159  27.568  1.00  0.00     0.219 C 
BRANCH   5   6
HETATM    6  N3  UNL     1      19.338  60.808  28.084  1.00  0.00    -0.354 N 
HETATM    7  C1  UNL     1      20.563  61.126  27.469  1.00  0.00     0.184 C 
HETATM    8  N1  UNL     1      20.639  62.298  26.682  1.00  0.00    -0.064 NA
HETATM    9  N2  UNL     1      21.603  60.346  27.645  1.00  0.00    -0.362 N 
ATOM     10  H2  UNL     1      21.557  59.497  28.208  1.00  0.00     0.162 HD
ATOM     11  H3  UNL     1      19.371  60.290  28.962  1.00  0.00     0.163 HD
BRANCH   9  12
HETATM   12  C2  UNL     1      22.826  60.773  26.985  1.00  0.00     0.154 C 
BRANCH  12  13
HETATM   13  C3  UNL     1      23.916  61.164  27.919  1.00  0.00     0.145 C 
HETATM   14  C4  UNL     1      23.418  61.880  29.153  1.00  0.00     0.070 C 
HETATM   15  C5  UNL     1      24.563  61.543  30.116  1.00  0.00     0.180 C 
HETATM   16  C6  UNL     1      24.788  60.101  29.697  1.00  0.00     0.336 C 
HETATM   17  F1  UNL     1      25.969  59.579  30.119  1.00  0.00    -0.217 F 
HETATM   18  O2  UNL     1      24.721  60.133  28.323  1.00  0.00    -0.347 OA
BRANCH  15  19
HETATM   19  O1  UNL     1      24.233  61.667  31.431  1.00  0.00    -0.390 OA
ATOM     20  H1  UNL     1      24.954  61.944  31.985  1.00  0.00     0.210 HD
ENDBRANCH  15  19
ENDBRANCH  12  13
ENDBRANCH   9  12
ENDBRANCH   5   6
ENDBRANCH   1   5
TORSDOF 5
ENDMDL
