MODEL 1
REMARK VINA RESULT: -5.321835151      0.000      0.000
REMARK  6 active torsions:
REMARK  status: ('A' for Active; 'I' for Inactive)
REMARK    1  A    between atoms: N1_1  and  S1_4 
REMARK    2  A    between atoms: S1_4  and  C1_6 
REMARK    3  A    between atoms: C1_6  and  C2_7 
REMARK    4  A    between atoms: C3_9  and  C4_10 
REMARK    5  A    between atoms: C5_12  and  O3_13 
REMARK    6  A    between atoms: C6_15  and  O4_16 
ROOT
HETATM    1  C2  UNL     1      22.426  61.819  29.557  1.00  0.00     0.166 C 
HETATM    2  O2  UNL     1      23.208  62.016  28.415  1.00  0.00    -0.372 OA
HETATM    3  C3  UNL     1      24.097  60.997  28.283  1.00  0.00     0.181 C 
HETATM    4  C5  UNL     1      24.110  60.135  29.493  1.00  0.00     0.180 C 
HETATM    5  C6  UNL     1      23.145  60.853  30.422  1.00  0.00     0.179 C 
ENDROOT
BRANCH   1   6
HETATM    6  C1  UNL     1      21.067  61.453  29.102  1.00  0.00     0.166 C 
BRANCH   6   7
HETATM    7  S1  UNL     1      20.562  62.072  27.521  1.00  0.00     0.110 S 
HETATM    8  O1  UNL     1      20.624  60.973  26.261  1.00  0.00    -0.236 OA
BRANCH   7   9
HETATM    9  N1  UNL     1      18.963  62.792  27.579  1.00  0.00    -0.350 NA
ATOM     10  H12 UNL     1      18.338  62.280  28.201  1.00  0.00     0.166 HD
ATOM     11  H11 UNL     1      18.623  62.929  26.628  1.00  0.00     0.166 HD
ENDBRANCH   7   9
ENDBRANCH   6   7
ENDBRANCH   1   6
BRANCH   5  12
HETATM   12  O4  UNL     1      23.962  61.552  31.342  1.00  0.00    -0.390 OA
ATOM     13  H4  UNL     1      24.008  61.071  32.160  1.00  0.00     0.210 HD
ENDBRANCH   5  12
BRANCH   3  14
HETATM   14  C4  UNL     1      23.848  60.114  27.079  1.00  0.00     0.256 C 
HETATM   15  F1  UNL     1      25.061  59.679  26.578  1.00  0.00    -0.253 F 
ENDBRANCH   3  14
BRANCH   4  16
HETATM   16  O3  UNL     1      25.398  60.091  30.007  1.00  0.00    -0.390 OA
ATOM     17  H3  UNL     1      25.434  59.445  30.703  1.00  0.00     0.210 HD
ENDBRANCH   4  16
TORSDOF 6
ENDMDL
MODEL 2
REMARK VINA RESULT: -5.218812142      1.296      1.296
REMARK  6 active torsions:
REMARK  status: ('A' for Active; 'I' for Inactive)
REMARK    1  A    between atoms: N1_1  and  S1_4 
REMARK    2  A    between atoms: S1_4  and  C1_6 
REMARK    3  A    between atoms: C1_6  and  C2_7 
REMARK    4  A    between atoms: C3_9  and  C4_10 
REMARK    5  A    between atoms: C5_12  and  O3_13 
REMARK    6  A    between atoms: C6_15  and  O4_16 
ROOT
HETATM    1  C2  UNL     1      21.891  61.609  29.636  1.00  0.00     0.166 C 
HETATM    2  O2  UNL     1      22.685  62.064  28.580  1.00  0.00    -0.372 OA
HETATM    3  C3  UNL     1      23.799  61.294  28.475  1.00  0.00     0.181 C 
HETATM    4  C5  UNL     1      23.930  60.376  29.637  1.00  0.00     0.180 C 
HETATM    5  C6  UNL     1      22.754  60.781  30.512  1.00  0.00     0.179 C 
ENDROOT
BRANCH   1   6
HETATM    6  C1  UNL     1      20.697  60.967  29.045  1.00  0.00     0.166 C 
BRANCH   6   7
HETATM    7  S1  UNL     1      19.677  61.982  28.011  1.00  0.00     0.110 S 
HETATM    8  O1  UNL     1      19.000  63.320  28.753  1.00  0.00    -0.236 OA
BRANCH   7   9
HETATM    9  N1  UNL     1      20.519  62.492  26.559  1.00  0.00    -0.350 NA
ATOM     10  H12 UNL     1      19.871  62.768  25.821  1.00  0.00     0.166 HD
ATOM     11  H11 UNL     1      21.204  61.782  26.302  1.00  0.00     0.166 HD
ENDBRANCH   7   9
ENDBRANCH   6   7
ENDBRANCH   1   6
BRANCH   5  12
HETATM   12  O4  UNL     1      23.310  61.585  31.535  1.00  0.00    -0.390 OA
ATOM     13  H4  UNL     1      23.894  61.063  32.072  1.00  0.00     0.210 HD
ENDBRANCH   5  12
BRANCH   3  14
HETATM   14  C4  UNL     1      23.859  60.464  27.211  1.00  0.00     0.256 C 
HETATM   15  F1  UNL     1      25.028  59.726  27.209  1.00  0.00    -0.253 F 
ENDBRANCH   3  14
BRANCH   4  16
HETATM   16  O3  UNL     1      25.148  60.600  30.260  1.00  0.00    -0.390 OA
ATOM     17  H3  UNL     1      25.291  61.536  30.339  1.00  0.00     0.210 HD
ENDBRANCH   4  16
TORSDOF 6
ENDMDL
MODEL 3
REMARK VINA RESULT: -5.201310434      1.301      1.409
REMARK  6 active torsions:
REMARK  status: ('A' for Active; 'I' for Inactive)
REMARK    1  A    between atoms: N1_1  and  S1_4 
REMARK    2  A    between atoms: S1_4  and  C1_6 
REMARK    3  A    between atoms: C1_6  and  C2_7 
REMARK    4  A    between atoms: C3_9  and  C4_10 
REMARK    5  A    between atoms: C5_12  and  O3_13 
REMARK    6  A    between atoms: C6_15  and  O4_16 
ROOT
HETATM    1  C2  UNL     1      22.496  61.844  28.897  1.00  0.00     0.166 C 
HETATM    2  O2  UNL     1      23.565  62.021  28.015  1.00  0.00    -0.372 OA
HETATM    3  C3  UNL     1      24.410  60.960  28.092  1.00  0.00     0.181 C 
HETATM    4  C5  UNL     1      24.057  60.075  29.233  1.00  0.00     0.180 C 
HETATM    5  C6  UNL     1      22.910  60.825  29.892  1.00  0.00     0.179 C 
ENDROOT
BRANCH   1   6
HETATM    6  C1  UNL     1      21.295  61.559  28.083  1.00  0.00     0.166 C 
BRANCH   6   7
HETATM    7  S1  UNL     1      19.728  61.959  28.807  1.00  0.00     0.110 S 
HETATM    8  O1  UNL     1      19.766  63.105  30.025  1.00  0.00    -0.236 OA
BRANCH   7   9
HETATM    9  N1  UNL     1      18.552  62.441  27.599  1.00  0.00    -0.350 NA
ATOM     10  H12 UNL     1      18.996  62.701  26.718  1.00  0.00     0.166 HD
ATOM     11  H11 UNL     1      17.927  63.140  28.000  1.00  0.00     0.166 HD
ENDBRANCH   7   9
ENDBRANCH   6   7
ENDBRANCH   1   6
BRANCH   5  12
HETATM   12  O4  UNL     1      23.480  61.461  31.020  1.00  0.00    -0.390 OA
ATOM     13  H4  UNL     1      23.385  60.905  31.784  1.00  0.00     0.210 HD
ENDBRANCH   5  12
BRANCH   3  14
HETATM   14  C4  UNL     1      24.455  60.115  26.837  1.00  0.00     0.256 C 
HETATM   15  F1  UNL     1      25.592  59.329  26.861  1.00  0.00    -0.253 F 
ENDBRANCH   3  14
BRANCH   4  16
HETATM   16  O3  UNL     1      25.154  59.953  30.072  1.00  0.00    -0.390 OA
ATOM     17  H3  UNL     1      25.949  59.992  29.553  1.00  0.00     0.210 HD
ENDBRANCH   4  16
TORSDOF 6
ENDMDL
MODEL 4
REMARK VINA RESULT: -5.075355088      2.616      3.614
REMARK  6 active torsions:
REMARK  status: ('A' for Active; 'I' for Inactive)
REMARK    1  A    between atoms: N1_1  and  S1_4 
REMARK    2  A    between atoms: S1_4  and  C1_6 
REMARK    3  A    between atoms: C1_6  and  C2_7 
REMARK    4  A    between atoms: C3_9  and  C4_10 
REMARK    5  A    between atoms: C5_12  and  O3_13 
REMARK    6  A    between atoms: C6_15  and  O4_16 
ROOT
HETATM    1  C2  UNL     1      19.927  61.536  28.444  1.00  0.00     0.166 C 
HETATM    2  O2  UNL     1      20.670  61.021  29.509  1.00  0.00    -0.372 OA
HETATM    3  C3  UNL     1      21.994  61.245  29.300  1.00  0.00     0.181 C 
HETATM    4  C5  UNL     1      22.243  61.752  27.925  1.00  0.00     0.180 C 
HETATM    5  C6  UNL     1      20.857  61.712  27.302  1.00  0.00     0.179 C 
ENDROOT
BRANCH   1   6
HETATM    6  C1  UNL     1      19.217  62.734  28.940  1.00  0.00     0.166 C 
BRANCH   6   7
HETATM    7  S1  UNL     1      17.753  63.212  28.065  1.00  0.00     0.110 S 
HETATM    8  O1  UNL     1      16.886  61.962  27.369  1.00  0.00    -0.236 OA
BRANCH   7   9
HETATM    9  N1  UNL     1      16.676  64.172  29.064  1.00  0.00    -0.350 NA
ATOM     10  H12 UNL     1      16.980  65.144  29.126  1.00  0.00     0.166 HD
ATOM     11  H11 UNL     1      16.535  63.698  29.956  1.00  0.00     0.166 HD
ENDBRANCH   7   9
ENDBRANCH   6   7
ENDBRANCH   1   6
BRANCH   5  12
HETATM   12  O4  UNL     1      20.845  60.551  26.493  1.00  0.00    -0.390 OA
ATOM     13  H4  UNL     1      21.728  60.351  26.206  1.00  0.00     0.210 HD
ENDBRANCH   5  12
BRANCH   3  14
HETATM   14  C4  UNL     1      22.617  62.217  30.280  1.00  0.00     0.256 C 
HETATM   15  F1  UNL     1      23.936  62.434  29.925  1.00  0.00    -0.253 F 
ENDBRANCH   3  14
BRANCH   4  16
HETATM   16  O3  UNL     1      23.132  60.904  27.281  1.00  0.00    -0.390 OA
ATOM     17  H3  UNL     1      23.854  61.414  26.935  1.00  0.00     0.210 HD
ENDBRANCH   4  16
TORSDOF 6
ENDMDL
MODEL 5
REMARK VINA RESULT: -4.961802964      1.219      1.219
REMARK  6 active torsions:
REMARK  status: ('A' for Active; 'I' for Inactive)
REMARK    1  A    between atoms: N1_1  and  S1_4 
REMARK    2  A    between atoms: S1_4  and  C1_6 
REMARK    3  A    between atoms: C1_6  and  C2_7 
REMARK    4  A    between atoms: C3_9  and  C4_10 
REMARK    5  A    between atoms: C5_12  and  O3_13 
REMARK    6  A    between atoms: C6_15  and  O4_16 
ROOT
HETATM    1  C2  UNL     1      22.172  61.776  29.021  1.00  0.00     0.166 C 
HETATM    2  O2  UNL     1      23.189  62.058  28.105  1.00  0.00    -0.372 OA
HETATM    3  C3  UNL     1      24.158  61.109  28.183  1.00  0.00     0.181 C 
HETATM    4  C5  UNL     1      23.944  60.218  29.353  1.00  0.00     0.180 C 
HETATM    5  C6  UNL     1      22.732  60.840  30.027  1.00  0.00     0.179 C 
ENDROOT
BRANCH   1   6
HETATM    6  C1  UNL     1      20.994  61.326  28.247  1.00  0.00     0.166 C 
BRANCH   6   7
HETATM    7  S1  UNL     1      19.582  62.396  28.253  1.00  0.00     0.110 S 
HETATM    8  O1  UNL     1      18.114  61.656  27.943  1.00  0.00    -0.236 OA
BRANCH   7   9
HETATM    9  N1  UNL     1      19.461  63.313  29.744  1.00  0.00    -0.350 NA
ATOM     10  H12 UNL     1      20.329  63.286  30.279  1.00  0.00     0.166 HD
ATOM     11  H11 UNL     1      18.624  63.022  30.249  1.00  0.00     0.166 HD
ENDBRANCH   7   9
ENDBRANCH   6   7
ENDBRANCH   1   6
BRANCH   5  12
HETATM   12  O4  UNL     1      23.248  61.570  31.123  1.00  0.00    -0.390 OA
ATOM     13  H4  UNL     1      22.795  62.403  31.196  1.00  0.00     0.210 HD
ENDBRANCH   5  12
BRANCH   3  14
HETATM   14  C4  UNL     1      24.274  60.243  26.947  1.00  0.00     0.256 C 
HETATM   15  F1  UNL     1      25.423  59.479  27.036  1.00  0.00    -0.253 F 
ENDBRANCH   3  14
BRANCH   4  16
HETATM   16  O3  UNL     1      25.069  60.252  30.164  1.00  0.00    -0.390 OA
ATOM     17  H3  UNL     1      25.770  59.768  29.744  1.00  0.00     0.210 HD
ENDBRANCH   4  16
TORSDOF 6
ENDMDL
