MODEL 1
REMARK VINA RESULT: -4.195939623      0.000      0.000
REMARK  5 active torsions:
REMARK  status: ('A' for Active; 'I' for Inactive)
REMARK    1  A    between atoms: C3_7  and  C4_8 
REMARK    2  A    between atoms: C3_7  and  C5_11 
REMARK    3  A    between atoms: C4_8  and  O1_9 
REMARK    4  A    between atoms: C5_11  and  S1_12 
REMARK    5  A    between atoms: S1_12  and  N3_13 
ROOT
HETATM    1  N1  UNL     1      21.044  60.029  25.947  1.00  0.00    -0.087 NA
HETATM    2  C1  UNL     1      21.321  60.843  27.076  1.00  0.00     0.105 A 
HETATM    3  N2  UNL     1      22.468  61.210  27.579  1.00  0.00    -0.362 N 
ATOM      4  H2  UNL     1      23.445  61.041  27.339  1.00  0.00     0.162 HD
HETATM    5  C2  UNL     1      21.783  61.954  28.618  1.00  0.00     0.198 A 
HETATM    6 CL1  UNL     1      22.192  61.276  30.208  1.00  0.00    -0.101 Cl
HETATM    7  C3  UNL     1      20.461  61.547  28.059  1.00  0.00     0.083 A 
ENDROOT
BRANCH   7   8
HETATM    8  C4  UNL     1      19.611  60.648  28.912  1.00  0.00     0.185 C 
BRANCH   8   9
HETATM    9  O1  UNL     1      18.699  59.926  28.150  1.00  0.00    -0.400 OA
ATOM     10  H1  UNL     1      18.960  59.017  28.057  1.00  0.00     0.209 HD
ENDBRANCH   8   9
ENDBRANCH   7   8
BRANCH   7  11
HETATM   11  C5  UNL     1      19.671  62.646  27.364  1.00  0.00     0.154 C 
BRANCH  11  12
HETATM   12  S1  UNL     1      18.243  63.095  28.315  1.00  0.00     0.109 S 
HETATM   13  O2  UNL     1      16.941  63.275  27.302  1.00  0.00    -0.236 OA
BRANCH  12  14
HETATM   14  N3  UNL     1      18.543  64.521  29.239  1.00  0.00    -0.350 NA
ATOM     15  H32 UNL     1      19.348  64.413  29.857  1.00  0.00     0.166 HD
ATOM     16  H31 UNL     1      17.724  64.776  29.792  1.00  0.00     0.166 HD
ENDBRANCH  12  14
ENDBRANCH  11  12
ENDBRANCH   7  11
TORSDOF 5
ENDMDL
MODEL 2
REMARK VINA RESULT: -3.723805577      9.012      9.805
REMARK  5 active torsions:
REMARK  status: ('A' for Active; 'I' for Inactive)
REMARK    1  A    between atoms: C3_7  and  C4_8 
REMARK    2  A    between atoms: C3_7  and  C5_11 
REMARK    3  A    between atoms: C4_8  and  O1_9 
REMARK    4  A    between atoms: C5_11  and  S1_12 
REMARK    5  A    between atoms: S1_12  and  N3_13 
ROOT
HETATM    1  N1  UNL     1      11.289  61.772  23.394  1.00  0.00    -0.087 NA
HETATM    2  C1  UNL     1      11.764  60.990  22.308  1.00  0.00     0.105 A 
HETATM    3  N2  UNL     1      11.111  60.199  21.503  1.00  0.00    -0.362 N 
ATOM      4  H2  UNL     1      10.136  59.916  21.407  1.00  0.00     0.162 HD
HETATM    5  C2  UNL     1      12.340  59.887  20.801  1.00  0.00     0.198 A 
HETATM    6 CL1  UNL     1      12.693  58.152  20.953  1.00  0.00    -0.101 Cl
HETATM    7  C3  UNL     1      13.106  60.787  21.711  1.00  0.00     0.083 A 
ENDROOT
BRANCH   7   8
HETATM    8  C4  UNL     1      14.111  60.139  22.620  1.00  0.00     0.185 C 
BRANCH   8   9
HETATM    9  O1  UNL     1      13.979  60.580  23.933  1.00  0.00    -0.400 OA
ATOM     10  H1  UNL     1      14.066  61.524  23.997  1.00  0.00     0.209 HD
ENDBRANCH   8   9
ENDBRANCH   7   8
BRANCH   7  11
HETATM   11  C5  UNL     1      13.600  62.086  21.092  1.00  0.00     0.154 C 
BRANCH  11  12
HETATM   12  S1  UNL     1      14.845  62.837  22.109  1.00  0.00     0.109 S 
HETATM   13  O2  UNL     1      14.127  63.534  23.433  1.00  0.00    -0.236 OA
BRANCH  12  14
HETATM   14  N3  UNL     1      15.773  63.976  21.204  1.00  0.00    -0.350 NA
ATOM     15  H32 UNL     1      16.351  64.562  21.808  1.00  0.00     0.166 HD
ATOM     16  H31 UNL     1      15.169  64.569  20.635  1.00  0.00     0.166 HD
ENDBRANCH  12  14
ENDBRANCH  11  12
ENDBRANCH   7  11
TORSDOF 5
ENDMDL
MODEL 3
REMARK VINA RESULT: -3.592945999      3.208      4.423
REMARK  5 active torsions:
REMARK  status: ('A' for Active; 'I' for Inactive)
REMARK    1  A    between atoms: C3_7  and  C4_8 
REMARK    2  A    between atoms: C3_7  and  C5_11 
REMARK    3  A    between atoms: C4_8  and  O1_9 
REMARK    4  A    between atoms: C5_11  and  S1_12 
REMARK    5  A    between atoms: S1_12  and  N3_13 
ROOT
HETATM    1  N1  UNL     1      21.462  61.323  30.732  1.00  0.00    -0.087 NA
HETATM    2  C1  UNL     1      20.701  61.897  29.680  1.00  0.00     0.105 A 
HETATM    3  N2  UNL     1      19.763  62.803  29.727  1.00  0.00    -0.362 N 
ATOM      4  H2  UNL     1      19.320  63.340  30.472  1.00  0.00     0.162 HD
HETATM    5  C2  UNL     1      19.612  62.732  28.287  1.00  0.00     0.198 A 
HETATM    6 CL1  UNL     1      17.972  62.183  27.883  1.00  0.00    -0.101 Cl
HETATM    7  C3  UNL     1      20.682  61.695  28.210  1.00  0.00     0.083 A 
ENDROOT
BRANCH   7   8
HETATM    8  C4  UNL     1      20.265  60.321  27.766  1.00  0.00     0.185 C 
BRANCH   8   9
HETATM    9  O1  UNL     1      20.594  60.088  26.435  1.00  0.00    -0.400 OA
ATOM     10  H1  UNL     1      21.334  59.498  26.354  1.00  0.00     0.209 HD
ENDBRANCH   8   9
ENDBRANCH   7   8
BRANCH   7  11
HETATM   11  C5  UNL     1      22.002  62.151  27.607  1.00  0.00     0.154 C 
BRANCH  11  12
HETATM   12  S1  UNL     1      23.345  61.155  28.200  1.00  0.00     0.109 S 
HETATM   13  O2  UNL     1      24.333  62.078  29.162  1.00  0.00    -0.236 OA
BRANCH  12  14
HETATM   14  N3  UNL     1      24.207  60.440  26.887  1.00  0.00    -0.350 NA
ATOM     15  H32 UNL     1      23.817  60.708  25.984  1.00  0.00     0.166 HD
ATOM     16  H31 UNL     1      24.213  59.423  26.966  1.00  0.00     0.166 HD
ENDBRANCH  12  14
ENDBRANCH  11  12
ENDBRANCH   7  11
TORSDOF 5
ENDMDL
MODEL 4
REMARK VINA RESULT: -3.334718433      1.256      1.256
REMARK  5 active torsions:
REMARK  status: ('A' for Active; 'I' for Inactive)
REMARK    1  A    between atoms: C3_7  and  C4_8 
REMARK    2  A    between atoms: C3_7  and  C5_11 
REMARK    3  A    between atoms: C4_8  and  O1_9 
REMARK    4  A    between atoms: C5_11  and  S1_12 
REMARK    5  A    between atoms: S1_12  and  N3_13 
ROOT
HETATM    1  N1  UNL     1      20.801  59.630  26.361  1.00  0.00    -0.087 NA
HETATM    2  C1  UNL     1      21.489  60.623  27.106  1.00  0.00     0.105 A 
HETATM    3  N2  UNL     1      22.758  60.927  27.119  1.00  0.00    -0.362 N 
ATOM      4  H2  UNL     1      23.586  60.577  26.637  1.00  0.00     0.162 HD
HETATM    5  C2  UNL     1      22.507  61.967  28.098  1.00  0.00     0.198 A 
HETATM    6 CL1  UNL     1      23.384  61.600  29.598  1.00  0.00    -0.101 Cl
HETATM    7  C3  UNL     1      21.052  61.636  28.099  1.00  0.00     0.083 A 
ENDROOT
BRANCH   7   8
HETATM    8  C4  UNL     1      20.485  61.070  29.370  1.00  0.00     0.185 C 
BRANCH   8   9
HETATM    9  O1  UNL     1      20.609  61.961  30.431  1.00  0.00    -0.400 OA
ATOM     10  H1  UNL     1      20.886  62.821  30.137  1.00  0.00     0.209 HD
ENDBRANCH   8   9
ENDBRANCH   7   8
BRANCH   7  11
HETATM   11  C5  UNL     1      20.142  62.657  27.432  1.00  0.00     0.154 C 
BRANCH  11  12
HETATM   12  S1  UNL     1      18.634  62.851  28.346  1.00  0.00     0.109 S 
HETATM   13  O2  UNL     1      17.346  62.790  27.302  1.00  0.00    -0.236 OA
BRANCH  12  14
HETATM   14  N3  UNL     1      18.654  64.313  29.262  1.00  0.00    -0.350 NA
ATOM     15  H32 UNL     1      17.726  64.732  29.332  1.00  0.00     0.166 HD
ATOM     16  H31 UNL     1      19.301  64.989  28.856  1.00  0.00     0.166 HD
ENDBRANCH  12  14
ENDBRANCH  11  12
ENDBRANCH   7  11
TORSDOF 5
ENDMDL
MODEL 5
REMARK VINA RESULT: -3.086311037      2.793      4.127
REMARK  5 active torsions:
REMARK  status: ('A' for Active; 'I' for Inactive)
REMARK    1  A    between atoms: C3_7  and  C4_8 
REMARK    2  A    between atoms: C3_7  and  C5_11 
REMARK    3  A    between atoms: C4_8  and  O1_9 
REMARK    4  A    between atoms: C5_11  and  S1_12 
REMARK    5  A    between atoms: S1_12  and  N3_13 
ROOT
HETATM    1  N1  UNL     1      20.813  61.765  30.278  1.00  0.00    -0.087 NA
HETATM    2  C1  UNL     1      19.911  62.474  29.441  1.00  0.00     0.105 A 
HETATM    3  N2  UNL     1      19.340  63.633  29.623  1.00  0.00    -0.362 N 
ATOM      4  H2  UNL     1      19.360  64.336  30.362  1.00  0.00     0.162 HD
HETATM    5  C2  UNL     1      18.666  63.509  28.346  1.00  0.00     0.198 A 
HETATM    6 CL1  UNL     1      16.908  63.484  28.596  1.00  0.00    -0.101 Cl
HETATM    7  C3  UNL     1      19.309  62.183  28.117  1.00  0.00     0.083 A 
ENDROOT
BRANCH   7   8
HETATM    8  C4  UNL     1      18.402  60.985  28.085  1.00  0.00     0.185 C 
BRANCH   8   9
HETATM    9  O1  UNL     1      19.073  59.820  28.439  1.00  0.00    -0.400 OA
ATOM     10  H1  UNL     1      18.492  59.189  28.847  1.00  0.00     0.209 HD
ENDBRANCH   8   9
ENDBRANCH   7   8
BRANCH   7  11
HETATM   11  C5  UNL     1      20.393  62.149  27.051  1.00  0.00     0.154 C 
BRANCH  11  12
HETATM   12  S1  UNL     1      21.253  60.597  27.073  1.00  0.00     0.109 S 
HETATM   13  O2  UNL     1      22.879  60.871  27.254  1.00  0.00    -0.236 OA
BRANCH  12  14
HETATM   14  N3  UNL     1      20.907  59.682  25.651  1.00  0.00    -0.350 NA
ATOM     15  H32 UNL     1      21.628  58.985  25.462  1.00  0.00     0.166 HD
ATOM     16  H31 UNL     1      20.806  60.293  24.841  1.00  0.00     0.166 HD
ENDBRANCH  12  14
ENDBRANCH  11  12
ENDBRANCH   7  11
TORSDOF 5
ENDMDL
