MODEL 1
REMARK VINA RESULT: -9.037330776      0.000      0.000
REMARK  18 active torsions:
REMARK  status: ('A' for Active; 'I' for Inactive)
REMARK       I    between atoms: C2_2  and  N1_4 
REMARK    1  A    between atoms: N1_4  and  N9_40 
REMARK    2  A    between atoms: C4_8  and  N3_9 
REMARK    3  A    between atoms: C6_13  and  C7_14 
REMARK    4  A    between atoms: C7_14  and  O2_15 
REMARK    5  A    between atoms: C7_14  and  C8_17 
REMARK    6  A    between atoms: C8_17  and  O3_18 
REMARK    7  A    between atoms: C8_17  and  C9_20 
REMARK    8  A    between atoms: C9_20  and  O4_21 
REMARK    9  A    between atoms: C12_29  and  C13_30 
REMARK   10  A    between atoms: C13_30  and  C14_35 
REMARK   11  A    between atoms: N6_31  and  O5_33 
REMARK       I    between atoms: N9_40  and  C16_42 
REMARK   12  A    between atoms: C16_42  and  C17_44 
REMARK   13  A    between atoms: C17_44  and  O8_45 
REMARK   14  A    between atoms: C17_44  and  C18_47 
REMARK   15  A    between atoms: C18_47  and  O9_48 
REMARK   16  A    between atoms: C18_47  and  C19_51 
REMARK   17  A    between atoms: C19_51  and  O10_52 
REMARK   18  A    between atoms: C19_51  and  O11_54 
ROOT
HETATM    1  C1  UNL     1       5.336  16.405  17.448  1.00  0.00     0.120 C 
HETATM    2  C2  UNL     1       4.273  17.187  16.817  1.00  0.00     0.255 C 
HETATM    3  O1  UNL     1       3.087  16.995  17.245  1.00  0.00    -0.271 OA
HETATM    4  N1  UNL     1       4.449  18.122  15.786  1.00  0.00    -0.048 N 
HETATM    5  C3  UNL     1       3.524  18.806  15.240  1.00  0.00     0.708 C 
HETATM    6  N2  UNL     1       2.149  18.693  15.644  1.00  0.00    -0.173 N 
ATOM      7  H2  UNL     1       1.913  18.042  16.392  1.00  0.00     0.186 HD
HETATM    8  C4  UNL     1       0.998  19.525  14.985  1.00  0.00     0.143 C 
HETATM    9  C5  UNL     1       1.266  19.960  13.652  1.00  0.00     0.102 C 
HETATM   10  C6  UNL     1       1.502  21.139  13.871  1.00  0.00     0.068 C 
HETATM   11  N4  UNL     1       2.530  22.040  13.068  1.00  0.00    -0.383 N 
ATOM     12  H4  UNL     1       2.458  23.042  12.895  1.00  0.00     0.160 HD
HETATM   13  C10 UNL     1       3.571  21.176  12.638  1.00  0.00     0.179 C 
HETATM   14  C11 UNL     1       3.319  19.743  13.002  1.00  0.00     0.073 C 
HETATM   15  N5  UNL     1       3.592  19.788  14.201  1.00  0.00    -0.190 N 
ATOM     16  H5  UNL     1       3.930  20.698  14.515  1.00  0.00     0.184 HD
HETATM   17  C12 UNL     1       2.597  18.933  12.024  1.00  0.00     0.092 C 
HETATM   18  N8  UNL     1       1.236  19.065  12.400  1.00  0.00    -0.348 N 
ATOM     19  H8  UNL     1       0.420  18.658  11.944  1.00  0.00     0.166 HD
ENDROOT
BRANCH   4  20
HETATM   20  N9  UNL     1       5.825  18.280  15.354  1.00  0.00    -0.239 N 
HETATM   21  C15 UNL     1       6.534  19.271  16.123  1.00  0.00     0.182 C 
HETATM   22  C16 UNL     1       6.328  17.497  14.325  1.00  0.00     0.273 C 
HETATM   23  O7  UNL     1       5.519  16.648  13.805  1.00  0.00    -0.268 OA
BRANCH  22  24
HETATM   24  C17 UNL     1       7.683  17.556  13.797  1.00  0.00     0.284 C 
BRANCH  24  25
HETATM   25  O8  UNL     1       8.087  16.211  13.471  1.00  0.00    -0.380 OA
ATOM     26  H8  UNL     1       8.852  16.003  13.995  1.00  0.00     0.210 HD
ENDBRANCH  24  25
BRANCH  24  27
HETATM   27  C18 UNL     1       7.782  18.310  12.460  1.00  0.00     0.287 C 
HETATM   28  F1  UNL     1       7.476  17.467  11.439  1.00  0.00    -0.203 F 
BRANCH  27  29
HETATM   29  O9  UNL     1       6.862  19.373  12.541  1.00  0.00    -0.356 OA
ATOM     30  H9  UNL     1       7.352  20.162  12.340  1.00  0.00     0.213 HD
ENDBRANCH  27  29
BRANCH  27  31
HETATM   31  C19 UNL     1       9.158  18.852  12.270  1.00  0.00     0.325 C 
BRANCH  31  32
HETATM   32  O10 UNL     1       9.437  19.933  13.096  1.00  0.00    -0.366 OA
ATOM     33  H10 UNL     1      10.358  20.164  13.110  1.00  0.00     0.212 HD
ENDBRANCH  31  32
BRANCH  31  34
HETATM   34  O11 UNL     1       9.249  19.271  10.921  1.00  0.00    -0.366 OA
ATOM     35  H11 UNL     1      10.159  19.173  10.665  1.00  0.00     0.212 HD
ENDBRANCH  31  34
ENDBRANCH  27  31
ENDBRANCH  24  27
ENDBRANCH  22  24
ENDBRANCH   4  20
BRANCH   8  36
HETATM   36  N3  UNL     1       0.219  19.560  15.786  1.00  0.00    -0.383 N 
ATOM     37  H32 UNL     1       0.077  19.383  16.781  1.00  0.00     0.157 HD
ATOM     38  H31 UNL     1      -0.610  19.890  15.291  1.00  0.00     0.157 HD
ENDBRANCH   8  36
BRANCH  17  39
HETATM   39  C13 UNL     1       2.945  18.157  10.954  1.00  0.00     0.147 C 
HETATM   40  N6  UNL     1       3.261  16.903  11.053  1.00  0.00    -0.262 N 
ATOM     41  H6  UNL     1       3.514  16.365  10.223  1.00  0.00     0.194 HD
BRANCH  40  42
HETATM   42  O5  UNL     1       3.252  16.318  12.269  1.00  0.00    -0.289 OA
ATOM     43  H5  UNL     1       3.284  15.371  12.327  1.00  0.00     0.244 HD
ENDBRANCH  40  42
BRANCH  39  44
HETATM   44  C14 UNL     1       2.961  18.753   9.586  1.00  0.00     0.285 C 
HETATM   45  N7  UNL     1       4.147  18.738   8.829  1.00  0.00    -0.056 NA
HETATM   46  O6  UNL     1       1.927  19.267   9.107  1.00  0.00    -0.269 OA
ENDBRANCH  39  44
ENDBRANCH  17  39
BRANCH  10  47
HETATM   47  C7  UNL     1       1.355  21.634  15.184  1.00  0.00     0.200 C 
BRANCH  47  48
HETATM   48  O2  UNL     1       2.696  22.208  15.356  1.00  0.00    -0.387 OA
ATOM     49  H2  UNL     1       2.500  23.105  15.112  1.00  0.00     0.210 HD
ENDBRANCH  47  48
BRANCH  47  50
HETATM   50  C8  UNL     1       0.649  22.985  15.331  1.00  0.00     0.176 C 
BRANCH  50  51
HETATM   51  O3  UNL     1       0.525  23.385  16.659  1.00  0.00    -0.390 OA
ATOM     52  H3  UNL     1       0.137  24.248  16.747  1.00  0.00     0.210 HD
ENDBRANCH  50  51
BRANCH  50  53
HETATM   53  C9  UNL     1      -0.726  22.909  14.725  1.00  0.00     0.198 C 
BRANCH  53  54
HETATM   54  O4  UNL     1      -0.910  23.664  13.591  1.00  0.00    -0.398 OA
ATOM     55  H4  UNL     1      -1.812  23.770  13.316  1.00  0.00     0.209 HD
ENDBRANCH  53  54
ENDBRANCH  50  53
ENDBRANCH  47  50
ENDBRANCH  10  47
TORSDOF 18
ENDMDL
MODEL 2
REMARK VINA RESULT: -8.791296655      3.207      7.147
REMARK  18 active torsions:
REMARK  status: ('A' for Active; 'I' for Inactive)
REMARK       I    between atoms: C2_2  and  N1_4 
REMARK    1  A    between atoms: N1_4  and  N9_40 
REMARK    2  A    between atoms: C4_8  and  N3_9 
REMARK    3  A    between atoms: C6_13  and  C7_14 
REMARK    4  A    between atoms: C7_14  and  O2_15 
REMARK    5  A    between atoms: C7_14  and  C8_17 
REMARK    6  A    between atoms: C8_17  and  O3_18 
REMARK    7  A    between atoms: C8_17  and  C9_20 
REMARK    8  A    between atoms: C9_20  and  O4_21 
REMARK    9  A    between atoms: C12_29  and  C13_30 
REMARK   10  A    between atoms: C13_30  and  C14_35 
REMARK   11  A    between atoms: N6_31  and  O5_33 
REMARK       I    between atoms: N9_40  and  C16_42 
REMARK   12  A    between atoms: C16_42  and  C17_44 
REMARK   13  A    between atoms: C17_44  and  O8_45 
REMARK   14  A    between atoms: C17_44  and  C18_47 
REMARK   15  A    between atoms: C18_47  and  O9_48 
REMARK   16  A    between atoms: C18_47  and  C19_51 
REMARK   17  A    between atoms: C19_51  and  O10_52 
REMARK   18  A    between atoms: C19_51  and  O11_54 
ROOT
HETATM    1  C1  UNL     1       4.581  24.239  17.237  1.00  0.00     0.120 C 
HETATM    2  C2  UNL     1       4.552  23.119  16.297  1.00  0.00     0.255 C 
HETATM    3  O1  UNL     1       4.421  23.410  15.061  1.00  0.00    -0.271 OA
HETATM    4  N1  UNL     1       4.654  21.763  16.638  1.00  0.00    -0.048 N 
HETATM    5  C3  UNL     1       4.636  20.788  15.818  1.00  0.00     0.708 C 
HETATM    6  N2  UNL     1       4.508  20.985  14.399  1.00  0.00    -0.173 N 
ATOM      7  H2  UNL     1       4.432  21.938  14.044  1.00  0.00     0.186 HD
HETATM    8  C4  UNL     1       4.482  19.800  13.376  1.00  0.00     0.143 C 
HETATM    9  C5  UNL     1       4.039  18.556  13.917  1.00  0.00     0.102 C 
HETATM   10  C6  UNL     1       5.115  17.981  14.002  1.00  0.00     0.068 C 
HETATM   11  N4  UNL     1       5.515  16.928  15.117  1.00  0.00    -0.383 N 
ATOM     12  H4  UNL     1       6.148  16.137  15.010  1.00  0.00     0.160 HD
HETATM   13  C10 UNL     1       4.817  17.305  16.295  1.00  0.00     0.179 C 
HETATM   14  C11 UNL     1       3.908  18.479  16.076  1.00  0.00     0.073 C 
HETATM   15  N5  UNL     1       4.745  19.381  16.053  1.00  0.00    -0.190 N 
ATOM     16  H5  UNL     1       5.698  19.066  16.235  1.00  0.00     0.184 HD
HETATM   17  C12 UNL     1       2.536  18.181  15.671  1.00  0.00     0.092 C 
HETATM   18  N8  UNL     1       2.581  18.200  14.254  1.00  0.00    -0.348 N 
ATOM     19  H8  UNL     1       1.817  18.018  13.603  1.00  0.00     0.166 HD
ENDROOT
BRANCH   4  20
HETATM   20  N9  UNL     1       4.798  21.516  18.060  1.00  0.00    -0.239 N 
HETATM   21  C15 UNL     1       6.177  21.450  18.472  1.00  0.00     0.182 C 
HETATM   22  C16 UNL     1       3.674  21.401  18.865  1.00  0.00     0.273 C 
HETATM   23  O7  UNL     1       2.538  21.530  18.283  1.00  0.00    -0.268 OA
BRANCH  22  24
HETATM   24  C17 UNL     1       3.678  21.153  20.300  1.00  0.00     0.284 C 
BRANCH  24  25
HETATM   25  O8  UNL     1       2.347  21.405  20.793  1.00  0.00    -0.380 OA
ATOM     26  H8  UNL     1       2.409  21.561  21.729  1.00  0.00     0.210 HD
ENDBRANCH  24  25
BRANCH  24  27
HETATM   27  C18 UNL     1       3.938  19.681  20.662  1.00  0.00     0.287 C 
HETATM   28  F1  UNL     1       5.277  19.454  20.708  1.00  0.00    -0.203 F 
BRANCH  27  29
HETATM   29  O9  UNL     1       3.338  19.475  21.919  1.00  0.00    -0.356 OA
ATOM     30  H9  UNL     1       4.016  19.116  22.479  1.00  0.00     0.213 HD
ENDBRANCH  27  29
BRANCH  27  31
HETATM   31  C19 UNL     1       3.310  18.780  19.653  1.00  0.00     0.325 C 
BRANCH  31  32
HETATM   32  O10 UNL     1       2.015  18.408  19.988  1.00  0.00    -0.366 OA
ATOM     33  H10 UNL     1       1.499  18.137  19.237  1.00  0.00     0.212 HD
ENDBRANCH  31  32
BRANCH  31  34
HETATM   34  O11 UNL     1       4.117  17.619  19.585  1.00  0.00    -0.366 OA
ATOM     35  H11 UNL     1       4.004  17.159  20.409  1.00  0.00     0.212 HD
ENDBRANCH  31  34
ENDBRANCH  27  31
ENDBRANCH  24  27
ENDBRANCH  22  24
ENDBRANCH   4  20
BRANCH   8  36
HETATM   36  N3  UNL     1       4.842  20.275  12.429  1.00  0.00    -0.383 N 
ATOM     37  H32 UNL     1       5.691  20.575  11.949  1.00  0.00     0.157 HD
ATOM     38  H31 UNL     1       3.979  20.439  11.909  1.00  0.00     0.157 HD
ENDBRANCH   8  36
BRANCH  17  39
HETATM   39  C13 UNL     1       1.361  17.933  16.321  1.00  0.00     0.147 C 
HETATM   40  N6  UNL     1       0.371  18.772  16.356  1.00  0.00    -0.262 N 
ATOM     41  H6  UNL     1      -0.487  18.540  16.856  1.00  0.00     0.194 HD
BRANCH  40  42
HETATM   42  O5  UNL     1       0.494  19.957  15.722  1.00  0.00    -0.289 OA
ATOM     43  H5  UNL     1       0.212  20.028  14.817  1.00  0.00     0.244 HD
ENDBRANCH  40  42
BRANCH  39  44
HETATM   44  C14 UNL     1       1.171  16.634  17.030  1.00  0.00     0.285 C 
HETATM   45  N7  UNL     1       0.246  15.695  16.537  1.00  0.00    -0.056 NA
HETATM   46  O6  UNL     1       1.828  16.374  18.061  1.00  0.00    -0.269 OA
ENDBRANCH  39  44
ENDBRANCH  17  39
BRANCH  10  47
HETATM   47  C7  UNL     1       6.273  18.621  13.510  1.00  0.00     0.200 C 
BRANCH  47  48
HETATM   48  O2  UNL     1       7.202  18.255  14.587  1.00  0.00    -0.387 OA
ATOM     49  H2  UNL     1       7.166  17.311  14.492  1.00  0.00     0.210 HD
ENDBRANCH  47  48
BRANCH  47  50
HETATM   50  C8  UNL     1       7.066  17.871  12.436  1.00  0.00     0.176 C 
BRANCH  50  51
HETATM   51  O3  UNL     1       7.669  16.714  12.922  1.00  0.00    -0.390 OA
ATOM     52  H3  UNL     1       7.093  15.959  12.889  1.00  0.00     0.210 HD
ENDBRANCH  50  51
BRANCH  50  53
HETATM   53  C9  UNL     1       8.137  18.767  11.875  1.00  0.00     0.198 C 
BRANCH  53  54
HETATM   54  O4  UNL     1       7.698  19.983  11.406  1.00  0.00    -0.398 OA
ATOM     55  H4  UNL     1       8.208  20.351  10.694  1.00  0.00     0.209 HD
ENDBRANCH  53  54
ENDBRANCH  50  53
ENDBRANCH  47  50
ENDBRANCH  10  47
TORSDOF 18
ENDMDL
MODEL 3
REMARK VINA RESULT: -8.122824224      2.056      5.919
REMARK  18 active torsions:
REMARK  status: ('A' for Active; 'I' for Inactive)
REMARK       I    between atoms: C2_2  and  N1_4 
REMARK    1  A    between atoms: N1_4  and  N9_40 
REMARK    2  A    between atoms: C4_8  and  N3_9 
REMARK    3  A    between atoms: C6_13  and  C7_14 
REMARK    4  A    between atoms: C7_14  and  O2_15 
REMARK    5  A    between atoms: C7_14  and  C8_17 
REMARK    6  A    between atoms: C8_17  and  O3_18 
REMARK    7  A    between atoms: C8_17  and  C9_20 
REMARK    8  A    between atoms: C9_20  and  O4_21 
REMARK    9  A    between atoms: C12_29  and  C13_30 
REMARK   10  A    between atoms: C13_30  and  C14_35 
REMARK   11  A    between atoms: N6_31  and  O5_33 
REMARK       I    between atoms: N9_40  and  C16_42 
REMARK   12  A    between atoms: C16_42  and  C17_44 
REMARK   13  A    between atoms: C17_44  and  O8_45 
REMARK   14  A    between atoms: C17_44  and  C18_47 
REMARK   15  A    between atoms: C18_47  and  O9_48 
REMARK   16  A    between atoms: C18_47  and  C19_51 
REMARK   17  A    between atoms: C19_51  and  O10_52 
REMARK   18  A    between atoms: C19_51  and  O11_54 
ROOT
HETATM    1  C1  UNL     1       1.616  22.581  13.066  1.00  0.00     0.120 C 
HETATM    2  C2  UNL     1       2.598  21.956  13.952  1.00  0.00     0.255 C 
HETATM    3  O1  UNL     1       3.248  22.732  14.729  1.00  0.00    -0.271 OA
HETATM    4  N1  UNL     1       2.882  20.584  14.018  1.00  0.00    -0.048 N 
HETATM    5  C3  UNL     1       3.732  20.039  14.794  1.00  0.00     0.708 C 
HETATM    6  N2  UNL     1       4.517  20.803  15.725  1.00  0.00    -0.173 N 
ATOM      7  H2  UNL     1       4.383  21.813  15.762  1.00  0.00     0.186 HD
HETATM    8  C4  UNL     1       5.567  20.151  16.686  1.00  0.00     0.143 C 
HETATM    9  C5  UNL     1       6.100  18.908  16.231  1.00  0.00     0.102 C 
HETATM   10  C6  UNL     1       5.491  18.148  16.970  1.00  0.00     0.068 C 
HETATM   11  N4  UNL     1       5.014  16.683  16.598  1.00  0.00    -0.383 N 
ATOM     12  H4  UNL     1       4.923  15.891  17.234  1.00  0.00     0.160 HD
HETATM   13  C10 UNL     1       4.738  16.691  15.205  1.00  0.00     0.179 C 
HETATM   14  C11 UNL     1       5.056  18.008  14.562  1.00  0.00     0.073 C 
HETATM   15  N5  UNL     1       4.089  18.662  14.953  1.00  0.00    -0.190 N 
ATOM     16  H5  UNL     1       3.413  18.120  15.491  1.00  0.00     0.184 HD
HETATM   17  C12 UNL     1       6.407  18.172  14.031  1.00  0.00     0.092 C 
HETATM   18  N8  UNL     1       7.136  18.742  15.105  1.00  0.00    -0.348 N 
ATOM     19  H8  UNL     1       8.126  18.986  15.128  1.00  0.00     0.166 HD
ENDROOT
BRANCH   4  20
HETATM   20  N9  UNL     1       2.102  19.770  13.104  1.00  0.00    -0.239 N 
HETATM   21  C15 UNL     1       0.898  19.260  13.708  1.00  0.00     0.182 C 
HETATM   22  C16 UNL     1       2.531  19.584  11.797  1.00  0.00     0.273 C 
HETATM   23  O7  UNL     1       3.624  20.168  11.466  1.00  0.00    -0.268 OA
BRANCH  22  24
HETATM   24  C17 UNL     1       1.848  18.794  10.783  1.00  0.00     0.284 C 
BRANCH  24  25
HETATM   25  O8  UNL     1       1.744  19.602   9.593  1.00  0.00    -0.380 OA
ATOM     26  H8  UNL     1       2.579  20.037   9.465  1.00  0.00     0.210 HD
ENDBRANCH  24  25
BRANCH  24  27
HETATM   27  C18 UNL     1       2.650  17.563  10.329  1.00  0.00     0.287 C 
HETATM   28  F1  UNL     1       3.516  17.922   9.346  1.00  0.00    -0.203 F 
BRANCH  27  29
HETATM   29  O9  UNL     1       3.332  17.098  11.470  1.00  0.00    -0.356 OA
ATOM     30  H9  UNL     1       4.204  17.470  11.426  1.00  0.00     0.213 HD
ENDBRANCH  27  29
BRANCH  27  31
HETATM   31  C19 UNL     1       1.731  16.501   9.827  1.00  0.00     0.325 C 
BRANCH  31  32
HETATM   32  O10 UNL     1       2.290  15.231   9.871  1.00  0.00    -0.366 OA
ATOM     33  H10 UNL     1       1.769  14.578   9.420  1.00  0.00     0.212 HD
ENDBRANCH  31  32
BRANCH  31  34
HETATM   34  O11 UNL     1       1.432  16.823   8.482  1.00  0.00    -0.366 OA
ATOM     35  H11 UNL     1       2.264  16.917   8.032  1.00  0.00     0.212 HD
ENDBRANCH  31  34
ENDBRANCH  27  31
ENDBRANCH  24  27
ENDBRANCH  22  24
ENDBRANCH   4  20
BRANCH   8  36
HETATM   36  N3  UNL     1       5.626  20.882  17.532  1.00  0.00    -0.383 N 
ATOM     37  H32 UNL     1       5.293  21.799  17.828  1.00  0.00     0.157 HD
ATOM     38  H31 UNL     1       6.234  20.412  18.203  1.00  0.00     0.157 HD
ENDBRANCH   8  36
BRANCH  17  39
HETATM   39  C13 UNL     1       7.021  17.922  12.836  1.00  0.00     0.147 C 
HETATM   40  N6  UNL     1       7.913  16.995  12.670  1.00  0.00    -0.262 N 
ATOM     41  H6  UNL     1       8.343  16.847  11.757  1.00  0.00     0.194 HD
BRANCH  40  42
HETATM   42  O5  UNL     1       8.264  16.228  13.723  1.00  0.00    -0.289 OA
ATOM     43  H5  UNL     1       9.026  16.469  14.237  1.00  0.00     0.244 HD
ENDBRANCH  40  42
BRANCH  39  44
HETATM   44  C14 UNL     1       6.661  18.736  11.638  1.00  0.00     0.285 C 
HETATM   45  N7  UNL     1       6.177  18.102  10.480  1.00  0.00    -0.056 NA
HETATM   46  O6  UNL     1       6.788  19.980  11.657  1.00  0.00    -0.269 OA
ENDBRANCH  39  44
ENDBRANCH  17  39
BRANCH  10  47
HETATM   47  C7  UNL     1       4.647  18.689  17.963  1.00  0.00     0.200 C 
BRANCH  47  48
HETATM   48  O2  UNL     1       3.420  17.951  17.636  1.00  0.00    -0.387 OA
ATOM     49  H2  UNL     1       2.786  18.621  17.861  1.00  0.00     0.210 HD
ENDBRANCH  47  48
BRANCH  47  50
HETATM   50  C8  UNL     1       4.759  18.079  19.363  1.00  0.00     0.176 C 
BRANCH  50  51
HETATM   51  O3  UNL     1       4.191  16.811  19.444  1.00  0.00    -0.390 OA
ATOM     52  H3  UNL     1       4.831  16.115  19.352  1.00  0.00     0.210 HD
ENDBRANCH  50  51
BRANCH  50  53
HETATM   53  C9  UNL     1       4.077  18.972  20.363  1.00  0.00     0.198 C 
BRANCH  53  54
HETATM   54  O4  UNL     1       2.703  18.907  20.368  1.00  0.00    -0.398 OA
ATOM     55  H4  UNL     1       2.285  19.097  19.536  1.00  0.00     0.209 HD
ENDBRANCH  53  54
ENDBRANCH  50  53
ENDBRANCH  47  50
ENDBRANCH  10  47
TORSDOF 18
ENDMDL
MODEL 4
REMARK VINA RESULT: -8.030120375      3.415      6.426
REMARK  18 active torsions:
REMARK  status: ('A' for Active; 'I' for Inactive)
REMARK       I    between atoms: C2_2  and  N1_4 
REMARK    1  A    between atoms: N1_4  and  N9_40 
REMARK    2  A    between atoms: C4_8  and  N3_9 
REMARK    3  A    between atoms: C6_13  and  C7_14 
REMARK    4  A    between atoms: C7_14  and  O2_15 
REMARK    5  A    between atoms: C7_14  and  C8_17 
REMARK    6  A    between atoms: C8_17  and  O3_18 
REMARK    7  A    between atoms: C8_17  and  C9_20 
REMARK    8  A    between atoms: C9_20  and  O4_21 
REMARK    9  A    between atoms: C12_29  and  C13_30 
REMARK   10  A    between atoms: C13_30  and  C14_35 
REMARK   11  A    between atoms: N6_31  and  O5_33 
REMARK       I    between atoms: N9_40  and  C16_42 
REMARK   12  A    between atoms: C16_42  and  C17_44 
REMARK   13  A    between atoms: C17_44  and  O8_45 
REMARK   14  A    between atoms: C17_44  and  C18_47 
REMARK   15  A    between atoms: C18_47  and  O9_48 
REMARK   16  A    between atoms: C18_47  and  C19_51 
REMARK   17  A    between atoms: C19_51  and  O10_52 
REMARK   18  A    between atoms: C19_51  and  O11_54 
ROOT
HETATM    1  C1  UNL     1       7.343  17.532  13.569  1.00  0.00     0.120 C 
HETATM    2  C2  UNL     1       7.121  18.561  14.584  1.00  0.00     0.255 C 
HETATM    3  O1  UNL     1       8.157  19.032  15.162  1.00  0.00    -0.271 OA
HETATM    4  N1  UNL     1       5.873  19.069  14.973  1.00  0.00    -0.048 N 
HETATM    5  C3  UNL     1       5.680  19.969  15.853  1.00  0.00     0.708 C 
HETATM    6  N2  UNL     1       6.765  20.589  16.564  1.00  0.00    -0.173 N 
ATOM      7  H2  UNL     1       7.718  20.294  16.352  1.00  0.00     0.186 HD
HETATM    8  C4  UNL     1       6.548  21.696  17.649  1.00  0.00     0.143 C 
HETATM    9  C5  UNL     1       5.269  21.666  18.283  1.00  0.00     0.102 C 
HETATM   10  C6  UNL     1       4.749  22.621  17.725  1.00  0.00     0.068 C 
HETATM   11  N4  UNL     1       3.210  22.756  17.368  1.00  0.00    -0.383 N 
ATOM     12  H4  UNL     1       2.666  23.618  17.330  1.00  0.00     0.160 HD
HETATM   13  C10 UNL     1       2.740  21.442  17.110  1.00  0.00     0.179 C 
HETATM   14  C11 UNL     1       3.795  20.398  17.333  1.00  0.00     0.073 C 
HETATM   15  N5  UNL     1       4.463  20.566  16.313  1.00  0.00    -0.190 N 
ATOM     16  H5  UNL     1       4.077  21.261  15.675  1.00  0.00     0.184 HD
HETATM   17  C12 UNL     1       3.879  19.825  18.674  1.00  0.00     0.092 C 
HETATM   18  N8  UNL     1       4.824  20.644  19.343  1.00  0.00    -0.348 N 
ATOM     19  H8  UNL     1       5.139  20.571  20.310  1.00  0.00     0.166 HD
ENDROOT
BRANCH   4  20
HETATM   20  N9  UNL     1       4.747  18.482  14.271  1.00  0.00    -0.239 N 
HETATM   21  C15 UNL     1       4.238  17.306  14.929  1.00  0.00     0.182 C 
HETATM   22  C16 UNL     1       4.259  19.076  13.115  1.00  0.00     0.273 C 
HETATM   23  O7  UNL     1       4.851  20.147  12.729  1.00  0.00    -0.268 OA
BRANCH  22  24
HETATM   24  C17 UNL     1       3.141  18.592  12.318  1.00  0.00     0.284 C 
BRANCH  24  25
HETATM   25  O8  UNL     1       2.097  19.584  12.378  1.00  0.00    -0.380 OA
ATOM     26  H8  UNL     1       2.292  20.250  11.728  1.00  0.00     0.210 HD
ENDBRANCH  24  25
BRANCH  24  27
HETATM   27  C18 UNL     1       3.467  18.484  10.818  1.00  0.00     0.287 C 
HETATM   28  F1  UNL     1       3.152  19.651  10.199  1.00  0.00    -0.203 F 
BRANCH  27  29
HETATM   29  O9  UNL     1       4.846  18.214  10.736  1.00  0.00    -0.356 OA
ATOM     30  H9  UNL     1       5.105  17.894  11.592  1.00  0.00     0.213 HD
ENDBRANCH  27  29
BRANCH  27  31
HETATM   31  C19 UNL     1       2.700  17.364  10.201  1.00  0.00     0.325 C 
BRANCH  31  32
HETATM   32  O10 UNL     1       1.334  17.444  10.437  1.00  0.00    -0.366 OA
ATOM     33  H10 UNL     1       0.817  16.943   9.816  1.00  0.00     0.212 HD
ENDBRANCH  31  32
BRANCH  31  34
HETATM   34  O11 UNL     1       3.194  16.167  10.773  1.00  0.00    -0.366 OA
ATOM     35  H11 UNL     1       3.273  15.538  10.065  1.00  0.00     0.212 HD
ENDBRANCH  31  34
ENDBRANCH  27  31
ENDBRANCH  24  27
ENDBRANCH  22  24
ENDBRANCH   4  20
BRANCH   8  36
HETATM   36  N3  UNL     1       7.517  22.254  17.640  1.00  0.00    -0.383 N 
ATOM     37  H32 UNL     1       8.444  22.253  17.214  1.00  0.00     0.157 HD
ATOM     38  H31 UNL     1       7.356  23.011  18.305  1.00  0.00     0.157 HD
ENDBRANCH   8  36
BRANCH  17  39
HETATM   39  C13 UNL     1       3.300  18.770  19.321  1.00  0.00     0.147 C 
HETATM   40  N6  UNL     1       2.415  17.994  18.774  1.00  0.00    -0.262 N 
ATOM     41  H6  UNL     1       2.012  17.218  19.299  1.00  0.00     0.194 HD
BRANCH  40  42
HETATM   42  O5  UNL     1       2.036  18.227  17.500  1.00  0.00    -0.289 OA
ATOM     43  H5  UNL     1       1.201  18.649  17.337  1.00  0.00     0.244 HD
ENDBRANCH  40  42
BRANCH  39  44
HETATM   44  C14 UNL     1       3.691  18.463  20.727  1.00  0.00     0.285 C 
HETATM   45  N7  UNL     1       3.259  19.298  21.774  1.00  0.00    -0.056 NA
HETATM   46  O6  UNL     1       4.403  17.467  20.983  1.00  0.00    -0.269 OA
ENDBRANCH  39  44
ENDBRANCH  17  39
BRANCH  10  47
HETATM   47  C7  UNL     1       5.518  23.393  16.828  1.00  0.00     0.200 C 
BRANCH  47  48
HETATM   48  O2  UNL     1       4.579  23.425  15.700  1.00  0.00    -0.387 OA
ATOM     49  H2  UNL     1       4.955  24.153  15.221  1.00  0.00     0.210 HD
ENDBRANCH  47  48
BRANCH  47  50
HETATM   50  C8  UNL     1       5.483  24.911  17.028  1.00  0.00     0.176 C 
BRANCH  50  51
HETATM   51  O3  UNL     1       6.443  25.576  16.271  1.00  0.00    -0.390 OA
ATOM     52  H3  UNL     1       6.253  26.501  16.167  1.00  0.00     0.210 HD
ENDBRANCH  50  51
BRANCH  50  53
HETATM   53  C9  UNL     1       5.711  25.239  18.479  1.00  0.00     0.198 C 
BRANCH  53  54
HETATM   54  O4  UNL     1       6.991  25.027  18.935  1.00  0.00    -0.398 OA
ATOM     55  H4  UNL     1       7.294  24.129  18.891  1.00  0.00     0.209 HD
ENDBRANCH  53  54
ENDBRANCH  50  53
ENDBRANCH  47  50
ENDBRANCH  10  47
TORSDOF 18
ENDMDL
MODEL 5
REMARK VINA RESULT: -8.027858372      3.212      6.808
REMARK  18 active torsions:
REMARK  status: ('A' for Active; 'I' for Inactive)
REMARK       I    between atoms: C2_2  and  N1_4 
REMARK    1  A    between atoms: N1_4  and  N9_40 
REMARK    2  A    between atoms: C4_8  and  N3_9 
REMARK    3  A    between atoms: C6_13  and  C7_14 
REMARK    4  A    between atoms: C7_14  and  O2_15 
REMARK    5  A    between atoms: C7_14  and  C8_17 
REMARK    6  A    between atoms: C8_17  and  O3_18 
REMARK    7  A    between atoms: C8_17  and  C9_20 
REMARK    8  A    between atoms: C9_20  and  O4_21 
REMARK    9  A    between atoms: C12_29  and  C13_30 
REMARK   10  A    between atoms: C13_30  and  C14_35 
REMARK   11  A    between atoms: N6_31  and  O5_33 
REMARK       I    between atoms: N9_40  and  C16_42 
REMARK   12  A    between atoms: C16_42  and  C17_44 
REMARK   13  A    between atoms: C17_44  and  O8_45 
REMARK   14  A    between atoms: C17_44  and  C18_47 
REMARK   15  A    between atoms: C18_47  and  O9_48 
REMARK   16  A    between atoms: C18_47  and  C19_51 
REMARK   17  A    between atoms: C19_51  and  O10_52 
REMARK   18  A    between atoms: C19_51  and  O11_54 
ROOT
HETATM    1  C1  UNL     1       6.477  20.636  18.547  1.00  0.00     0.120 C 
HETATM    2  C2  UNL     1       5.776  20.721  17.266  1.00  0.00     0.255 C 
HETATM    3  O1  UNL     1       6.460  21.109  16.261  1.00  0.00    -0.271 OA
HETATM    4  N1  UNL     1       4.424  20.417  17.053  1.00  0.00    -0.048 N 
HETATM    5  C3  UNL     1       3.815  20.486  15.936  1.00  0.00     0.708 C 
HETATM    6  N2  UNL     1       4.478  20.894  14.728  1.00  0.00    -0.173 N 
ATOM      7  H2  UNL     1       5.468  21.134  14.772  1.00  0.00     0.186 HD
HETATM    8  C4  UNL     1       3.747  20.986  13.347  1.00  0.00     0.143 C 
HETATM    9  C5  UNL     1       2.336  21.188  13.432  1.00  0.00     0.102 C 
HETATM   10  C6  UNL     1       1.956  20.062  13.149  1.00  0.00     0.068 C 
HETATM   11  N4  UNL     1       0.658  19.354  13.720  1.00  0.00    -0.383 N 
ATOM     12  H4  UNL     1       0.072  18.672  13.238  1.00  0.00     0.160 HD
HETATM   13  C10 UNL     1       0.471  19.856  15.035  1.00  0.00     0.179 C 
HETATM   14  C11 UNL     1       1.478  20.907  15.399  1.00  0.00     0.073 C 
HETATM   15  N5  UNL     1       2.455  20.188  15.606  1.00  0.00    -0.190 N 
ATOM     16  H5  UNL     1       2.258  19.190  15.527  1.00  0.00     0.184 HD
HETATM   17  C12 UNL     1       1.120  22.292  15.100  1.00  0.00     0.092 C 
HETATM   18  N8  UNL     1       1.648  22.514  13.802  1.00  0.00    -0.348 N 
ATOM     19  H8  UNL     1       1.584  23.362  13.239  1.00  0.00     0.166 HD
ENDROOT
BRANCH   4  20
HETATM   20  N9  UNL     1       3.716  19.986  18.244  1.00  0.00    -0.239 N 
HETATM   21  C15 UNL     1       3.322  21.089  19.082  1.00  0.00     0.182 C 
HETATM   22  C16 UNL     1       3.462  18.638  18.455  1.00  0.00     0.273 C 
HETATM   23  O7  UNL     1       3.878  17.829  17.550  1.00  0.00    -0.268 OA
BRANCH  22  24
HETATM   24  C17 UNL     1       2.766  18.074  19.603  1.00  0.00     0.284 C 
BRANCH  24  25
HETATM   25  O8  UNL     1       2.301  16.760  19.232  1.00  0.00    -0.380 OA
ATOM     26  H8  UNL     1       1.363  16.730  19.389  1.00  0.00     0.210 HD
ENDBRANCH  24  25
BRANCH  24  27
HETATM   27  C18 UNL     1       3.688  17.817  20.807  1.00  0.00     0.287 C 
HETATM   28  F1  UNL     1       4.973  18.096  20.463  1.00  0.00    -0.203 F 
BRANCH  27  29
HETATM   29  O9  UNL     1       3.235  18.667  21.835  1.00  0.00    -0.356 OA
ATOM     30  H9  UNL     1       3.415  18.214  22.650  1.00  0.00     0.213 HD
ENDBRANCH  27  29
BRANCH  27  31
HETATM   31  C19 UNL     1       3.582  16.397  21.248  1.00  0.00     0.325 C 
BRANCH  31  32
HETATM   32  O10 UNL     1       2.836  16.241  22.408  1.00  0.00    -0.366 OA
ATOM     33  H10 UNL     1       2.456  15.374  22.494  1.00  0.00     0.212 HD
ENDBRANCH  31  32
BRANCH  31  34
HETATM   34  O11 UNL     1       4.902  15.946  21.489  1.00  0.00    -0.366 OA
ATOM     35  H11 UNL     1       4.829  15.144  21.994  1.00  0.00     0.212 HD
ENDBRANCH  31  34
ENDBRANCH  27  31
ENDBRANCH  24  27
ENDBRANCH  22  24
ENDBRANCH   4  20
BRANCH   8  36
HETATM   36  N3  UNL     1       4.579  20.860  12.610  1.00  0.00    -0.383 N 
ATOM     37  H32 UNL     1       5.444  21.296  12.289  1.00  0.00     0.157 HD
ATOM     38  H31 UNL     1       4.330  19.999  12.123  1.00  0.00     0.157 HD
ENDBRANCH   8  36
BRANCH  17  39
HETATM   39  C13 UNL     1       0.466  23.294  15.759  1.00  0.00     0.147 C 
HETATM   40  N6  UNL     1      -0.666  23.790  15.364  1.00  0.00    -0.262 N 
ATOM     41  H6  UNL     1      -1.115  24.539  15.892  1.00  0.00     0.194 HD
BRANCH  40  42
HETATM   42  O5  UNL     1      -1.240  23.303  14.244  1.00  0.00    -0.289 OA
ATOM     43  H5  UNL     1      -1.593  23.910  13.605  1.00  0.00     0.244 HD
ENDBRANCH  40  42
BRANCH  39  44
HETATM   44  C14 UNL     1       1.054  23.861  17.007  1.00  0.00     0.285 C 
HETATM   45  N7  UNL     1       2.447  24.030  17.112  1.00  0.00    -0.056 NA
HETATM   46  O6  UNL     1       0.317  24.188  17.963  1.00  0.00    -0.269 OA
ENDBRANCH  39  44
ENDBRANCH  17  39
BRANCH  10  47
HETATM   47  C7  UNL     1       2.911  19.088  12.785  1.00  0.00     0.200 C 
BRANCH  47  48
HETATM   48  O2  UNL     1       2.516  18.029  13.723  1.00  0.00    -0.387 OA
ATOM     49  H2  UNL     1       2.758  18.459  14.534  1.00  0.00     0.210 HD
ENDBRANCH  47  48
BRANCH  47  50
HETATM   50  C8  UNL     1       2.592  18.246  11.546  1.00  0.00     0.176 C 
BRANCH  50  51
HETATM   51  O3  UNL     1       3.304  17.051  11.510  1.00  0.00    -0.390 OA
ATOM     52  H3  UNL     1       3.760  16.920  10.687  1.00  0.00     0.210 HD
ENDBRANCH  50  51
BRANCH  50  53
HETATM   53  C9  UNL     1       2.913  19.030  10.302  1.00  0.00     0.198 C 
BRANCH  53  54
HETATM   54  O4  UNL     1       4.247  19.296  10.104  1.00  0.00    -0.398 OA
ATOM     55  H4  UNL     1       4.451  19.784   9.315  1.00  0.00     0.209 HD
ENDBRANCH  53  54
ENDBRANCH  50  53
ENDBRANCH  47  50
ENDBRANCH  10  47
TORSDOF 18
ENDMDL
