MODEL 1
REMARK VINA RESULT: -9.051935002      0.000      0.000
REMARK  14 active torsions:
REMARK  status: ('A' for Active; 'I' for Inactive)
REMARK       I    between atoms: C1_2  and  N2_4 
REMARK    1  A    between atoms: N2_4  and  N3_6 
REMARK       I    between atoms: N3_6  and  C2_8 
REMARK       I    between atoms: C2_8  and  N4_10 
REMARK    2  A    between atoms: N4_10  and  N5_12 
REMARK    3  A    between atoms: N5_12  and  C3_13 
REMARK    4  A    between atoms: C3_13  and  O3_14 
REMARK    5  A    between atoms: C3_13  and  O4_16 
REMARK    6  A    between atoms: O4_16  and  C4_17 
REMARK    7  A    between atoms: C4_17  and  C5_18 
REMARK    8  A    between atoms: C6_20  and  N6_21 
REMARK    9  A    between atoms: N10_30  and  O6_31 
REMARK   10  A    between atoms: C11_38  and  O8_39 
REMARK   11  A    between atoms: C11_38  and  S1_41 
REMARK   12  A    between atoms: S1_41  and  C12_42 
REMARK   13  A    between atoms: C12_42  and  C13_43 
REMARK   14  A    between atoms: C14_49  and  C15_50 
ROOT
HETATM    1  C5  UNL     1       3.914  20.121  16.173  1.00  0.00     0.204 C 
HETATM    2  O5  UNL     1       3.215  20.607  17.228  1.00  0.00    -0.337 OA
HETATM    3  C6  UNL     1       3.681  20.468  18.486  1.00  0.00     0.341 C 
HETATM    4  N11 UNL     1       4.637  19.398  18.675  1.00  0.00    -0.314 N 
ATOM      5  H11 UNL     1       5.271  19.405  19.474  1.00  0.00     0.167 HD
HETATM    6  C10 UNL     1       4.679  18.348  17.741  1.00  0.00     0.269 C 
HETATM    7  O7  UNL     1       4.873  17.140  18.068  1.00  0.00    -0.269 OA
HETATM    8  C11 UNL     1       4.478  18.742  16.292  1.00  0.00     0.216 C 
ENDROOT
BRANCH   1   9
HETATM    9  C4  UNL     1       2.927  20.085  14.996  1.00  0.00     0.209 C 
BRANCH   9  10
HETATM   10  O4  UNL     1       1.616  20.120  15.460  1.00  0.00    -0.344 OA
BRANCH  10  11
HETATM   11  C3  UNL     1       0.890  19.193  14.703  1.00  0.00     0.378 C 
BRANCH  11  12
HETATM   12  N5  UNL     1       0.400  18.146  15.573  1.00  0.00    -0.077 NA
BRANCH  12  13
HETATM   13  N4  UNL     1       0.728  18.327  16.897  1.00  0.00    -0.250 N 
HETATM   14  C2  UNL     1       1.360  17.287  17.611  1.00  0.00     0.350 C 
HETATM   15  N3  UNL     1       1.695  17.501  18.989  1.00  0.00    -0.247 N 
HETATM   16  O2  UNL     1       1.625  16.207  17.063  1.00  0.00    -0.244 OA
ATOM     17  H3  UNL     1       1.472  18.394  19.427  1.00  0.00     0.192 HD
ATOM     18  H4  UNL     1       0.514  19.210  17.361  1.00  0.00     0.187 HD
BRANCH  15  19
HETATM   19  N2  UNL     1       2.320  16.505  19.738  1.00  0.00    -0.250 N 
HETATM   20  C1  UNL     1       3.121  16.832  20.877  1.00  0.00     0.347 C 
HETATM   21  N1  UNL     1       3.756  15.820  21.636  1.00  0.00    -0.038 NA
HETATM   22  O1  UNL     1       3.251  18.046  21.191  1.00  0.00    -0.249 OA
ATOM     23  H2  UNL     1       2.203  15.528  19.469  1.00  0.00     0.191 HD
ENDBRANCH  15  19
ENDBRANCH  12  13
ENDBRANCH  11  12
BRANCH  11  24
HETATM   24  O3  UNL     1       1.718  18.586  13.743  1.00  0.00    -0.357 OA
ATOM     25  H3  UNL     1       1.197  17.934  13.289  1.00  0.00     0.214 HD
ENDBRANCH  11  24
ENDBRANCH  10  11
ENDBRANCH   9  10
ENDBRANCH   1   9
BRANCH   8  26
HETATM   26  O8  UNL     1       3.653  17.772  15.742  1.00  0.00    -0.369 OA
ATOM     27  H8  UNL     1       3.189  17.266  16.398  1.00  0.00     0.212 HD
ENDBRANCH   8  26
BRANCH   8  28
HETATM   28  S1  UNL     1       6.106  18.649  15.536  1.00  0.00    -0.113 SA
BRANCH  28  29
HETATM   29  C12 UNL     1       6.139  17.852  13.934  1.00  0.00     0.139 C 
BRANCH  29  30
HETATM   30  C13 UNL     1       6.680  18.698  12.840  1.00  0.00     0.073 A 
HETATM   31  N12 UNL     1       6.018  19.440  11.922  1.00  0.00    -0.243 N 
HETATM   32  O9  UNL     1       6.884  19.992  11.155  1.00  0.00    -0.157 OA
ATOM     33  H12 UNL     1       5.006  19.542  11.852  1.00  0.00     0.196 HD
HETATM   34  N13 UNL     1       8.092  19.668  11.500  1.00  0.00    -0.238 N 
HETATM   35  C14 UNL     1       8.025  18.840  12.574  1.00  0.00     0.123 A 
ATOM     36  H13 UNL     1       8.948  19.981  11.042  1.00  0.00     0.196 HD
BRANCH  35  37
HETATM   37  C15 UNL     1       9.185  18.240  13.286  1.00  0.00     0.407 C 
HETATM   38  F1  UNL     1       9.013  16.923  13.607  1.00  0.00    -0.207 F 
HETATM   39  F2  UNL     1       9.535  18.926  14.424  1.00  0.00    -0.207 F 
ENDBRANCH  35  37
ENDBRANCH  29  30
ENDBRANCH  28  29
ENDBRANCH   8  28
BRANCH   3  40
HETATM   40  N6  UNL     1       4.146  21.675  19.119  1.00  0.00    -0.278 N 
HETATM   41  C7  UNL     1       5.232  21.934  19.864  1.00  0.00     0.191 A 
HETATM   42  N7  UNL     1       5.235  23.226  20.235  1.00  0.00    -0.334 N 
HETATM   43  C8  UNL     1       4.154  23.810  19.734  1.00  0.00     0.171 A 
ATOM     44  H7  UNL     1       5.948  23.682  20.806  1.00  0.00     0.168 HD
HETATM   45  N8  UNL     1       3.419  24.942  19.604  1.00  0.00    -0.266 N 
HETATM   46  C9  UNL     1       3.472  22.851  19.038  1.00  0.00     0.205 A 
HETATM   47  N9  UNL     1       2.350  24.698  18.873  1.00  0.00    -0.213 N 
ATOM     48  H8  UNL     1       3.658  25.847  20.010  1.00  0.00     0.190 HD
HETATM   49  N10 UNL     1       2.353  23.430  18.512  1.00  0.00    -0.127 N 
ATOM     50  H9  UNL     1       1.635  25.381  18.626  1.00  0.00     0.211 HD
BRANCH  49  51
HETATM   51  O6  UNL     1       1.394  22.796  17.738  1.00  0.00    -0.265 OA
ATOM     52  H6  UNL     1       0.608  23.192  17.382  1.00  0.00     0.247 HD
ENDBRANCH  49  51
ENDBRANCH   3  40
TORSDOF 14
ENDMDL
MODEL 2
REMARK VINA RESULT: -8.993275015      3.926      7.394
REMARK  14 active torsions:
REMARK  status: ('A' for Active; 'I' for Inactive)
REMARK       I    between atoms: C1_2  and  N2_4 
REMARK    1  A    between atoms: N2_4  and  N3_6 
REMARK       I    between atoms: N3_6  and  C2_8 
REMARK       I    between atoms: C2_8  and  N4_10 
REMARK    2  A    between atoms: N4_10  and  N5_12 
REMARK    3  A    between atoms: N5_12  and  C3_13 
REMARK    4  A    between atoms: C3_13  and  O3_14 
REMARK    5  A    between atoms: C3_13  and  O4_16 
REMARK    6  A    between atoms: O4_16  and  C4_17 
REMARK    7  A    between atoms: C4_17  and  C5_18 
REMARK    8  A    between atoms: C6_20  and  N6_21 
REMARK    9  A    between atoms: N10_30  and  O6_31 
REMARK   10  A    between atoms: C11_38  and  O8_39 
REMARK   11  A    between atoms: C11_38  and  S1_41 
REMARK   12  A    between atoms: S1_41  and  C12_42 
REMARK   13  A    between atoms: C12_42  and  C13_43 
REMARK   14  A    between atoms: C14_49  and  C15_50 
ROOT
HETATM    1  C5  UNL     1       2.864  19.884  12.071  1.00  0.00     0.204 C 
HETATM    2  O5  UNL     1       2.322  20.065  10.842  1.00  0.00    -0.337 OA
HETATM    3  C6  UNL     1       2.443  19.118   9.889  1.00  0.00     0.341 C 
HETATM    4  N11 UNL     1       3.541  18.195  10.074  1.00  0.00    -0.314 N 
ATOM      5  H11 UNL     1       3.535  17.284   9.614  1.00  0.00     0.167 HD
HETATM    6  C10 UNL     1       4.619  18.570  10.896  1.00  0.00     0.269 C 
HETATM    7  O7  UNL     1       5.823  18.283  10.630  1.00  0.00    -0.269 OA
HETATM    8  C11 UNL     1       4.258  19.352  12.142  1.00  0.00     0.216 C 
ENDROOT
BRANCH   1   9
HETATM    9  C4  UNL     1       2.897  21.274  12.726  1.00  0.00     0.209 C 
BRANCH   9  10
HETATM   10  O4  UNL     1       3.024  21.157  14.106  1.00  0.00    -0.344 OA
BRANCH  10  11
HETATM   11  C3  UNL     1       2.147  22.088  14.678  1.00  0.00     0.378 C 
BRANCH  11  12
HETATM   12  N5  UNL     1       1.731  21.614  15.980  1.00  0.00    -0.077 NA
BRANCH  12  13
HETATM   13  N4  UNL     1       1.954  20.271  16.178  1.00  0.00    -0.250 N 
HETATM   14  C2  UNL     1       0.960  19.335  15.818  1.00  0.00     0.350 C 
HETATM   15  N3  UNL     1       1.217  17.940  16.032  1.00  0.00    -0.247 N 
HETATM   16  O2  UNL     1      -0.116  19.705  15.327  1.00  0.00    -0.244 OA
ATOM     17  H3  UNL     1       2.107  17.650  16.436  1.00  0.00     0.192 HD
ATOM     18  H4  UNL     1       2.834  19.953  16.583  1.00  0.00     0.187 HD
BRANCH  15  19
HETATM   19  N2  UNL     1       0.267  16.977  15.694  1.00  0.00    -0.250 N 
HETATM   20  C1  UNL     1      -0.082  15.934  16.609  1.00  0.00     0.347 C 
HETATM   21  N1  UNL     1      -1.047  14.956  16.265  1.00  0.00    -0.038 NA
HETATM   22  O1  UNL     1       0.489  15.905  17.733  1.00  0.00    -0.249 OA
ATOM     23  H2  UNL     1      -0.185  17.017  14.781  1.00  0.00     0.191 HD
ENDBRANCH  15  19
ENDBRANCH  12  13
ENDBRANCH  11  12
BRANCH  11  24
HETATM   24  O3  UNL     1       0.990  22.220  13.890  1.00  0.00    -0.357 OA
ATOM     25  H3  UNL     1       1.177  21.830  13.044  1.00  0.00     0.214 HD
ENDBRANCH  11  24
ENDBRANCH  10  11
ENDBRANCH   9  10
ENDBRANCH   1   9
BRANCH   8  26
HETATM   26  O8  UNL     1       5.213  20.353  12.256  1.00  0.00    -0.369 OA
ATOM     27  H8  UNL     1       5.935  20.111  12.823  1.00  0.00     0.212 HD
ENDBRANCH   8  26
BRANCH   8  28
HETATM   28  S1  UNL     1       4.433  18.193  13.506  1.00  0.00    -0.113 SA
BRANCH  28  29
HETATM   29  C12 UNL     1       6.004  18.278  14.358  1.00  0.00     0.139 C 
BRANCH  29  30
HETATM   30  C13 UNL     1       6.974  17.226  13.961  1.00  0.00     0.073 A 
HETATM   31  N12 UNL     1       6.794  15.888  13.857  1.00  0.00    -0.243 N 
HETATM   32  O9  UNL     1       7.907  15.361  13.502  1.00  0.00    -0.157 OA
ATOM     33  H12 UNL     1       5.924  15.386  14.032  1.00  0.00     0.196 HD
HETATM   34  N13 UNL     1       8.829  16.264  13.359  1.00  0.00    -0.238 N 
HETATM   35  C14 UNL     1       8.290  17.478  13.639  1.00  0.00     0.123 A 
ATOM     36  H13 UNL     1       9.796  16.091  13.083  1.00  0.00     0.196 HD
BRANCH  35  37
HETATM   37  C15 UNL     1       9.005  18.781  13.593  1.00  0.00     0.407 C 
HETATM   38  F1  UNL     1       9.974  18.845  12.631  1.00  0.00    -0.207 F 
HETATM   39  F2  UNL     1       9.561  19.137  14.798  1.00  0.00    -0.207 F 
ENDBRANCH  35  37
ENDBRANCH  29  30
ENDBRANCH  28  29
ENDBRANCH   8  28
BRANCH   3  40
HETATM   40  N6  UNL     1       1.236  18.405   9.560  1.00  0.00    -0.278 N 
HETATM   41  C7  UNL     1       0.116  18.169  10.261  1.00  0.00     0.191 A 
HETATM   42  N7  UNL     1      -0.744  17.448   9.520  1.00  0.00    -0.334 N 
HETATM   43  C8  UNL     1      -0.188  17.212   8.339  1.00  0.00     0.171 A 
ATOM     44  H7  UNL     1      -1.669  17.134   9.817  1.00  0.00     0.168 HD
HETATM   45  N8  UNL     1      -0.297  16.642   7.114  1.00  0.00    -0.266 N 
HETATM   46  C9  UNL     1       1.045  17.805   8.356  1.00  0.00     0.205 A 
HETATM   47  N9  UNL     1       0.798  16.869   6.418  1.00  0.00    -0.213 N 
ATOM     48  H8  UNL     1      -1.106  16.117   6.781  1.00  0.00     0.190 HD
HETATM   49  N10 UNL     1       1.638  17.576   7.148  1.00  0.00    -0.127 N 
ATOM     50  H9  UNL     1       0.970  16.548   5.465  1.00  0.00     0.211 HD
BRANCH  49  51
HETATM   51  O6  UNL     1       2.895  18.011   6.762  1.00  0.00    -0.265 OA
ATOM     52  H6  UNL     1       3.091  18.801   6.272  1.00  0.00     0.247 HD
ENDBRANCH  49  51
ENDBRANCH   3  40
TORSDOF 14
ENDMDL
MODEL 3
REMARK VINA RESULT: -8.972451191      4.009      7.690
REMARK  14 active torsions:
REMARK  status: ('A' for Active; 'I' for Inactive)
REMARK       I    between atoms: C1_2  and  N2_4 
REMARK    1  A    between atoms: N2_4  and  N3_6 
REMARK       I    between atoms: N3_6  and  C2_8 
REMARK       I    between atoms: C2_8  and  N4_10 
REMARK    2  A    between atoms: N4_10  and  N5_12 
REMARK    3  A    between atoms: N5_12  and  C3_13 
REMARK    4  A    between atoms: C3_13  and  O3_14 
REMARK    5  A    between atoms: C3_13  and  O4_16 
REMARK    6  A    between atoms: O4_16  and  C4_17 
REMARK    7  A    between atoms: C4_17  and  C5_18 
REMARK    8  A    between atoms: C6_20  and  N6_21 
REMARK    9  A    between atoms: N10_30  and  O6_31 
REMARK   10  A    between atoms: C11_38  and  O8_39 
REMARK   11  A    between atoms: C11_38  and  S1_41 
REMARK   12  A    between atoms: S1_41  and  C12_42 
REMARK   13  A    between atoms: C12_42  and  C13_43 
REMARK   14  A    between atoms: C14_49  and  C15_50 
ROOT
HETATM    1  C5  UNL     1       3.042  19.812  12.016  1.00  0.00     0.204 C 
HETATM    2  O5  UNL     1       2.442  20.029  10.820  1.00  0.00    -0.337 OA
HETATM    3  C6  UNL     1       2.515  19.109   9.836  1.00  0.00     0.341 C 
HETATM    4  N11 UNL     1       3.619  18.181   9.940  1.00  0.00    -0.314 N 
ATOM      5  H11 UNL     1       3.589  17.284   9.455  1.00  0.00     0.167 HD
HETATM    6  C10 UNL     1       4.736  18.533  10.720  1.00  0.00     0.269 C 
HETATM    7  O7  UNL     1       5.925  18.253  10.388  1.00  0.00    -0.269 OA
HETATM    8  C11 UNL     1       4.437  19.278  12.004  1.00  0.00     0.216 C 
ENDROOT
BRANCH   1   9
HETATM    9  C4  UNL     1       3.109  21.183  12.708  1.00  0.00     0.209 C 
BRANCH   9  10
HETATM   10  O4  UNL     1       3.148  21.027  14.090  1.00  0.00    -0.344 OA
BRANCH  10  11
HETATM   11  C3  UNL     1       2.314  22.011  14.636  1.00  0.00     0.378 C 
BRANCH  11  12
HETATM   12  N5  UNL     1       1.844  21.573  15.932  1.00  0.00    -0.077 NA
BRANCH  12  13
HETATM   13  N4  UNL     1       2.015  20.226  16.157  1.00  0.00    -0.250 N 
HETATM   14  C2  UNL     1       0.987  19.322  15.812  1.00  0.00     0.350 C 
HETATM   15  N3  UNL     1       1.190  17.924  16.054  1.00  0.00    -0.247 N 
HETATM   16  O2  UNL     1      -0.073  19.724  15.309  1.00  0.00    -0.244 OA
ATOM     17  H3  UNL     1       2.066  17.607  16.467  1.00  0.00     0.192 HD
ATOM     18  H4  UNL     1       2.881  19.883  16.572  1.00  0.00     0.187 HD
BRANCH  15  19
HETATM   19  N2  UNL     1       0.205  16.991  15.731  1.00  0.00    -0.250 N 
HETATM   20  C1  UNL     1      -0.134  15.934  16.634  1.00  0.00     0.347 C 
HETATM   21  N1  UNL     1      -1.134  14.987  16.306  1.00  0.00    -0.038 NA
HETATM   22  O1  UNL     1       0.480  15.864  17.733  1.00  0.00    -0.249 OA
ATOM     23  H2  UNL     1      -0.281  17.063  14.837  1.00  0.00     0.191 HD
ENDBRANCH  15  19
ENDBRANCH  12  13
ENDBRANCH  11  12
BRANCH  11  24
HETATM   24  O3  UNL     1       1.183  22.202  13.822  1.00  0.00    -0.357 OA
ATOM     25  H3  UNL     1       1.491  22.317  12.931  1.00  0.00     0.214 HD
ENDBRANCH  11  24
ENDBRANCH  10  11
ENDBRANCH   9  10
ENDBRANCH   1   9
BRANCH   8  26
HETATM   26  O8  UNL     1       5.398  20.275  12.101  1.00  0.00    -0.369 OA
ATOM     27  H8  UNL     1       6.211  20.048  11.665  1.00  0.00     0.212 HD
ENDBRANCH   8  26
BRANCH   8  28
HETATM   28  S1  UNL     1       4.676  18.081  13.324  1.00  0.00    -0.113 SA
BRANCH  28  29
HETATM   29  C12 UNL     1       6.018  18.464  14.444  1.00  0.00     0.139 C 
BRANCH  29  30
HETATM   30  C13 UNL     1       5.614  19.252  15.637  1.00  0.00     0.073 A 
HETATM   31  N12 UNL     1       5.521  20.593  15.788  1.00  0.00    -0.243 N 
HETATM   32  O9  UNL     1       5.154  20.836  16.991  1.00  0.00    -0.157 OA
ATOM     33  H12 UNL     1       5.709  21.291  15.068  1.00  0.00     0.196 HD
HETATM   34  N13 UNL     1       4.994  19.737  17.664  1.00  0.00    -0.238 N 
HETATM   35  C14 UNL     1       5.274  18.689  16.848  1.00  0.00     0.123 A 
ATOM     36  H13 UNL     1       4.707  19.671  18.640  1.00  0.00     0.196 HD
BRANCH  35  37
HETATM   37  C15 UNL     1       5.211  17.251  17.223  1.00  0.00     0.407 C 
HETATM   38  F1  UNL     1       3.982  16.685  17.032  1.00  0.00    -0.207 F 
HETATM   39  F2  UNL     1       5.607  17.011  18.517  1.00  0.00    -0.207 F 
ENDBRANCH  35  37
ENDBRANCH  29  30
ENDBRANCH  28  29
ENDBRANCH   8  28
BRANCH   3  40
HETATM   40  N6  UNL     1       1.292  18.406   9.545  1.00  0.00    -0.278 N 
HETATM   41  C7  UNL     1       0.189  18.189  10.278  1.00  0.00     0.191 A 
HETATM   42  N7  UNL     1      -0.698  17.470   9.566  1.00  0.00    -0.334 N 
HETATM   43  C8  UNL     1      -0.176  17.219   8.373  1.00  0.00     0.171 A 
ATOM     44  H7  UNL     1      -1.618  17.168   9.890  1.00  0.00     0.168 HD
HETATM   45  N8  UNL     1      -0.324  16.641   7.155  1.00  0.00    -0.266 N 
HETATM   46  C9  UNL     1       1.062  17.799   8.352  1.00  0.00     0.205 A 
HETATM   47  N9  UNL     1       0.754  16.850   6.428  1.00  0.00    -0.213 N 
ATOM     48  H8  UNL     1      -1.147  16.121   6.849  1.00  0.00     0.190 HD
HETATM   49  N10 UNL     1       1.620  17.554   7.130  1.00  0.00    -0.127 N 
ATOM     50  H9  UNL     1       0.897  16.520   5.474  1.00  0.00     0.211 HD
BRANCH  49  51
HETATM   51  O6  UNL     1       2.872  17.973   6.707  1.00  0.00    -0.265 OA
ATOM     52  H6  UNL     1       3.217  18.856   6.763  1.00  0.00     0.247 HD
ENDBRANCH  49  51
ENDBRANCH   3  40
TORSDOF 14
ENDMDL
MODEL 4
REMARK VINA RESULT: -8.856082943      4.308      8.272
REMARK  14 active torsions:
REMARK  status: ('A' for Active; 'I' for Inactive)
REMARK       I    between atoms: C1_2  and  N2_4 
REMARK    1  A    between atoms: N2_4  and  N3_6 
REMARK       I    between atoms: N3_6  and  C2_8 
REMARK       I    between atoms: C2_8  and  N4_10 
REMARK    2  A    between atoms: N4_10  and  N5_12 
REMARK    3  A    between atoms: N5_12  and  C3_13 
REMARK    4  A    between atoms: C3_13  and  O3_14 
REMARK    5  A    between atoms: C3_13  and  O4_16 
REMARK    6  A    between atoms: O4_16  and  C4_17 
REMARK    7  A    between atoms: C4_17  and  C5_18 
REMARK    8  A    between atoms: C6_20  and  N6_21 
REMARK    9  A    between atoms: N10_30  and  O6_31 
REMARK   10  A    between atoms: C11_38  and  O8_39 
REMARK   11  A    between atoms: C11_38  and  S1_41 
REMARK   12  A    between atoms: S1_41  and  C12_42 
REMARK   13  A    between atoms: C12_42  and  C13_43 
REMARK   14  A    between atoms: C14_49  and  C15_50 
ROOT
HETATM    1  C5  UNL     1       3.399  20.020  11.666  1.00  0.00     0.204 C 
HETATM    2  O5  UNL     1       3.105  18.919  10.932  1.00  0.00    -0.337 OA
HETATM    3  C6  UNL     1       1.854  18.416  10.915  1.00  0.00     0.341 C 
HETATM    4  N11 UNL     1       1.027  18.781  12.045  1.00  0.00    -0.314 N 
ATOM      5  H11 UNL     1       0.011  18.728  11.981  1.00  0.00     0.167 HD
HETATM    6  C10 UNL     1       1.645  19.210  13.233  1.00  0.00     0.269 C 
HETATM    7  O7  UNL     1       1.219  18.899  14.384  1.00  0.00    -0.269 OA
HETATM    8  C11 UNL     1       2.872  20.082  13.063  1.00  0.00     0.216 C 
ENDROOT
BRANCH   1   9
HETATM    9  C4  UNL     1       4.931  20.054  11.779  1.00  0.00     0.209 C 
BRANCH   9  10
HETATM   10  O4  UNL     1       5.468  18.809  11.468  1.00  0.00    -0.344 OA
BRANCH  10  11
HETATM   11  C3  UNL     1       6.817  18.841  11.845  1.00  0.00     0.378 C 
BRANCH  11  12
HETATM   12  N5  UNL     1       6.909  18.858  13.288  1.00  0.00    -0.077 NA
BRANCH  12  13
HETATM   13  N4  UNL     1       6.314  17.775  13.894  1.00  0.00    -0.250 N 
HETATM   14  C2  UNL     1       5.941  17.849  15.254  1.00  0.00     0.350 C 
HETATM   15  N3  UNL     1       5.321  16.708  15.861  1.00  0.00    -0.247 N 
HETATM   16  O2  UNL     1       6.142  18.879  15.914  1.00  0.00    -0.244 OA
ATOM     17  H3  UNL     1       5.161  15.868  15.306  1.00  0.00     0.192 HD
ATOM     18  H4  UNL     1       6.145  16.921  13.363  1.00  0.00     0.187 HD
BRANCH  15  19
HETATM   19  N2  UNL     1       4.934  16.732  17.201  1.00  0.00    -0.250 N 
HETATM   20  C1  UNL     1       3.600  17.086  17.577  1.00  0.00     0.347 C 
HETATM   21  N1  UNL     1       3.208  17.110  18.938  1.00  0.00    -0.038 NA
HETATM   22  O1  UNL     1       2.777  17.378  16.667  1.00  0.00    -0.249 OA
ATOM     23  H2  UNL     1       5.613  16.492  17.924  1.00  0.00     0.191 HD
ENDBRANCH  15  19
ENDBRANCH  12  13
ENDBRANCH  11  12
BRANCH  11  24
HETATM   24  O3  UNL     1       7.431  20.013  11.371  1.00  0.00    -0.357 OA
ATOM     25  H3  UNL     1       7.129  20.153  10.482  1.00  0.00     0.214 HD
ENDBRANCH  11  24
ENDBRANCH  10  11
ENDBRANCH   9  10
ENDBRANCH   1   9
BRANCH   8  26
HETATM   26  O8  UNL     1       3.789  19.641  14.006  1.00  0.00    -0.369 OA
ATOM     27  H8  UNL     1       3.530  18.827  14.421  1.00  0.00     0.212 HD
ENDBRANCH   8  26
BRANCH   8  28
HETATM   28  S1  UNL     1       2.339  21.750  13.474  1.00  0.00    -0.113 SA
BRANCH  28  29
HETATM   29  C12 UNL     1       1.293  21.862  14.921  1.00  0.00     0.139 C 
BRANCH  29  30
HETATM   30  C13 UNL     1       2.000  21.638  16.207  1.00  0.00     0.073 A 
HETATM   31  N12 UNL     1       2.656  20.538  16.645  1.00  0.00    -0.243 N 
HETATM   32  O9  UNL     1       3.098  20.780  17.824  1.00  0.00    -0.157 OA
ATOM     33  H12 UNL     1       2.777  19.668  16.128  1.00  0.00     0.196 HD
HETATM   34  N13 UNL     1       2.780  21.978  18.208  1.00  0.00    -0.238 N 
HETATM   35  C14 UNL     1       2.076  22.576  17.214  1.00  0.00     0.123 A 
ATOM     36  H13 UNL     1       3.018  22.399  19.106  1.00  0.00     0.196 HD
BRANCH  35  37
HETATM   37  C15 UNL     1       1.525  23.957  17.245  1.00  0.00     0.407 C 
HETATM   38  F1  UNL     1       2.481  24.932  17.286  1.00  0.00    -0.207 F 
HETATM   39  F2  UNL     1       0.643  24.165  18.279  1.00  0.00    -0.207 F 
ENDBRANCH  35  37
ENDBRANCH  29  30
ENDBRANCH  28  29
ENDBRANCH   8  28
BRANCH   3  40
HETATM   40  N6  UNL     1       1.127  18.586   9.684  1.00  0.00    -0.278 N 
HETATM   41  C7  UNL     1      -0.188  18.637   9.421  1.00  0.00     0.191 A 
HETATM   42  N7  UNL     1      -0.384  18.812   8.102  1.00  0.00    -0.334 N 
HETATM   43  C8  UNL     1       0.799  18.876   7.505  1.00  0.00     0.171 A 
ATOM     44  H7  UNL     1      -1.291  18.884   7.638  1.00  0.00     0.168 HD
HETATM   45  N8  UNL     1       1.493  19.019   6.350  1.00  0.00    -0.266 N 
HETATM   46  C9  UNL     1       1.744  18.736   8.484  1.00  0.00     0.205 A 
HETATM   47  N9  UNL     1       2.786  18.971   6.598  1.00  0.00    -0.213 N 
ATOM     48  H8  UNL     1       1.078  19.145   5.427  1.00  0.00     0.190 HD
HETATM   49  N10 UNL     1       2.973  18.799   7.892  1.00  0.00    -0.127 N 
ATOM     50  H9  UNL     1       3.526  19.054   5.901  1.00  0.00     0.211 HD
BRANCH  49  51
HETATM   51  O6  UNL     1       4.195  18.700   8.538  1.00  0.00    -0.265 OA
ATOM     52  H6  UNL     1       5.004  18.375   8.162  1.00  0.00     0.247 HD
ENDBRANCH  49  51
ENDBRANCH   3  40
TORSDOF 14
ENDMDL
MODEL 5
REMARK VINA RESULT: -8.831255846      3.629      6.056
REMARK  14 active torsions:
REMARK  status: ('A' for Active; 'I' for Inactive)
REMARK       I    between atoms: C1_2  and  N2_4 
REMARK    1  A    between atoms: N2_4  and  N3_6 
REMARK       I    between atoms: N3_6  and  C2_8 
REMARK       I    between atoms: C2_8  and  N4_10 
REMARK    2  A    between atoms: N4_10  and  N5_12 
REMARK    3  A    between atoms: N5_12  and  C3_13 
REMARK    4  A    between atoms: C3_13  and  O3_14 
REMARK    5  A    between atoms: C3_13  and  O4_16 
REMARK    6  A    between atoms: O4_16  and  C4_17 
REMARK    7  A    between atoms: C4_17  and  C5_18 
REMARK    8  A    between atoms: C6_20  and  N6_21 
REMARK    9  A    between atoms: N10_30  and  O6_31 
REMARK   10  A    between atoms: C11_38  and  O8_39 
REMARK   11  A    between atoms: C11_38  and  S1_41 
REMARK   12  A    between atoms: S1_41  and  C12_42 
REMARK   13  A    between atoms: C12_42  and  C13_43 
REMARK   14  A    between atoms: C14_49  and  C15_50 
ROOT
HETATM    1  C5  UNL     1       2.963  20.458  13.931  1.00  0.00     0.204 C 
HETATM    2  O5  UNL     1       2.654  21.749  14.204  1.00  0.00    -0.337 OA
HETATM    3  C6  UNL     1       2.134  22.095  15.400  1.00  0.00     0.341 C 
HETATM    4  N11 UNL     1       1.492  21.021  16.127  1.00  0.00    -0.314 N 
ATOM      5  H11 UNL     1       1.357  21.088  17.136  1.00  0.00     0.167 HD
HETATM    6  C10 UNL     1       1.057  19.885  15.423  1.00  0.00     0.269 C 
HETATM    7  O7  UNL     1      -0.021  19.277  15.691  1.00  0.00    -0.269 OA
HETATM    8  C11 UNL     1       1.963  19.412  14.305  1.00  0.00     0.216 C 
ENDROOT
BRANCH   1   9
HETATM    9  C4  UNL     1       3.123  20.377  12.405  1.00  0.00     0.209 C 
BRANCH   9  10
HETATM   10  O4  UNL     1       4.436  20.058  12.071  1.00  0.00    -0.344 OA
BRANCH  10  11
HETATM   11  C3  UNL     1       4.378  18.999  11.156  1.00  0.00     0.378 C 
BRANCH  11  12
HETATM   12  N5  UNL     1       3.458  17.995  11.645  1.00  0.00    -0.077 NA
BRANCH  12  13
HETATM   13  N4  UNL     1       3.021  17.125  10.672  1.00  0.00    -0.250 N 
HETATM   14  C2  UNL     1       1.763  17.327  10.065  1.00  0.00     0.350 C 
HETATM   15  N3  UNL     1       1.330  16.408   9.053  1.00  0.00    -0.247 N 
HETATM   16  O2  UNL     1       1.041  18.280  10.396  1.00  0.00    -0.244 OA
ATOM     17  H3  UNL     1       1.934  15.630   8.790  1.00  0.00     0.192 HD
ATOM     18  H4  UNL     1       3.604  16.336  10.392  1.00  0.00     0.187 HD
BRANCH  15  19
HETATM   19  N2  UNL     1       0.096  16.565   8.423  1.00  0.00    -0.250 N 
HETATM   20  C1  UNL     1      -0.005  17.202   7.147  1.00  0.00     0.347 C 
HETATM   21  N1  UNL     1      -1.258  17.361   6.508  1.00  0.00    -0.038 NA
HETATM   22  O1  UNL     1       1.051  17.622   6.600  1.00  0.00    -0.249 OA
ATOM     23  H2  UNL     1      -0.748  16.218   8.880  1.00  0.00     0.191 HD
ENDBRANCH  15  19
ENDBRANCH  12  13
ENDBRANCH  11  12
BRANCH  11  24
HETATM   24  O3  UNL     1       5.638  18.389  11.032  1.00  0.00    -0.357 OA
ATOM     25  H3  UNL     1       6.047  18.738  10.249  1.00  0.00     0.214 HD
ENDBRANCH  11  24
ENDBRANCH  10  11
ENDBRANCH   9  10
ENDBRANCH   1   9
BRANCH   8  26
HETATM   26  O8  UNL     1       1.126  19.066  13.254  1.00  0.00    -0.369 OA
ATOM     27  H8  UNL     1       0.909  18.141  13.244  1.00  0.00     0.212 HD
ENDBRANCH   8  26
BRANCH   8  28
HETATM   28  S1  UNL     1       2.781  17.940  14.935  1.00  0.00    -0.113 SA
BRANCH  28  29
HETATM   29  C12 UNL     1       4.353  18.245  15.733  1.00  0.00     0.139 C 
BRANCH  29  30
HETATM   30  C13 UNL     1       5.524  18.181  14.821  1.00  0.00     0.073 A 
HETATM   31  N12 UNL     1       6.209  19.189  14.233  1.00  0.00    -0.243 N 
HETATM   32  O9  UNL     1       7.135  18.675  13.511  1.00  0.00    -0.157 OA
ATOM     33  H12 UNL     1       6.022  20.186  14.345  1.00  0.00     0.196 HD
HETATM   34  N13 UNL     1       7.116  17.379  13.576  1.00  0.00    -0.238 N 
HETATM   35  C14 UNL     1       6.105  17.004  14.401  1.00  0.00     0.123 A 
ATOM     36  H13 UNL     1       7.752  16.747  13.090  1.00  0.00     0.196 HD
BRANCH  35  37
HETATM   37  C15 UNL     1       5.740  15.606  14.754  1.00  0.00     0.407 C 
HETATM   38  F1  UNL     1       4.632  15.144  14.100  1.00  0.00    -0.207 F 
HETATM   39  F2  UNL     1       5.561  15.417  16.104  1.00  0.00    -0.207 F 
ENDBRANCH  35  37
ENDBRANCH  29  30
ENDBRANCH  28  29
ENDBRANCH   8  28
BRANCH   3  40
HETATM   40  N6  UNL     1       3.007  22.840  16.270  1.00  0.00    -0.278 N 
HETATM   41  C7  UNL     1       4.346  22.905  16.351  1.00  0.00     0.191 A 
HETATM   42  N7  UNL     1       4.703  23.751  17.335  1.00  0.00    -0.334 N 
HETATM   43  C8  UNL     1       3.601  24.236  17.893  1.00  0.00     0.171 A 
ATOM     44  H7  UNL     1       5.659  23.981  17.606  1.00  0.00     0.168 HD
HETATM   45  N8  UNL     1       3.054  25.047  18.832  1.00  0.00    -0.266 N 
HETATM   46  C9  UNL     1       2.543  23.674  17.236  1.00  0.00     0.205 A 
HETATM   47  N9  UNL     1       1.740  24.989  18.759  1.00  0.00    -0.213 N 
ATOM     48  H8  UNL     1       3.581  25.616  19.496  1.00  0.00     0.190 HD
HETATM   49  N10 UNL     1       1.395  24.159  17.794  1.00  0.00    -0.127 N 
ATOM     50  H9  UNL     1       1.092  25.505  19.355  1.00  0.00     0.211 HD
BRANCH  49  51
HETATM   51  O6  UNL     1       0.103  23.837  17.413  1.00  0.00    -0.265 OA
ATOM     52  H6  UNL     1      -0.343  24.136  16.630  1.00  0.00     0.247 HD
ENDBRANCH  49  51
ENDBRANCH   3  40
TORSDOF 14
ENDMDL
