MODEL 1
REMARK VINA RESULT: -9.194226403      0.000      0.000
REMARK  18 active torsions:
REMARK  status: ('A' for Active; 'I' for Inactive)
REMARK    1  A    between atoms: C1_2  and  C2_4 
REMARK    2  A    between atoms: C8_20  and  C9_21 
REMARK    3  A    between atoms: C11_23  and  O2_24 
REMARK    4  A    between atoms: C11_23  and  N7_26 
REMARK    5  A    between atoms: N7_26  and  C12_28 
REMARK    6  A    between atoms: C12_28  and  C13_29 
REMARK    7  A    between atoms: C12_28  and  C14_32 
REMARK    8  A    between atoms: C13_29  and  O3_30 
REMARK    9  A    between atoms: C14_32  and  O4_33 
REMARK   10  A    between atoms: C15_38  and  C16_39 
REMARK   11  A    between atoms: C16_39  and  C17_40 
REMARK   12  A    between atoms: C16_39  and  C18_43 
REMARK   13  A    between atoms: C17_40  and  O6_41 
REMARK   14  A    between atoms: C18_43  and  O7_44 
REMARK   15  A    between atoms: C19_46  and  O8_47 
REMARK   16  A    between atoms: C19_46  and  C20_49 
REMARK   17  A    between atoms: C21_50  and  N9_51 
REMARK   18  A    between atoms: N9_51  and  O9_53 
ROOT
HETATM    1  C2  UNL     1       3.539  18.269  19.437  1.00  0.00     0.174 A 
HETATM    2  N2  UNL     1       4.835  18.519  19.068  1.00  0.00    -0.314 N 
ATOM      3  H2  UNL     1       5.580  18.543  19.763  1.00  0.00     0.170 HD
HETATM    4  C3  UNL     1       5.100  18.731  17.768  1.00  0.00     0.203 A 
HETATM    5  F1  UNL     1       6.393  18.978  17.420  1.00  0.00    -0.185 F 
HETATM    6  C4  UNL     1       4.100  18.694  16.841  1.00  0.00     0.081 A 
HETATM    7  C5  UNL     1       2.798  18.451  17.207  1.00  0.00     0.095 A 
HETATM    8  N3  UNL     1       2.581  18.243  18.518  1.00  0.00    -0.334 N 
ATOM      9  H3  UNL     1       1.625  18.054  18.823  1.00  0.00     0.168 HD
HETATM   10  C6  UNL     1       1.789  18.579  16.175  1.00  0.00     0.156 A 
HETATM   11  N4  UNL     1       0.456  18.357  16.291  1.00  0.00    -0.334 N 
ATOM     12  H4  UNL     1      -0.032  18.075  17.141  1.00  0.00     0.168 HD
HETATM   13  C7  UNL     1      -0.106  18.570  15.096  1.00  0.00     0.199 A 
HETATM   14  N5  UNL     1       0.887  18.911  14.289  1.00  0.00    -0.288 N 
ATOM     15  H5  UNL     1       0.770  19.135  13.301  1.00  0.00     0.188 HD
HETATM   16  N6  UNL     1       2.045  18.924  14.917  1.00  0.00    -0.235 N 
HETATM   17  C8  UNL     1       3.420  19.245  14.474  1.00  0.00     0.103 C 
HETATM   18  C19 UNL     1       4.449  18.816  15.428  1.00  0.00     0.203 C 
ENDROOT
BRANCH  17  19
HETATM   19  C9  UNL     1       3.573  20.488  13.744  1.00  0.00     0.062 A 
HETATM   20  C10 UNL     1       3.067  21.739  14.078  1.00  0.00     0.120 A 
HETATM   21  C11 UNL     1       2.286  22.237  15.166  1.00  0.00     0.166 C 
HETATM   22  N8  UNL     1       3.358  22.594  13.010  1.00  0.00    -0.256 N 
HETATM   23  O5  UNL     1       3.973  21.923  12.133  1.00  0.00    -0.236 OA
ATOM     24  H8  UNL     1       3.117  23.584  12.950  1.00  0.00     0.195 HD
HETATM   25  C15 UNL     1       4.155  20.652  12.477  1.00  0.00     0.120 A 
BRANCH  21  26
HETATM   26  O2  UNL     1       1.101  21.565  15.490  1.00  0.00    -0.345 OA
ATOM     27  H2  UNL     1       0.326  22.085  15.668  1.00  0.00     0.219 HD
ENDBRANCH  21  26
BRANCH  21  28
HETATM   28  N7  UNL     1       2.911  22.672  16.386  1.00  0.00    -0.360 N 
ATOM     29  H7  UNL     1       3.866  23.031  16.364  1.00  0.00     0.162 HD
BRANCH  28  30
HETATM   30  C12 UNL     1       2.229  22.608  17.595  1.00  0.00     0.130 C 
BRANCH  30  31
HETATM   31  C13 UNL     1       1.828  24.019  18.042  1.00  0.00     0.191 C 
BRANCH  31  32
HETATM   32  O3  UNL     1       0.646  23.997  18.777  1.00  0.00    -0.399 OA
ATOM     33  H3  UNL     1       0.179  24.820  18.700  1.00  0.00     0.209 HD
ENDBRANCH  31  32
ENDBRANCH  30  31
BRANCH  30  34
HETATM   34  C14 UNL     1       3.203  22.094  18.687  1.00  0.00     0.191 C 
BRANCH  34  35
HETATM   35  O4  UNL     1       2.574  21.835  19.867  1.00  0.00    -0.399 OA
ATOM     36  H4  UNL     1       2.922  22.350  20.585  1.00  0.00     0.209 HD
ENDBRANCH  34  35
ENDBRANCH  30  34
ENDBRANCH  28  30
ENDBRANCH  21  28
BRANCH  25  37
HETATM   37  C16 UNL     1       4.874  19.697  11.646  1.00  0.00     0.003 C 
BRANCH  37  38
HETATM   38  C17 UNL     1       3.924  18.912  10.728  1.00  0.00     0.203 C 
BRANCH  38  39
HETATM   39  O6  UNL     1       4.655  18.016   9.992  1.00  0.00    -0.396 OA
ATOM     40  H6  UNL     1       4.061  17.486   9.472  1.00  0.00     0.209 HD
ENDBRANCH  38  39
ENDBRANCH  37  38
BRANCH  37  41
HETATM   41  C18 UNL     1       6.190  19.154  11.886  1.00  0.00     0.203 C 
BRANCH  41  42
HETATM   42  O7  UNL     1       7.126  20.085  11.277  1.00  0.00    -0.396 OA
ATOM     43  H7  UNL     1       7.994  19.772  11.504  1.00  0.00     0.209 HD
ENDBRANCH  41  42
ENDBRANCH  37  41
ENDBRANCH  25  37
ENDBRANCH  17  19
BRANCH  18  44
HETATM   44  O8  UNL     1       5.592  19.584  15.283  1.00  0.00    -0.368 OA
ATOM     45  H8  UNL     1       5.784  19.717  14.361  1.00  0.00     0.212 HD
ENDBRANCH  18  44
BRANCH  18  46
HETATM   46  C20 UNL     1       4.949  17.412  15.130  1.00  0.00    -0.031 C 
HETATM   47  C21 UNL     1       5.346  16.290  14.890  1.00  0.00     0.035 C 
BRANCH  47  48
HETATM   48  N9  UNL     1       5.792  14.983  14.575  1.00  0.00    -0.226 N 
ATOM     49  H9  UNL     1       6.548  14.574  15.123  1.00  0.00     0.204 HD
BRANCH  48  50
HETATM   50  O9  UNL     1       5.243  14.254  13.560  1.00  0.00    -0.282 OA
ATOM     51  H9  UNL     1       5.648  13.458  13.233  1.00  0.00     0.245 HD
ENDBRANCH  48  50
ENDBRANCH  47  48
ENDBRANCH  18  46
BRANCH   1  52
HETATM   52  C1  UNL     1       3.305  18.100  20.843  1.00  0.00     0.298 C 
HETATM   53  N1  UNL     1       3.282  19.274  21.661  1.00  0.00    -0.054 NA
HETATM   54  O1  UNL     1       3.119  16.960  21.334  1.00  0.00    -0.268 OA
ENDBRANCH   1  52
TORSDOF 18
ENDMDL
MODEL 2
REMARK VINA RESULT: -8.983700533      1.247      4.788
REMARK  18 active torsions:
REMARK  status: ('A' for Active; 'I' for Inactive)
REMARK    1  A    between atoms: C1_2  and  C2_4 
REMARK    2  A    between atoms: C8_20  and  C9_21 
REMARK    3  A    between atoms: C11_23  and  O2_24 
REMARK    4  A    between atoms: C11_23  and  N7_26 
REMARK    5  A    between atoms: N7_26  and  C12_28 
REMARK    6  A    between atoms: C12_28  and  C13_29 
REMARK    7  A    between atoms: C12_28  and  C14_32 
REMARK    8  A    between atoms: C13_29  and  O3_30 
REMARK    9  A    between atoms: C14_32  and  O4_33 
REMARK   10  A    between atoms: C15_38  and  C16_39 
REMARK   11  A    between atoms: C16_39  and  C17_40 
REMARK   12  A    between atoms: C16_39  and  C18_43 
REMARK   13  A    between atoms: C17_40  and  O6_41 
REMARK   14  A    between atoms: C18_43  and  O7_44 
REMARK   15  A    between atoms: C19_46  and  O8_47 
REMARK   16  A    between atoms: C19_46  and  C20_49 
REMARK   17  A    between atoms: C21_50  and  N9_51 
REMARK   18  A    between atoms: N9_51  and  O9_53 
ROOT
HETATM    1  C2  UNL     1       3.547  18.242  19.440  1.00  0.00     0.174 A 
HETATM    2  N2  UNL     1       4.825  18.535  19.040  1.00  0.00    -0.314 N 
ATOM      3  H2  UNL     1       5.584  18.588  19.718  1.00  0.00     0.170 HD
HETATM    4  C3  UNL     1       5.053  18.750  17.734  1.00  0.00     0.203 A 
HETATM    5  F1  UNL     1       6.329  19.040  17.355  1.00  0.00    -0.185 F 
HETATM    6  C4  UNL     1       4.034  18.676  16.830  1.00  0.00     0.081 A 
HETATM    7  C5  UNL     1       2.750  18.389  17.227  1.00  0.00     0.095 A 
HETATM    8  N3  UNL     1       2.570  18.179  18.543  1.00  0.00    -0.334 N 
ATOM      9  H3  UNL     1       1.628  17.960  18.870  1.00  0.00     0.168 HD
HETATM   10  C6  UNL     1       1.714  18.479  16.218  1.00  0.00     0.156 A 
HETATM   11  N4  UNL     1       0.393  18.211  16.365  1.00  0.00    -0.334 N 
ATOM     12  H4  UNL     1      -0.067  17.916  17.226  1.00  0.00     0.168 HD
HETATM   13  C7  UNL     1      -0.203  18.401  15.183  1.00  0.00     0.199 A 
HETATM   14  N5  UNL     1       0.759  18.771  14.352  1.00  0.00    -0.288 N 
ATOM     15  H5  UNL     1       0.611  18.988  13.366  1.00  0.00     0.188 HD
HETATM   16  N6  UNL     1       1.930  18.827  14.953  1.00  0.00    -0.235 N 
HETATM   17  C8  UNL     1       3.282  19.192  14.477  1.00  0.00     0.103 C 
HETATM   18  C19 UNL     1       4.346  18.803  15.409  1.00  0.00     0.203 C 
ENDROOT
BRANCH  17  19
HETATM   19  C9  UNL     1       3.376  20.437  13.740  1.00  0.00     0.062 A 
HETATM   20  C10 UNL     1       4.149  20.704  12.616  1.00  0.00     0.120 A 
HETATM   21  C11 UNL     1       5.053  19.930  11.824  1.00  0.00     0.166 C 
HETATM   22  N8  UNL     1       4.014  22.070  12.344  1.00  0.00    -0.256 N 
HETATM   23  O5  UNL     1       3.242  22.563  13.215  1.00  0.00    -0.236 OA
ATOM     24  H8  UNL     1       4.460  22.577  11.579  1.00  0.00     0.195 HD
HETATM   25  C15 UNL     1       2.802  21.668  14.093  1.00  0.00     0.120 A 
BRANCH  21  26
HETATM   26  O2  UNL     1       6.076  19.235  12.481  1.00  0.00    -0.345 OA
ATOM     27  H2  UNL     1       6.319  18.378  12.148  1.00  0.00     0.219 HD
ENDBRANCH  21  26
BRANCH  21  28
HETATM   28  N7  UNL     1       4.575  19.118  10.737  1.00  0.00    -0.360 N 
ATOM     29  H7  UNL     1       5.242  18.605  10.159  1.00  0.00     0.162 HD
BRANCH  28  30
HETATM   30  C12 UNL     1       3.216  19.024  10.466  1.00  0.00     0.130 C 
BRANCH  30  31
HETATM   31  C13 UNL     1       2.668  17.697  11.002  1.00  0.00     0.191 C 
BRANCH  31  32
HETATM   32  O3  UNL     1       3.427  16.620  10.554  1.00  0.00    -0.399 OA
ATOM     33  H3  UNL     1       4.356  16.797  10.636  1.00  0.00     0.209 HD
ENDBRANCH  31  32
ENDBRANCH  30  31
BRANCH  30  34
HETATM   34  C14 UNL     1       3.022  18.956   8.929  1.00  0.00     0.191 C 
BRANCH  34  35
HETATM   35  O4  UNL     1       4.193  18.757   8.262  1.00  0.00    -0.399 OA
ATOM     36  H4  UNL     1       4.394  19.464   7.661  1.00  0.00     0.209 HD
ENDBRANCH  34  35
ENDBRANCH  30  34
ENDBRANCH  28  30
ENDBRANCH  21  28
BRANCH  25  37
HETATM   37  C16 UNL     1       1.869  21.993  15.163  1.00  0.00     0.003 C 
BRANCH  37  38
HETATM   38  C17 UNL     1       0.529  22.509  14.613  1.00  0.00     0.203 C 
BRANCH  38  39
HETATM   39  O6  UNL     1      -0.467  21.644  14.983  1.00  0.00    -0.396 OA
ATOM     40  H6  UNL     1      -1.104  22.112  15.509  1.00  0.00     0.209 HD
ENDBRANCH  38  39
ENDBRANCH  37  38
BRANCH  37  41
HETATM   41  C18 UNL     1       2.191  22.273  16.542  1.00  0.00     0.203 C 
BRANCH  41  42
HETATM   42  O7  UNL     1       1.128  23.136  17.035  1.00  0.00    -0.396 OA
ATOM     43  H7  UNL     1       1.505  24.005  17.103  1.00  0.00     0.209 HD
ENDBRANCH  41  42
ENDBRANCH  37  41
ENDBRANCH  25  37
ENDBRANCH  17  19
BRANCH  18  44
HETATM   44  O8  UNL     1       5.459  19.609  15.235  1.00  0.00    -0.368 OA
ATOM     45  H8  UNL     1       5.224  20.523  15.351  1.00  0.00     0.212 HD
ENDBRANCH  18  44
BRANCH  18  46
HETATM   46  C20 UNL     1       4.888  17.416  15.105  1.00  0.00    -0.031 C 
HETATM   47  C21 UNL     1       5.317  16.307  14.860  1.00  0.00     0.035 C 
BRANCH  47  48
HETATM   48  N9  UNL     1       5.799  15.014  14.539  1.00  0.00    -0.226 N 
ATOM     49  H9  UNL     1       6.592  14.640  15.060  1.00  0.00     0.204 HD
BRANCH  48  50
HETATM   50  O9  UNL     1       5.238  14.253  13.556  1.00  0.00    -0.282 OA
ATOM     51  H9  UNL     1       5.349  14.455  12.634  1.00  0.00     0.245 HD
ENDBRANCH  48  50
ENDBRANCH  47  48
ENDBRANCH  18  46
BRANCH   1  52
HETATM   52  C1  UNL     1       3.352  18.071  20.852  1.00  0.00     0.298 C 
HETATM   53  N1  UNL     1       3.328  19.246  21.668  1.00  0.00    -0.054 NA
HETATM   54  O1  UNL     1       3.198  16.929  21.348  1.00  0.00    -0.268 OA
ENDBRANCH   1  52
TORSDOF 18
ENDMDL
MODEL 3
REMARK VINA RESULT: -8.817315844      1.362      2.013
REMARK  18 active torsions:
REMARK  status: ('A' for Active; 'I' for Inactive)
REMARK    1  A    between atoms: C1_2  and  C2_4 
REMARK    2  A    between atoms: C8_20  and  C9_21 
REMARK    3  A    between atoms: C11_23  and  O2_24 
REMARK    4  A    between atoms: C11_23  and  N7_26 
REMARK    5  A    between atoms: N7_26  and  C12_28 
REMARK    6  A    between atoms: C12_28  and  C13_29 
REMARK    7  A    between atoms: C12_28  and  C14_32 
REMARK    8  A    between atoms: C13_29  and  O3_30 
REMARK    9  A    between atoms: C14_32  and  O4_33 
REMARK   10  A    between atoms: C15_38  and  C16_39 
REMARK   11  A    between atoms: C16_39  and  C17_40 
REMARK   12  A    between atoms: C16_39  and  C18_43 
REMARK   13  A    between atoms: C17_40  and  O6_41 
REMARK   14  A    between atoms: C18_43  and  O7_44 
REMARK   15  A    between atoms: C19_46  and  O8_47 
REMARK   16  A    between atoms: C19_46  and  C20_49 
REMARK   17  A    between atoms: C21_50  and  N9_51 
REMARK   18  A    between atoms: N9_51  and  O9_53 
ROOT
HETATM    1  C2  UNL     1       3.564  18.117  19.442  1.00  0.00     0.174 A 
HETATM    2  N2  UNL     1       4.864  18.319  19.059  1.00  0.00    -0.314 N 
ATOM      3  H2  UNL     1       5.617  18.308  19.746  1.00  0.00     0.170 HD
HETATM    4  C3  UNL     1       5.122  18.533  17.758  1.00  0.00     0.203 A 
HETATM    5  F1  UNL     1       6.420  18.733  17.397  1.00  0.00    -0.185 F 
HETATM    6  C4  UNL     1       4.111  18.544  16.843  1.00  0.00     0.081 A 
HETATM    7  C5  UNL     1       2.805  18.348  17.222  1.00  0.00     0.095 A 
HETATM    8  N3  UNL     1       2.594  18.137  18.533  1.00  0.00    -0.334 N 
ATOM      9  H3  UNL     1       1.636  17.983  18.848  1.00  0.00     0.168 HD
HETATM   10  C6  UNL     1       1.790  18.525  16.203  1.00  0.00     0.156 A 
HETATM   11  N4  UNL     1       0.451  18.354  16.332  1.00  0.00    -0.334 N 
ATOM     12  H4  UNL     1      -0.038  18.084  17.185  1.00  0.00     0.168 HD
HETATM   13  C7  UNL     1      -0.115  18.601  15.147  1.00  0.00     0.199 A 
HETATM   14  N5  UNL     1       0.881  18.910  14.331  1.00  0.00    -0.288 N 
ATOM     15  H5  UNL     1       0.761  19.148  13.346  1.00  0.00     0.188 HD
HETATM   16  N6  UNL     1       2.045  18.872  14.946  1.00  0.00    -0.235 N 
HETATM   17  C8  UNL     1       3.426  19.143  14.489  1.00  0.00     0.103 C 
HETATM   18  C19 UNL     1       4.449  18.666  15.427  1.00  0.00     0.203 C 
ENDROOT
BRANCH  17  19
HETATM   19  C9  UNL     1       3.620  20.386  13.768  1.00  0.00     0.062 A 
HETATM   20  C10 UNL     1       3.300  21.672  14.189  1.00  0.00     0.120 A 
HETATM   21  C11 UNL     1       2.725  22.214  15.379  1.00  0.00     0.166 C 
HETATM   22  N8  UNL     1       3.544  22.526  13.108  1.00  0.00    -0.256 N 
HETATM   23  O5  UNL     1       3.964  21.822  12.146  1.00  0.00    -0.236 OA
ATOM     24  H8  UNL     1       3.407  23.537  13.098  1.00  0.00     0.195 HD
HETATM   25  C15 UNL     1       4.049  20.529  12.440  1.00  0.00     0.120 A 
BRANCH  21  26
HETATM   26  O2  UNL     1       1.525  21.661  15.843  1.00  0.00    -0.345 OA
ATOM     27  H2  UNL     1       0.936  21.273  15.206  1.00  0.00     0.219 HD
ENDBRANCH  21  26
BRANCH  21  28
HETATM   28  N7  UNL     1       3.545  22.540  16.515  1.00  0.00    -0.360 N 
ATOM     29  H7  UNL     1       3.144  22.510  17.453  1.00  0.00     0.162 HD
BRANCH  28  30
HETATM   30  C12 UNL     1       4.877  22.897  16.349  1.00  0.00     0.130 C 
BRANCH  30  31
HETATM   31  C13 UNL     1       5.760  22.066  17.287  1.00  0.00     0.191 C 
BRANCH  31  32
HETATM   32  O3  UNL     1       6.978  21.756  16.690  1.00  0.00    -0.399 OA
ATOM     33  H3  UNL     1       7.042  20.828  16.501  1.00  0.00     0.209 HD
ENDBRANCH  31  32
ENDBRANCH  30  31
BRANCH  30  34
HETATM   34  C14 UNL     1       5.058  24.366  16.811  1.00  0.00     0.191 C 
BRANCH  34  35
HETATM   35  O4  UNL     1       6.255  24.892  16.427  1.00  0.00    -0.399 OA
ATOM     36  H4  UNL     1       6.902  24.223  16.238  1.00  0.00     0.209 HD
ENDBRANCH  34  35
ENDBRANCH  30  34
ENDBRANCH  28  30
ENDBRANCH  21  28
BRANCH  25  37
HETATM   37  C16 UNL     1       4.547  19.530  11.504  1.00  0.00     0.003 C 
BRANCH  37  38
HETATM   38  C17 UNL     1       6.079  19.418  11.551  1.00  0.00     0.203 C 
BRANCH  38  39
HETATM   39  O6  UNL     1       6.424  18.360  12.352  1.00  0.00    -0.396 OA
ATOM     40  H6  UNL     1       7.182  18.600  12.871  1.00  0.00     0.209 HD
ENDBRANCH  38  39
ENDBRANCH  37  38
BRANCH  37  41
HETATM   41  C18 UNL     1       3.862  19.007  10.346  1.00  0.00     0.203 C 
BRANCH  41  42
HETATM   42  O7  UNL     1       4.610  17.829   9.934  1.00  0.00    -0.396 OA
ATOM     43  H7  UNL     1       4.043  17.351   9.341  1.00  0.00     0.209 HD
ENDBRANCH  41  42
ENDBRANCH  37  41
ENDBRANCH  25  37
ENDBRANCH  17  19
BRANCH  18  44
HETATM   44  O8  UNL     1       5.619  19.389  15.276  1.00  0.00    -0.368 OA
ATOM     45  H8  UNL     1       5.617  19.846  14.442  1.00  0.00     0.212 HD
ENDBRANCH  18  44
BRANCH  18  46
HETATM   46  C20 UNL     1       4.890  17.245  15.111  1.00  0.00    -0.031 C 
HETATM   47  C21 UNL     1       5.241  16.112  14.855  1.00  0.00     0.035 C 
BRANCH  47  48
HETATM   48  N9  UNL     1       5.655  14.799  14.519  1.00  0.00    -0.226 N 
ATOM     49  H9  UNL     1       6.389  14.357  15.072  1.00  0.00     0.204 HD
BRANCH  48  50
HETATM   50  O9  UNL     1       5.104  14.108  13.480  1.00  0.00    -0.282 OA
ATOM     51  H9  UNL     1       5.155  13.161  13.418  1.00  0.00     0.245 HD
ENDBRANCH  48  50
ENDBRANCH  47  48
ENDBRANCH  18  46
BRANCH   1  52
HETATM   52  C1  UNL     1       3.340  17.944  20.849  1.00  0.00     0.298 C 
HETATM   53  N1  UNL     1       3.284  19.119  21.664  1.00  0.00    -0.054 NA
HETATM   54  O1  UNL     1       3.189  16.800  21.342  1.00  0.00    -0.268 OA
ENDBRANCH   1  52
TORSDOF 18
ENDMDL
MODEL 4
REMARK VINA RESULT: -8.585660984      2.667      7.322
REMARK  18 active torsions:
REMARK  status: ('A' for Active; 'I' for Inactive)
REMARK    1  A    between atoms: C1_2  and  C2_4 
REMARK    2  A    between atoms: C8_20  and  C9_21 
REMARK    3  A    between atoms: C11_23  and  O2_24 
REMARK    4  A    between atoms: C11_23  and  N7_26 
REMARK    5  A    between atoms: N7_26  and  C12_28 
REMARK    6  A    between atoms: C12_28  and  C13_29 
REMARK    7  A    between atoms: C12_28  and  C14_32 
REMARK    8  A    between atoms: C13_29  and  O3_30 
REMARK    9  A    between atoms: C14_32  and  O4_33 
REMARK   10  A    between atoms: C15_38  and  C16_39 
REMARK   11  A    between atoms: C16_39  and  C17_40 
REMARK   12  A    between atoms: C16_39  and  C18_43 
REMARK   13  A    between atoms: C17_40  and  O6_41 
REMARK   14  A    between atoms: C18_43  and  O7_44 
REMARK   15  A    between atoms: C19_46  and  O8_47 
REMARK   16  A    between atoms: C19_46  and  C20_49 
REMARK   17  A    between atoms: C21_50  and  N9_51 
REMARK   18  A    between atoms: N9_51  and  O9_53 
ROOT
HETATM    1  C2  UNL     1       2.871  18.707  11.784  1.00  0.00     0.174 A 
HETATM    2  N2  UNL     1       3.225  20.016  11.588  1.00  0.00    -0.314 N 
ATOM      3  H2  UNL     1       3.440  20.364  10.653  1.00  0.00     0.170 HD
HETATM    4  C3  UNL     1       3.284  20.831  12.655  1.00  0.00     0.203 A 
HETATM    5  F1  UNL     1       3.639  22.128  12.440  1.00  0.00    -0.185 F 
HETATM    6  C4  UNL     1       2.994  20.361  13.902  1.00  0.00     0.081 A 
HETATM    7  C5  UNL     1       2.644  19.048  14.105  1.00  0.00     0.095 A 
HETATM    8  N3  UNL     1       2.597  18.271  13.009  1.00  0.00    -0.334 N 
ATOM      9  H3  UNL     1       2.336  17.292  13.124  1.00  0.00     0.168 HD
HETATM   10  C6  UNL     1       2.500  18.610  15.479  1.00  0.00     0.156 A 
HETATM   11  N4  UNL     1       2.132  17.382  15.920  1.00  0.00    -0.334 N 
ATOM     12  H4  UNL     1       1.913  16.576  15.334  1.00  0.00     0.168 HD
HETATM   13  C7  UNL     1       2.104  17.411  17.257  1.00  0.00     0.199 A 
HETATM   14  N5  UNL     1       2.449  18.644  17.595  1.00  0.00    -0.288 N 
ATOM     15  H5  UNL     1       2.516  18.976  18.557  1.00  0.00     0.188 HD
HETATM   16  N6  UNL     1       2.694  19.391  16.537  1.00  0.00    -0.235 N 
HETATM   17  C8  UNL     1       3.118  20.800  16.384  1.00  0.00     0.103 C 
HETATM   18  C19 UNL     1       2.959  21.305  15.016  1.00  0.00     0.203 C 
ENDROOT
BRANCH  17  19
HETATM   19  C9  UNL     1       4.256  21.207  17.185  1.00  0.00     0.062 A 
HETATM   20  C10 UNL     1       5.500  20.592  17.270  1.00  0.00     0.120 A 
HETATM   21  C11 UNL     1       6.085  19.443  16.655  1.00  0.00     0.166 C 
HETATM   22  N8  UNL     1       6.218  21.264  18.266  1.00  0.00    -0.256 N 
HETATM   23  O5  UNL     1       5.479  22.181  18.725  1.00  0.00    -0.236 OA
ATOM     24  H8  UNL     1       7.169  21.051  18.568  1.00  0.00     0.195 HD
HETATM   25  C15 UNL     1       4.285  22.233  18.142  1.00  0.00     0.120 A 
BRANCH  21  26
HETATM   26  O2  UNL     1       5.378  18.235  16.707  1.00  0.00    -0.345 OA
ATOM     27  H2  UNL     1       4.863  17.986  15.949  1.00  0.00     0.219 HD
ENDBRANCH  21  26
BRANCH  21  28
HETATM   28  N7  UNL     1       6.730  19.538  15.373  1.00  0.00    -0.360 N 
ATOM     29  H7  UNL     1       6.945  20.456  14.983  1.00  0.00     0.162 HD
BRANCH  28  30
HETATM   30  C12 UNL     1       7.064  18.394  14.660  1.00  0.00     0.130 C 
BRANCH  30  31
HETATM   31  C13 UNL     1       8.506  18.499  14.150  1.00  0.00     0.191 C 
BRANCH  31  32
HETATM   32  O3  UNL     1       8.752  17.571  13.143  1.00  0.00    -0.399 OA
ATOM     33  H3  UNL     1       9.653  17.272  13.165  1.00  0.00     0.209 HD
ENDBRANCH  31  32
ENDBRANCH  30  31
BRANCH  30  34
HETATM   34  C14 UNL     1       6.182  18.330  13.386  1.00  0.00     0.191 C 
BRANCH  34  35
HETATM   35  O4  UNL     1       6.387  19.389  12.555  1.00  0.00    -0.399 OA
ATOM     36  H4  UNL     1       7.293  19.463  12.276  1.00  0.00     0.209 HD
ENDBRANCH  34  35
ENDBRANCH  30  34
ENDBRANCH  28  30
ENDBRANCH  21  28
BRANCH  25  37
HETATM   37  C16 UNL     1       3.280  23.232  18.475  1.00  0.00     0.003 C 
BRANCH  37  38
HETATM   38  C17 UNL     1       3.917  24.541  18.968  1.00  0.00     0.203 C 
BRANCH  38  39
HETATM   39  O6  UNL     1       4.029  24.495  20.334  1.00  0.00    -0.396 OA
ATOM     40  H6  UNL     1       4.390  25.318  20.642  1.00  0.00     0.209 HD
ENDBRANCH  38  39
ENDBRANCH  37  38
BRANCH  37  41
HETATM   41  C18 UNL     1       1.888  22.997  18.780  1.00  0.00     0.203 C 
BRANCH  41  42
HETATM   42  O7  UNL     1       1.873  22.224  20.013  1.00  0.00    -0.396 OA
ATOM     43  H7  UNL     1       1.736  22.851  20.714  1.00  0.00     0.209 HD
ENDBRANCH  41  42
ENDBRANCH  37  41
ENDBRANCH  25  37
ENDBRANCH  17  19
BRANCH  18  44
HETATM   44  O8  UNL     1       3.835  22.352  14.782  1.00  0.00    -0.368 OA
ATOM     45  H8  UNL     1       3.497  23.154  15.165  1.00  0.00     0.212 HD
ENDBRANCH  18  44
BRANCH  18  46
HETATM   46  C20 UNL     1       1.600  21.953  14.805  1.00  0.00    -0.031 C 
HETATM   47  C21 UNL     1       0.513  22.470  14.639  1.00  0.00     0.035 C 
BRANCH  47  48
HETATM   48  N9  UNL     1      -0.755  23.081  14.485  1.00  0.00    -0.226 N 
ATOM     49  H9  UNL     1      -1.452  22.962  15.219  1.00  0.00     0.204 HD
BRANCH  48  50
HETATM   50  O9  UNL     1      -1.074  23.823  13.386  1.00  0.00    -0.282 OA
ATOM     51  H9  UNL     1      -1.848  23.646  12.862  1.00  0.00     0.245 HD
ENDBRANCH  48  50
ENDBRANCH  47  48
ENDBRANCH  18  46
BRANCH   1  52
HETATM   52  C1  UNL     1       2.873  17.871  10.617  1.00  0.00     0.298 C 
HETATM   53  N1  UNL     1       4.125  17.642   9.964  1.00  0.00    -0.054 NA
HETATM   54  O1  UNL     1       1.812  17.354  10.193  1.00  0.00    -0.268 OA
ENDBRANCH   1  52
TORSDOF 18
ENDMDL
MODEL 5
REMARK VINA RESULT: -8.555588639      2.517      7.313
REMARK  18 active torsions:
REMARK  status: ('A' for Active; 'I' for Inactive)
REMARK    1  A    between atoms: C1_2  and  C2_4 
REMARK    2  A    between atoms: C8_20  and  C9_21 
REMARK    3  A    between atoms: C11_23  and  O2_24 
REMARK    4  A    between atoms: C11_23  and  N7_26 
REMARK    5  A    between atoms: N7_26  and  C12_28 
REMARK    6  A    between atoms: C12_28  and  C13_29 
REMARK    7  A    between atoms: C12_28  and  C14_32 
REMARK    8  A    between atoms: C13_29  and  O3_30 
REMARK    9  A    between atoms: C14_32  and  O4_33 
REMARK   10  A    between atoms: C15_38  and  C16_39 
REMARK   11  A    between atoms: C16_39  and  C17_40 
REMARK   12  A    between atoms: C16_39  and  C18_43 
REMARK   13  A    between atoms: C17_40  and  O6_41 
REMARK   14  A    between atoms: C18_43  and  O7_44 
REMARK   15  A    between atoms: C19_46  and  O8_47 
REMARK   16  A    between atoms: C19_46  and  C20_49 
REMARK   17  A    between atoms: C21_50  and  N9_51 
REMARK   18  A    between atoms: N9_51  and  O9_53 
ROOT
HETATM    1  C2  UNL     1       2.298  18.786  11.680  1.00  0.00     0.174 A 
HETATM    2  N2  UNL     1       2.760  20.067  11.529  1.00  0.00    -0.314 N 
ATOM      3  H2  UNL     1       2.934  20.453  10.602  1.00  0.00     0.170 HD
HETATM    4  C3  UNL     1       2.978  20.803  12.632  1.00  0.00     0.203 A 
HETATM    5  F1  UNL     1       3.438  22.074  12.463  1.00  0.00    -0.185 F 
HETATM    6  C4  UNL     1       2.741  20.283  13.871  1.00  0.00     0.081 A 
HETATM    7  C5  UNL     1       2.284  18.997  14.027  1.00  0.00     0.095 A 
HETATM    8  N3  UNL     1       2.079  18.299  12.896  1.00  0.00    -0.334 N 
ATOM      9  H3  UNL     1       1.735  17.342  12.977  1.00  0.00     0.168 HD
HETATM   10  C6  UNL     1       2.204  18.487  15.381  1.00  0.00     0.156 A 
HETATM   11  N4  UNL     1       1.756  17.271  15.782  1.00  0.00    -0.334 N 
ATOM     12  H4  UNL     1       1.417  16.527  15.171  1.00  0.00     0.168 HD
HETATM   13  C7  UNL     1       1.834  17.218  17.115  1.00  0.00     0.199 A 
HETATM   14  N5  UNL     1       2.319  18.390  17.493  1.00  0.00    -0.288 N 
ATOM     15  H5  UNL     1       2.492  18.652  18.463  1.00  0.00     0.188 HD
HETATM   16  N6  UNL     1       2.553  19.178  16.462  1.00  0.00    -0.235 N 
HETATM   17  C8  UNL     1       3.096  20.550  16.355  1.00  0.00     0.103 C 
HETATM   18  C19 UNL     1       2.881  21.154  15.035  1.00  0.00     0.203 C 
ENDROOT
BRANCH  17  19
HETATM   19  C9  UNL     1       4.325  20.800  17.081  1.00  0.00     0.062 A 
HETATM   20  C10 UNL     1       5.536  20.127  16.962  1.00  0.00     0.120 A 
HETATM   21  C11 UNL     1       5.996  19.043  16.152  1.00  0.00     0.166 C 
HETATM   22  N8  UNL     1       6.382  20.631  17.956  1.00  0.00    -0.256 N 
HETATM   23  O5  UNL     1       5.741  21.511  18.599  1.00  0.00    -0.236 OA
ATOM     24  H8  UNL     1       7.344  20.340  18.131  1.00  0.00     0.195 HD
HETATM   25  C15 UNL     1       4.503  21.690  18.152  1.00  0.00     0.120 A 
BRANCH  21  26
HETATM   26  O2  UNL     1       5.231  17.870  16.123  1.00  0.00    -0.345 OA
ATOM     27  H2  UNL     1       5.367  17.231  16.814  1.00  0.00     0.219 HD
ENDBRANCH  21  26
BRANCH  21  28
HETATM   28  N7  UNL     1       6.520  19.277  14.833  1.00  0.00    -0.360 N 
ATOM     29  H7  UNL     1       7.050  20.128  14.644  1.00  0.00     0.162 HD
BRANCH  28  30
HETATM   30  C12 UNL     1       6.314  18.356  13.814  1.00  0.00     0.130 C 
BRANCH  30  31
HETATM   31  C13 UNL     1       7.556  17.472  13.650  1.00  0.00     0.191 C 
BRANCH  31  32
HETATM   32  O3  UNL     1       7.369  16.521  12.652  1.00  0.00    -0.399 OA
ATOM     33  H3  UNL     1       7.404  15.640  13.006  1.00  0.00     0.209 HD
ENDBRANCH  31  32
ENDBRANCH  30  31
BRANCH  30  34
HETATM   34  C14 UNL     1       6.177  19.123  12.474  1.00  0.00     0.191 C 
BRANCH  34  35
HETATM   35  O4  UNL     1       5.522  18.402  11.522  1.00  0.00    -0.399 OA
ATOM     36  H4  UNL     1       6.109  17.861  11.006  1.00  0.00     0.209 HD
ENDBRANCH  34  35
ENDBRANCH  30  34
ENDBRANCH  28  30
ENDBRANCH  21  28
BRANCH  25  37
HETATM   37  C16 UNL     1       3.590  22.680  18.707  1.00  0.00     0.003 C 
BRANCH  37  38
HETATM   38  C17 UNL     1       3.296  22.414  20.192  1.00  0.00     0.203 C 
BRANCH  38  39
HETATM   39  O6  UNL     1       2.368  21.409  20.290  1.00  0.00    -0.396 OA
ATOM     40  H6  UNL     1       2.613  20.832  21.003  1.00  0.00     0.209 HD
ENDBRANCH  38  39
ENDBRANCH  37  38
BRANCH  37  41
HETATM   41  C18 UNL     1       2.681  23.531  17.976  1.00  0.00     0.203 C 
BRANCH  41  42
HETATM   42  O7  UNL     1       1.342  23.097  18.342  1.00  0.00    -0.396 OA
ATOM     43  H7  UNL     1       1.026  23.729  18.977  1.00  0.00     0.209 HD
ENDBRANCH  41  42
ENDBRANCH  37  41
ENDBRANCH  25  37
ENDBRANCH  17  19
BRANCH  18  44
HETATM   44  O8  UNL     1       3.833  22.129  14.790  1.00  0.00    -0.368 OA
ATOM     45  H8  UNL     1       3.444  22.854  14.312  1.00  0.00     0.212 HD
ENDBRANCH  18  44
BRANCH  18  46
HETATM   46  C20 UNL     1       1.578  21.934  14.973  1.00  0.00    -0.031 C 
HETATM   47  C21 UNL     1       0.536  22.555  14.926  1.00  0.00     0.035 C 
BRANCH  47  48
HETATM   48  N9  UNL     1      -0.689  23.265  14.907  1.00  0.00    -0.226 N 
ATOM     49  H9  UNL     1      -1.204  23.384  15.779  1.00  0.00     0.204 HD
BRANCH  48  50
HETATM   50  O9  UNL     1      -1.203  23.796  13.760  1.00  0.00    -0.282 OA
ATOM     51  H9  UNL     1      -2.132  23.968  13.654  1.00  0.00     0.245 HD
ENDBRANCH  48  50
ENDBRANCH  47  48
ENDBRANCH  18  46
BRANCH   1  52
HETATM   52  C1  UNL     1       2.131  18.029  10.472  1.00  0.00     0.298 C 
HETATM   53  N1  UNL     1       3.079  16.992  10.199  1.00  0.00    -0.054 NA
HETATM   54  O1  UNL     1       1.180  18.266   9.689  1.00  0.00    -0.268 OA
ENDBRANCH   1  52
TORSDOF 18
ENDMDL
