MODEL 1
REMARK VINA RESULT: -9.357467087      0.000      0.000
REMARK  15 active torsions:
REMARK  status: ('A' for Active; 'I' for Inactive)
REMARK    1  A    between atoms: C2_2  and  N1_3 
REMARK    2  A    between atoms: C2_2  and  C4_12 
REMARK    3  A    between atoms: N1_3  and  C3_5 
REMARK    4  A    between atoms: C5_17  and  C6_18 
REMARK    5  A    between atoms: C6_18  and  N8_19 
REMARK    6  A    between atoms: N8_19  and  C7_21 
REMARK    7  A    between atoms: C8_22  and  N9_23 
REMARK    8  A    between atoms: C10_28  and  N10_29 
REMARK    9  A    between atoms: C11_33  and  O1_34 
REMARK   10  A    between atoms: O1_34  and  C12_35 
REMARK   11  A    between atoms: C12_35  and  C13_37 
REMARK   12  A    between atoms: C14_39  and  O3_40 
REMARK   13  A    between atoms: C15_42  and  N11_43 
REMARK   14  A    between atoms: N11_43  and  C16_44 
REMARK   15  A    between atoms: C18_48  and  C19_49 
ROOT
HETATM    1  C4  UNL     1       0.879  19.508  14.015  1.00  0.00     0.090 A 
HETATM    2  N6  UNL     1      -0.095  19.532  13.178  1.00  0.00    -0.299 N 
ATOM      3  H6  UNL     1      -1.038  19.843  13.409  1.00  0.00     0.186 HD
HETATM    4  N7  UNL     1       0.286  19.089  11.932  1.00  0.00    -0.299 N 
ATOM      5  H7  UNL     1      -0.345  19.034  11.132  1.00  0.00     0.186 HD
HETATM    6  C5  UNL     1       1.510  18.757  11.891  1.00  0.00     0.085 A 
HETATM    7  C15 UNL     1       2.046  18.999  13.274  1.00  0.00     0.160 A 
ENDROOT
BRANCH   6   8
HETATM    8  C6  UNL     1       2.355  18.225  10.762  1.00  0.00     0.176 C 
BRANCH   8   9
HETATM    9  N8  UNL     1       1.586  17.236  10.091  1.00  0.00    -0.407 N 
ATOM     10  H8  UNL     1       1.179  16.444  10.590  1.00  0.00     0.154 HD
BRANCH   9  11
HETATM   11  C7  UNL     1       1.414  17.405   8.698  1.00  0.00     0.138 C 
HETATM   12  C8  UNL     1       0.039  16.949   8.261  1.00  0.00     0.210 C 
HETATM   13  C9  UNL     1      -0.211  17.243   6.800  1.00  0.00     0.070 C 
HETATM   14  C10 UNL     1       0.997  17.691   6.045  1.00  0.00     0.217 C 
HETATM   15  C11 UNL     1       1.829  18.729   6.710  1.00  0.00     0.193 C 
HETATM   16  C14 UNL     1       1.558  18.825   8.217  1.00  0.00     0.174 C 
BRANCH  12  17
HETATM   17  N9  UNL     1      -0.097  15.542   8.560  1.00  0.00    -0.073 N 
ATOM     18  H93 UNL     1       0.120  14.949   7.758  1.00  0.00     0.274 HD
ATOM     19  H92 UNL     1       0.632  15.203   9.187  1.00  0.00     0.274 HD
ATOM     20  H91 UNL     1      -1.036  15.375   8.925  1.00  0.00     0.274 HD
ENDBRANCH  12  17
BRANCH  14  21
HETATM   21  N10 UNL     1       1.738  16.519   5.613  1.00  0.00    -0.072 N 
ATOM     22 3H10 UNL     1       2.686  16.745   5.314  1.00  0.00     0.274 HD
ATOM     23 2H10 UNL     1       1.978  15.902   6.389  1.00  0.00     0.274 HD
ATOM     24 1H10 UNL     1       1.203  16.044   4.887  1.00  0.00     0.274 HD
ENDBRANCH  14  21
BRANCH  15  25
HETATM   25  O1  UNL     1       3.204  18.377   6.506  1.00  0.00    -0.310 OA
BRANCH  25  26
HETATM   26  C12 UNL     1       4.107  19.173   5.853  1.00  0.00     0.273 C 
HETATM   27  O2  UNL     1       5.284  18.793   5.725  1.00  0.00    -0.264 OA
BRANCH  26  28
HETATM   28  C13 UNL     1       3.753  20.504   5.271  1.00  0.00     0.225 C 
HETATM   29 CL1  UNL     1       5.159  21.531   5.068  1.00  0.00    -0.120 Cl
ENDBRANCH  26  28
ENDBRANCH  25  26
ENDBRANCH  15  25
BRANCH  16  30
HETATM   30  O3  UNL     1       0.360  19.532   8.337  1.00  0.00    -0.391 OA
ATOM     31  H3  UNL     1      -0.097  19.313   9.141  1.00  0.00     0.210 HD
ENDBRANCH  16  30
ENDBRANCH   9  11
ENDBRANCH   8   9
ENDBRANCH   6   8
BRANCH   7  32
HETATM   32  N11 UNL     1       3.202  18.799  13.571  1.00  0.00    -0.386 NA
BRANCH  32  33
HETATM   33  C16 UNL     1       4.273  18.369  14.231  1.00  0.00     0.178 C 
HETATM   34  N12 UNL     1       4.646  17.117  14.430  1.00  0.00    -0.365 N 
HETATM   35  C17 UNL     1       5.860  16.914  15.186  1.00  0.00     0.166 C 
ATOM     36  H12 UNL     1       4.103  16.333  14.067  1.00  0.00     0.161 HD
HETATM   37  C18 UNL     1       7.020  17.705  14.578  1.00  0.00     0.303 C 
HETATM   38  N13 UNL     1       6.606  19.080  14.332  1.00  0.00    -0.052 N 
HETATM   39  C20 UNL     1       5.282  19.333  14.869  1.00  0.00     0.325 C 
ATOM     40 2H13 UNL     1       7.289  19.746  14.691  1.00  0.00     0.278 HD
ATOM     41 1H13 UNL     1       6.660  19.316  13.342  1.00  0.00     0.278 HD
BRANCH  37  42
HETATM   42  C19 UNL     1       7.314  17.076  13.267  1.00  0.00     0.206 C 
HETATM   43  O4  UNL     1       7.433  17.746  12.222  1.00  0.00    -0.646 OA
HETATM   44  O5  UNL     1       7.463  15.699  13.191  1.00  0.00    -0.646 OA
ENDBRANCH  37  42
ENDBRANCH  32  33
ENDBRANCH   7  32
BRANCH   1  45
HETATM   45  C2  UNL     1       0.865  19.904  15.445  1.00  0.00     0.135 C 
HETATM   46  C1  UNL     1       1.569  21.191  15.740  1.00  0.00     0.039 C 
BRANCH  45  47
HETATM   47  N1  UNL     1       1.485  18.858  16.240  1.00  0.00    -0.350 N 
ATOM     48  H1  UNL     1       2.421  19.020  16.612  1.00  0.00     0.163 HD
BRANCH  47  49
HETATM   49  C3  UNL     1       0.848  17.616  16.525  1.00  0.00     0.206 C 
HETATM   50  N2  UNL     1       0.922  16.514  15.860  1.00  0.00    -0.256 N 
HETATM   51  N3  UNL     1       0.131  15.537  16.504  1.00  0.00    -0.006 NA
ATOM     52  H2  UNL     1       1.464  16.370  15.008  1.00  0.00     0.187 HD
HETATM   53  N4  UNL     1      -0.357  16.039  17.708  1.00  0.00    -0.006 NA
HETATM   54  N5  UNL     1      -0.008  17.384  17.641  1.00  0.00    -0.256 N 
ATOM     55  H5  UNL     1      -0.321  18.101  18.296  1.00  0.00     0.187 HD
ENDBRANCH  47  49
ENDBRANCH  45  47
ENDBRANCH   1  45
TORSDOF 15
ENDMDL
MODEL 2
REMARK VINA RESULT: -9.155974380      1.766      2.045
REMARK  15 active torsions:
REMARK  status: ('A' for Active; 'I' for Inactive)
REMARK    1  A    between atoms: C2_2  and  N1_3 
REMARK    2  A    between atoms: C2_2  and  C4_12 
REMARK    3  A    between atoms: N1_3  and  C3_5 
REMARK    4  A    between atoms: C5_17  and  C6_18 
REMARK    5  A    between atoms: C6_18  and  N8_19 
REMARK    6  A    between atoms: N8_19  and  C7_21 
REMARK    7  A    between atoms: C8_22  and  N9_23 
REMARK    8  A    between atoms: C10_28  and  N10_29 
REMARK    9  A    between atoms: C11_33  and  O1_34 
REMARK   10  A    between atoms: O1_34  and  C12_35 
REMARK   11  A    between atoms: C12_35  and  C13_37 
REMARK   12  A    between atoms: C14_39  and  O3_40 
REMARK   13  A    between atoms: C15_42  and  N11_43 
REMARK   14  A    between atoms: N11_43  and  C16_44 
REMARK   15  A    between atoms: C18_48  and  C19_49 
ROOT
HETATM    1  C4  UNL     1       1.055  19.494  13.975  1.00  0.00     0.090 A 
HETATM    2  N6  UNL     1       0.123  19.481  13.092  1.00  0.00    -0.299 N 
ATOM      3  H6  UNL     1      -0.830  19.800  13.264  1.00  0.00     0.186 HD
HETATM    4  N7  UNL     1       0.562  18.985  11.886  1.00  0.00    -0.299 N 
ATOM      5  H7  UNL     1      -0.030  18.895  11.059  1.00  0.00     0.186 HD
HETATM    6  C5  UNL     1       1.787  18.653  11.917  1.00  0.00     0.085 A 
HETATM    7  C15 UNL     1       2.256  18.955  13.313  1.00  0.00     0.160 A 
ENDROOT
BRANCH   6   8
HETATM    8  C6  UNL     1       2.684  18.074  10.853  1.00  0.00     0.176 C 
BRANCH   8   9
HETATM    9  N8  UNL     1       1.928  17.099  10.151  1.00  0.00    -0.407 N 
ATOM     10  H8  UNL     1       1.584  16.254  10.608  1.00  0.00     0.154 HD
BRANCH   9  11
HETATM   11  C7  UNL     1       1.674  17.359   8.784  1.00  0.00     0.138 C 
HETATM   12  C8  UNL     1       0.260  16.972   8.410  1.00  0.00     0.210 C 
HETATM   13  C9  UNL     1      -0.071  17.363   6.988  1.00  0.00     0.070 C 
HETATM   14  C10 UNL     1       1.102  17.820   6.185  1.00  0.00     0.217 C 
HETATM   15  C11 UNL     1       2.010  18.789   6.855  1.00  0.00     0.193 C 
HETATM   16  C14 UNL     1       1.837  18.800   8.379  1.00  0.00     0.174 C 
BRANCH  12  17
HETATM   17  N9  UNL     1       0.094  15.554   8.633  1.00  0.00    -0.073 N 
ATOM     18  H93 UNL     1       0.531  14.990   7.903  1.00  0.00     0.274 HD
ATOM     19  H92 UNL     1       0.645  15.215   9.421  1.00  0.00     0.274 HD
ATOM     20  H91 UNL     1      -0.901  15.354   8.737  1.00  0.00     0.274 HD
ENDBRANCH  12  17
BRANCH  14  21
HETATM   21  N10 UNL     1       1.774  16.655   5.637  1.00  0.00    -0.072 N 
ATOM     22 3H10 UNL     1       1.119  15.948   5.302  1.00  0.00     0.274 HD
ATOM     23 2H10 UNL     1       2.236  16.852   4.749  1.00  0.00     0.274 HD
ATOM     24 1H10 UNL     1       2.417  16.288   6.338  1.00  0.00     0.274 HD
ENDBRANCH  14  21
BRANCH  15  25
HETATM   25  O1  UNL     1       3.357  18.408   6.542  1.00  0.00    -0.310 OA
BRANCH  25  26
HETATM   26  C12 UNL     1       4.213  19.176   5.801  1.00  0.00     0.273 C 
HETATM   27  O2  UNL     1       5.370  18.775   5.584  1.00  0.00    -0.264 OA
BRANCH  26  28
HETATM   28  C13 UNL     1       3.833  20.501   5.222  1.00  0.00     0.225 C 
HETATM   29 CL1  UNL     1       5.216  21.561   5.030  1.00  0.00    -0.120 Cl
ENDBRANCH  26  28
ENDBRANCH  25  26
ENDBRANCH  15  25
BRANCH  16  30
HETATM   30  O3  UNL     1       0.673  19.535   8.618  1.00  0.00    -0.391 OA
ATOM     31  H3  UNL     1       0.829  20.247   9.229  1.00  0.00     0.210 HD
ENDBRANCH  16  30
ENDBRANCH   9  11
ENDBRANCH   8   9
ENDBRANCH   6   8
BRANCH   7  32
HETATM   32  N11 UNL     1       3.397  18.770  13.672  1.00  0.00    -0.386 NA
BRANCH  32  33
HETATM   33  C16 UNL     1       4.461  18.647  14.460  1.00  0.00     0.178 C 
HETATM   34  N12 UNL     1       5.234  19.613  14.923  1.00  0.00    -0.365 N 
HETATM   35  C17 UNL     1       6.337  19.213  15.767  1.00  0.00     0.166 C 
ATOM     36  H12 UNL     1       5.062  20.592  14.696  1.00  0.00     0.161 HD
HETATM   37  C18 UNL     1       5.849  18.345  16.927  1.00  0.00     0.303 C 
HETATM   38  N13 UNL     1       4.974  17.294  16.425  1.00  0.00    -0.052 N 
HETATM   39  C20 UNL     1       4.944  17.285  14.975  1.00  0.00     0.325 C 
ATOM     40 2H13 UNL     1       5.232  16.381  16.800  1.00  0.00     0.278 HD
ATOM     41 1H13 UNL     1       4.036  17.366  16.819  1.00  0.00     0.278 HD
BRANCH  37  42
HETATM   42  C19 UNL     1       5.041  19.231  17.802  1.00  0.00     0.206 C 
HETATM   43  O4  UNL     1       5.369  20.411  18.035  1.00  0.00    -0.646 OA
HETATM   44  O5  UNL     1       3.882  18.738  18.384  1.00  0.00    -0.646 OA
ENDBRANCH  37  42
ENDBRANCH  32  33
ENDBRANCH   7  32
BRANCH   1  45
HETATM   45  C2  UNL     1       0.974  19.951  15.384  1.00  0.00     0.135 C 
HETATM   46  C1  UNL     1       1.563  21.303  15.633  1.00  0.00     0.039 C 
BRANCH  45  47
HETATM   47  N1  UNL     1       1.656  18.996  16.240  1.00  0.00    -0.350 N 
ATOM     48  H1  UNL     1       2.600  19.216  16.560  1.00  0.00     0.163 HD
BRANCH  47  49
HETATM   49  C3  UNL     1       1.071  17.765  16.655  1.00  0.00     0.206 C 
HETATM   50  N2  UNL     1       0.539  16.850  15.919  1.00  0.00    -0.256 N 
HETATM   51  N3  UNL     1       0.085  15.801  16.749  1.00  0.00    -0.006 NA
ATOM     52  H2  UNL     1       0.458  16.879  14.902  1.00  0.00     0.187 HD
HETATM   53  N4  UNL     1       0.478  16.033  18.065  1.00  0.00    -0.006 NA
HETATM   54  N5  UNL     1       0.977  17.330  18.009  1.00  0.00    -0.256 N 
ATOM     55  H5  UNL     1       1.239  17.890  18.822  1.00  0.00     0.187 HD
ENDBRANCH  47  49
ENDBRANCH  45  47
ENDBRANCH   1  45
TORSDOF 15
ENDMDL
MODEL 3
REMARK VINA RESULT: -8.868976576      4.079      6.683
REMARK  15 active torsions:
REMARK  status: ('A' for Active; 'I' for Inactive)
REMARK    1  A    between atoms: C2_2  and  N1_3 
REMARK    2  A    between atoms: C2_2  and  C4_12 
REMARK    3  A    between atoms: N1_3  and  C3_5 
REMARK    4  A    between atoms: C5_17  and  C6_18 
REMARK    5  A    between atoms: C6_18  and  N8_19 
REMARK    6  A    between atoms: N8_19  and  C7_21 
REMARK    7  A    between atoms: C8_22  and  N9_23 
REMARK    8  A    between atoms: C10_28  and  N10_29 
REMARK    9  A    between atoms: C11_33  and  O1_34 
REMARK   10  A    between atoms: O1_34  and  C12_35 
REMARK   11  A    between atoms: C12_35  and  C13_37 
REMARK   12  A    between atoms: C14_39  and  O3_40 
REMARK   13  A    between atoms: C15_42  and  N11_43 
REMARK   14  A    between atoms: N11_43  and  C16_44 
REMARK   15  A    between atoms: C18_48  and  C19_49 
ROOT
HETATM    1  C4  UNL     1       2.179  17.325  16.828  1.00  0.00     0.090 A 
HETATM    2  N6  UNL     1       2.121  16.898  15.618  1.00  0.00    -0.299 N 
ATOM      3  H6  UNL     1       1.584  16.081  15.326  1.00  0.00     0.186 HD
HETATM    4  N7  UNL     1       2.869  17.672  14.762  1.00  0.00    -0.299 N 
ATOM      5  H7  UNL     1       2.950  17.495  13.760  1.00  0.00     0.186 HD
HETATM    6  C5  UNL     1       3.447  18.632  15.359  1.00  0.00     0.085 A 
HETATM    7  C15 UNL     1       3.053  18.510  16.805  1.00  0.00     0.160 A 
ENDROOT
BRANCH   6   8
HETATM    8  C6  UNL     1       4.354  19.718  14.841  1.00  0.00     0.176 C 
BRANCH   8   9
HETATM    9  N8  UNL     1       5.665  19.429  15.303  1.00  0.00    -0.407 N 
ATOM     10  H8  UNL     1       5.905  19.466  16.294  1.00  0.00     0.154 HD
BRANCH   9  11
HETATM   11  C7  UNL     1       6.622  19.086  14.320  1.00  0.00     0.138 C 
HETATM   12  C8  UNL     1       7.958  18.763  14.951  1.00  0.00     0.210 C 
HETATM   13  C9  UNL     1       8.956  18.268  13.929  1.00  0.00     0.070 C 
HETATM   14  C10 UNL     1       8.514  18.421  12.510  1.00  0.00     0.217 C 
HETATM   15  C11 UNL     1       7.121  17.990  12.215  1.00  0.00     0.193 C 
HETATM   16  C14 UNL     1       6.255  17.893  13.478  1.00  0.00     0.174 C 
BRANCH  12  17
HETATM   17  N9  UNL     1       8.436  19.934  15.648  1.00  0.00    -0.073 N 
ATOM     18  H93 UNL     1       9.018  20.530  15.059  1.00  0.00     0.274 HD
ATOM     19  H92 UNL     1       7.693  20.607  15.837  1.00  0.00     0.274 HD
ATOM     20  H91 UNL     1       8.917  19.636  16.497  1.00  0.00     0.274 HD
ENDBRANCH  12  17
BRANCH  14  21
HETATM   21  N10 UNL     1       8.829  19.767  12.067  1.00  0.00    -0.072 N 
ATOM     22 3H10 UNL     1       9.751  20.074  12.376  1.00  0.00     0.274 HD
ATOM     23 2H10 UNL     1       8.992  19.819  11.061  1.00  0.00     0.274 HD
ATOM     24 1H10 UNL     1       8.086  20.395  12.375  1.00  0.00     0.274 HD
ENDBRANCH  14  21
BRANCH  15  25
HETATM   25  O1  UNL     1       6.547  18.962  11.330  1.00  0.00    -0.310 OA
BRANCH  25  26
HETATM   26  C12 UNL     1       5.299  18.848  10.779  1.00  0.00     0.273 C 
HETATM   27  O2  UNL     1       5.083  17.978   9.917  1.00  0.00    -0.264 OA
BRANCH  26  28
HETATM   28  C13 UNL     1       4.153  19.729  11.159  1.00  0.00     0.225 C 
HETATM   29 CL1  UNL     1       2.668  18.825  11.379  1.00  0.00    -0.120 Cl
ENDBRANCH  26  28
ENDBRANCH  25  26
ENDBRANCH  15  25
BRANCH  16  30
HETATM   30  O3  UNL     1       6.626  16.695  14.094  1.00  0.00    -0.391 OA
ATOM     31  H3  UNL     1       5.955  16.388  14.692  1.00  0.00     0.210 HD
ENDBRANCH  16  30
ENDBRANCH   9  11
ENDBRANCH   8   9
ENDBRANCH   6   8
BRANCH   7  32
HETATM   32  N11 UNL     1       3.424  19.292  17.650  1.00  0.00    -0.386 NA
BRANCH  32  33
HETATM   33  C16 UNL     1       3.823  20.421  18.229  1.00  0.00     0.178 C 
HETATM   34  N12 UNL     1       4.768  20.568  19.139  1.00  0.00    -0.365 N 
HETATM   35  C17 UNL     1       5.011  21.912  19.611  1.00  0.00     0.166 C 
ATOM     36  H12 UNL     1       5.301  19.773  19.491  1.00  0.00     0.161 HD
HETATM   37  C18 UNL     1       5.272  22.862  18.442  1.00  0.00     0.303 C 
HETATM   38  N13 UNL     1       4.246  22.686  17.423  1.00  0.00    -0.052 N 
HETATM   39  C20 UNL     1       3.206  21.781  17.876  1.00  0.00     0.325 C 
ATOM     40 2H13 UNL     1       3.860  23.580  17.121  1.00  0.00     0.278 HD
ATOM     41 1H13 UNL     1       4.647  22.381  16.535  1.00  0.00     0.278 HD
BRANCH  37  42
HETATM   42  C19 UNL     1       6.573  22.457  17.854  1.00  0.00     0.206 C 
HETATM   43  O4  UNL     1       7.656  22.664  18.435  1.00  0.00    -0.646 OA
HETATM   44  O5  UNL     1       6.593  21.826  16.618  1.00  0.00    -0.646 OA
ENDBRANCH  37  42
ENDBRANCH  32  33
ENDBRANCH   7  32
BRANCH   1  45
HETATM   45  C2  UNL     1       1.515  16.761  18.029  1.00  0.00     0.135 C 
HETATM   46  C1  UNL     1       0.022  16.855  18.015  1.00  0.00     0.039 C 
BRANCH  45  47
HETATM   47  N1  UNL     1       2.000  17.448  19.214  1.00  0.00    -0.350 N 
ATOM     48  H1  UNL     1       1.582  18.346  19.461  1.00  0.00     0.163 HD
BRANCH  47  49
HETATM   49  C3  UNL     1       3.031  16.928  20.049  1.00  0.00     0.206 C 
HETATM   50  N2  UNL     1       2.910  16.147  21.067  1.00  0.00    -0.256 N 
HETATM   51  N3  UNL     1       4.193  15.883  21.596  1.00  0.00    -0.006 NA
ATOM     52  H2  UNL     1       2.031  15.779  21.432  1.00  0.00     0.187 HD
HETATM   53  N4  UNL     1       5.170  16.436  20.771  1.00  0.00    -0.006 NA
HETATM   54  N5  UNL     1       4.420  17.199  19.882  1.00  0.00    -0.256 N 
ATOM     55  H5  UNL     1       4.809  17.859  19.207  1.00  0.00     0.187 HD
ENDBRANCH  47  49
ENDBRANCH  45  47
ENDBRANCH   1  45
TORSDOF 15
ENDMDL
MODEL 4
REMARK VINA RESULT: -8.822690103      3.734      6.488
REMARK  15 active torsions:
REMARK  status: ('A' for Active; 'I' for Inactive)
REMARK    1  A    between atoms: C2_2  and  N1_3 
REMARK    2  A    between atoms: C2_2  and  C4_12 
REMARK    3  A    between atoms: N1_3  and  C3_5 
REMARK    4  A    between atoms: C5_17  and  C6_18 
REMARK    5  A    between atoms: C6_18  and  N8_19 
REMARK    6  A    between atoms: N8_19  and  C7_21 
REMARK    7  A    between atoms: C8_22  and  N9_23 
REMARK    8  A    between atoms: C10_28  and  N10_29 
REMARK    9  A    between atoms: C11_33  and  O1_34 
REMARK   10  A    between atoms: O1_34  and  C12_35 
REMARK   11  A    between atoms: C12_35  and  C13_37 
REMARK   12  A    between atoms: C14_39  and  O3_40 
REMARK   13  A    between atoms: C15_42  and  N11_43 
REMARK   14  A    between atoms: N11_43  and  C16_44 
REMARK   15  A    between atoms: C18_48  and  C19_49 
ROOT
HETATM    1  C4  UNL     1       2.730  19.675  14.869  1.00  0.00     0.090 A 
HETATM    2  N6  UNL     1       3.157  20.713  14.245  1.00  0.00    -0.299 N 
ATOM      3  H6  UNL     1       2.606  21.234  13.562  1.00  0.00     0.186 HD
HETATM    4  N7  UNL     1       4.443  21.040  14.606  1.00  0.00    -0.299 N 
ATOM      5  H7  UNL     1       4.957  21.833  14.220  1.00  0.00     0.186 HD
HETATM    6  C5  UNL     1       4.918  20.244  15.473  1.00  0.00     0.085 A 
HETATM    7  C15 UNL     1       3.831  19.243  15.748  1.00  0.00     0.160 A 
ENDROOT
BRANCH   6   8
HETATM    8  C6  UNL     1       6.263  20.207  16.152  1.00  0.00     0.176 C 
BRANCH   8   9
HETATM    9  N8  UNL     1       6.878  18.975  15.805  1.00  0.00    -0.407 N 
ATOM     10  H8  UNL     1       7.032  18.239  16.494  1.00  0.00     0.154 HD
BRANCH   9  11
HETATM   11  C7  UNL     1       7.265  18.820  14.453  1.00  0.00     0.138 C 
HETATM   12  C8  UNL     1       8.756  18.593  14.338  1.00  0.00     0.210 C 
HETATM   13  C9  UNL     1       9.169  18.295  12.915  1.00  0.00     0.070 C 
HETATM   14  C10 UNL     1       8.094  18.515  11.901  1.00  0.00     0.217 C 
HETATM   15  C11 UNL     1       6.757  17.961  12.243  1.00  0.00     0.193 C 
HETATM   16  C14 UNL     1       6.608  17.666  13.742  1.00  0.00     0.174 C 
BRANCH  12  17
HETATM   17  N9  UNL     1       9.442  19.749  14.868  1.00  0.00    -0.073 N 
ATOM     18  H93 UNL     1      10.137  19.502  15.572  1.00  0.00     0.274 HD
ATOM     19  H92 UNL     1      10.073  20.174  14.189  1.00  0.00     0.274 HD
ATOM     20  H91 UNL     1       8.747  20.408  15.221  1.00  0.00     0.274 HD
ENDBRANCH  12  17
BRANCH  14  21
HETATM   21  N10 UNL     1       8.081  19.919  11.533  1.00  0.00    -0.072 N 
ATOM     22 3H10 UNL     1       8.983  20.371  11.684  1.00  0.00     0.274 HD
ATOM     23 2H10 UNL     1       8.023  20.057  10.523  1.00  0.00     0.274 HD
ATOM     24 1H10 UNL     1       7.324  20.382  12.034  1.00  0.00     0.274 HD
ENDBRANCH  14  21
BRANCH  15  25
HETATM   25  O1  UNL     1       5.775  18.933  11.860  1.00  0.00    -0.310 OA
BRANCH  25  26
HETATM   26  C12 UNL     1       4.822  18.717  10.902  1.00  0.00     0.273 C 
HETATM   27  O2  UNL     1       5.046  17.914   9.979  1.00  0.00    -0.264 OA
BRANCH  26  28
HETATM   28  C13 UNL     1       3.496  19.408  10.896  1.00  0.00     0.225 C 
HETATM   29 CL1  UNL     1       2.334  18.600   9.861  1.00  0.00    -0.120 Cl
ENDBRANCH  26  28
ENDBRANCH  25  26
ENDBRANCH  15  25
BRANCH  16  30
HETATM   30  O3  UNL     1       7.296  16.470  13.958  1.00  0.00    -0.391 OA
ATOM     31  H3  UNL     1       6.860  15.736  13.541  1.00  0.00     0.210 HD
ENDBRANCH  16  30
ENDBRANCH   9  11
ENDBRANCH   8   9
ENDBRANCH   6   8
BRANCH   7  32
HETATM   32  N11 UNL     1       3.957  18.348  16.552  1.00  0.00    -0.386 NA
BRANCH  32  33
HETATM   33  C16 UNL     1       4.103  17.711  17.710  1.00  0.00     0.178 C 
HETATM   34  N12 UNL     1       5.148  17.741  18.518  1.00  0.00    -0.365 N 
HETATM   35  C17 UNL     1       5.057  16.954  19.726  1.00  0.00     0.166 C 
ATOM     36  H12 UNL     1       5.978  18.293  18.300  1.00  0.00     0.161 HD
HETATM   37  C18 UNL     1       3.792  17.303  20.510  1.00  0.00     0.303 C 
HETATM   38  N13 UNL     1       2.640  17.296  19.619  1.00  0.00    -0.052 N 
HETATM   39  C20 UNL     1       3.002  16.819  18.297  1.00  0.00     0.325 C 
ATOM     40 2H13 UNL     1       1.865  16.762  20.011  1.00  0.00     0.278 HD
ATOM     41 1H13 UNL     1       2.193  18.212  19.577  1.00  0.00     0.278 HD
BRANCH  37  42
HETATM   42  C19 UNL     1       3.975  18.689  21.008  1.00  0.00     0.206 C 
HETATM   43  O4  UNL     1       4.964  19.380  20.695  1.00  0.00    -0.646 OA
HETATM   44  O5  UNL     1       3.020  19.241  21.849  1.00  0.00    -0.646 OA
ENDBRANCH  37  42
ENDBRANCH  32  33
ENDBRANCH   7  32
BRANCH   1  45
HETATM   45  C2  UNL     1       1.406  19.017  14.752  1.00  0.00     0.135 C 
HETATM   46  C1  UNL     1       0.407  19.773  13.935  1.00  0.00     0.039 C 
BRANCH  45  47
HETATM   47  N1  UNL     1       0.847  18.819  16.079  1.00  0.00    -0.350 N 
ATOM     48  H1  UNL     1       0.800  19.619  16.711  1.00  0.00     0.163 HD
BRANCH  47  49
HETATM   49  C3  UNL     1       0.362  17.561  16.540  1.00  0.00     0.206 C 
HETATM   50  N2  UNL     1      -0.331  17.317  17.598  1.00  0.00    -0.256 N 
HETATM   51  N3  UNL     1      -0.594  15.930  17.663  1.00  0.00    -0.006 NA
ATOM     52  H2  UNL     1      -0.640  18.011  18.279  1.00  0.00     0.187 HD
HETATM   53  N4  UNL     1      -0.139  15.306  16.504  1.00  0.00    -0.006 NA
HETATM   54  N5  UNL     1       0.575  16.319  15.873  1.00  0.00    -0.256 N 
ATOM     55  H5  UNL     1       1.165  16.192  15.050  1.00  0.00     0.187 HD
ENDBRANCH  47  49
ENDBRANCH  45  47
ENDBRANCH   1  45
TORSDOF 15
ENDMDL
MODEL 5
REMARK VINA RESULT: -8.757142199      5.427      8.091
REMARK  15 active torsions:
REMARK  status: ('A' for Active; 'I' for Inactive)
REMARK    1  A    between atoms: C2_2  and  N1_3 
REMARK    2  A    between atoms: C2_2  and  C4_12 
REMARK    3  A    between atoms: N1_3  and  C3_5 
REMARK    4  A    between atoms: C5_17  and  C6_18 
REMARK    5  A    between atoms: C6_18  and  N8_19 
REMARK    6  A    between atoms: N8_19  and  C7_21 
REMARK    7  A    between atoms: C8_22  and  N9_23 
REMARK    8  A    between atoms: C10_28  and  N10_29 
REMARK    9  A    between atoms: C11_33  and  O1_34 
REMARK   10  A    between atoms: O1_34  and  C12_35 
REMARK   11  A    between atoms: C12_35  and  C13_37 
REMARK   12  A    between atoms: C14_39  and  O3_40 
REMARK   13  A    between atoms: C15_42  and  N11_43 
REMARK   14  A    between atoms: N11_43  and  C16_44 
REMARK   15  A    between atoms: C18_48  and  C19_49 
ROOT
HETATM    1  C4  UNL     1       0.986  17.724  16.401  1.00  0.00     0.090 A 
HETATM    2  N6  UNL     1      -0.009  18.504  16.174  1.00  0.00    -0.299 N 
ATOM      3  H6  UNL     1      -0.982  18.251  16.343  1.00  0.00     0.186 HD
HETATM    4  N7  UNL     1       0.393  19.721  15.675  1.00  0.00    -0.299 N 
ATOM      5  H7  UNL     1      -0.249  20.475  15.432  1.00  0.00     0.186 HD
HETATM    6  C5  UNL     1       1.655  19.799  15.552  1.00  0.00     0.085 A 
HETATM    7  C15 UNL     1       2.194  18.477  16.022  1.00  0.00     0.160 A 
ENDROOT
BRANCH   6   8
HETATM    8  C6  UNL     1       2.534  20.918  15.056  1.00  0.00     0.176 C 
BRANCH   8   9
HETATM    9  N8  UNL     1       2.129  22.102  15.729  1.00  0.00    -0.407 N 
ATOM     10  H8  UNL     1       1.284  22.608  15.462  1.00  0.00     0.154 HD
BRANCH   9  11
HETATM   11  C7  UNL     1       2.956  22.543  16.787  1.00  0.00     0.138 C 
HETATM   12  C8  UNL     1       2.130  23.063  17.943  1.00  0.00     0.210 C 
HETATM   13  C9  UNL     1       2.990  23.416  19.134  1.00  0.00     0.070 C 
HETATM   14  C10 UNL     1       4.458  23.409  18.858  1.00  0.00     0.217 C 
HETATM   15  C11 UNL     1       4.971  22.236  18.101  1.00  0.00     0.193 C 
HETATM   16  C14 UNL     1       3.859  21.482  17.360  1.00  0.00     0.174 C 
BRANCH  12  17
HETATM   17  N9  UNL     1       1.353  24.191  17.484  1.00  0.00    -0.073 N 
ATOM     18  H93 UNL     1       0.784  24.601  18.225  1.00  0.00     0.274 HD
ATOM     19  H92 UNL     1       1.931  25.007  17.283  1.00  0.00     0.274 HD
ATOM     20  H91 UNL     1       0.796  23.900  16.681  1.00  0.00     0.274 HD
ENDBRANCH  12  17
BRANCH  14  21
HETATM   21  N10 UNL     1       4.832  24.693  18.292  1.00  0.00    -0.072 N 
ATOM     22 3H10 UNL     1       4.567  24.779  17.310  1.00  0.00     0.274 HD
ATOM     23 2H10 UNL     1       4.266  25.460  18.657  1.00  0.00     0.274 HD
ATOM     24 1H10 UNL     1       5.830  24.839  18.441  1.00  0.00     0.274 HD
ENDBRANCH  14  21
BRANCH  15  25
HETATM   25  O1  UNL     1       5.922  22.721  17.144  1.00  0.00    -0.310 OA
BRANCH  25  26
HETATM   26  C12 UNL     1       7.266  22.466  17.208  1.00  0.00     0.273 C 
HETATM   27  O2  UNL     1       7.746  21.522  16.557  1.00  0.00    -0.264 OA
BRANCH  26  28
HETATM   28  C13 UNL     1       8.213  23.275  18.034  1.00  0.00     0.225 C 
HETATM   29 CL1  UNL     1       8.102  22.886  19.740  1.00  0.00    -0.120 Cl
ENDBRANCH  26  28
ENDBRANCH  25  26
ENDBRANCH  15  25
BRANCH  16  30
HETATM   30  O3  UNL     1       3.207  20.724  18.336  1.00  0.00    -0.391 OA
ATOM     31  H3  UNL     1       3.068  19.829  18.048  1.00  0.00     0.210 HD
ENDBRANCH  16  30
ENDBRANCH   9  11
ENDBRANCH   8   9
ENDBRANCH   6   8
BRANCH   7  32
HETATM   32  N11 UNL     1       3.378  18.228  16.051  1.00  0.00    -0.386 NA
BRANCH  32  33
HETATM   33  C16 UNL     1       4.605  17.909  15.650  1.00  0.00     0.178 C 
HETATM   34  N12 UNL     1       4.945  17.020  14.734  1.00  0.00    -0.365 N 
HETATM   35  C17 UNL     1       6.359  16.860  14.480  1.00  0.00     0.166 C 
ATOM     36  H12 UNL     1       4.245  16.474  14.232  1.00  0.00     0.161 HD
HETATM   37  C18 UNL     1       7.010  18.205  14.156  1.00  0.00     0.303 C 
HETATM   38  N13 UNL     1       6.617  19.196  15.149  1.00  0.00    -0.052 N 
HETATM   39  C20 UNL     1       5.854  18.589  16.223  1.00  0.00     0.325 C 
ATOM     40 2H13 UNL     1       7.422  19.710  15.504  1.00  0.00     0.278 HD
ATOM     41 1H13 UNL     1       6.111  19.973  14.723  1.00  0.00     0.278 HD
BRANCH  37  42
HETATM   42  C19 UNL     1       6.464  18.632  12.844  1.00  0.00     0.206 C 
HETATM   43  O4  UNL     1       5.609  19.534  12.744  1.00  0.00    -0.646 OA
HETATM   44  O5  UNL     1       6.912  18.012  11.687  1.00  0.00    -0.646 OA
ENDBRANCH  37  42
ENDBRANCH  32  33
ENDBRANCH   7  32
BRANCH   1  45
HETATM   45  C2  UNL     1       0.960  16.340  16.934  1.00  0.00     0.135 C 
HETATM   46  C1  UNL     1      -0.134  15.482  16.380  1.00  0.00     0.039 C 
BRANCH  45  47
HETATM   47  N1  UNL     1       0.813  16.382  18.379  1.00  0.00    -0.350 N 
ATOM     48  H1  UNL     1      -0.030  15.984  18.794  1.00  0.00     0.163 HD
BRANCH  47  49
HETATM   49  C3  UNL     1       1.789  16.954  19.245  1.00  0.00     0.206 C 
HETATM   50  N2  UNL     1       2.188  18.179  19.293  1.00  0.00    -0.256 N 
HETATM   51  N3  UNL     1       3.168  18.301  20.303  1.00  0.00    -0.006 NA
ATOM     52  H2  UNL     1       1.851  18.937  18.699  1.00  0.00     0.187 HD
HETATM   53  N4  UNL     1       3.284  17.101  21.000  1.00  0.00    -0.006 NA
HETATM   54  N5  UNL     1       2.511  16.231  20.239  1.00  0.00    -0.256 N 
ATOM     55  H5  UNL     1       2.466  15.220  20.373  1.00  0.00     0.187 HD
ENDBRANCH  47  49
ENDBRANCH  45  47
ENDBRANCH   1  45
TORSDOF 15
ENDMDL
