MODEL 1
REMARK VINA RESULT: -10.056660757      0.000      0.000
REMARK  15 active torsions:
REMARK  status: ('A' for Active; 'I' for Inactive)
REMARK    1  A    between atoms: C2_2  and  C3_3 
REMARK    2  A    between atoms: C3_3  and  N1_4 
REMARK    3  A    between atoms: C3_3  and  C6_9 
REMARK       I    between atoms: N1_4  and  C4_6 
REMARK    4  A    between atoms: C7_13  and  C8_14 
REMARK    5  A    between atoms: C9_17  and  N4_18 
REMARK    6  A    between atoms: N4_18  and  C10_20 
REMARK    7  A    between atoms: C10_20  and  O3_21 
REMARK    8  A    between atoms: C10_20  and  C11_23 
REMARK    9  A    between atoms: N7_28  and  C12_29 
REMARK   10  A    between atoms: C12_29  and  C13_30 
REMARK   11  A    between atoms: C13_30  and  O4_31 
REMARK   12  A    between atoms: C13_30  and  C14_33 
REMARK   13  A    between atoms: C14_33  and  C15_35 
REMARK   14  A    between atoms: C17_40  and  N10_41 
REMARK   15  A    between atoms: C20_53  and  O7_54 
ROOT
HETATM    1  C10 UNL     1      -0.959   5.064   9.342  1.00  0.00     0.203 C 
ENDROOT
BRANCH   1   2
HETATM    2  N4  UNL     1      -0.967   5.327   7.994  1.00  0.00    -0.167 N 
ATOM      3  H4  UNL     1      -1.802   5.003   7.506  1.00  0.00     0.186 HD
BRANCH   2   4
HETATM    4  C9  UNL     1      -0.035   5.957   7.179  1.00  0.00     0.684 A 
HETATM    5  N3  UNL     1       0.298   5.263   6.027  1.00  0.00    -0.184 N 
HETATM    6  C8  UNL     1       1.190   5.715   5.126  1.00  0.00     0.137 A 
ATOM      7  H3  UNL     1      -0.153   4.365   5.853  1.00  0.00     0.184 HD
HETATM    8  C20 UNL     1       1.781   6.921   5.383  1.00  0.00     0.113 A 
HETATM    9  C19 UNL     1       1.446   7.632   6.555  1.00  0.00     0.145 A 
HETATM   10  N13 UNL     1       0.557   7.125   7.400  1.00  0.00    -0.199 N 
ATOM     11  H13 UNL     1       0.321   7.647   8.244  1.00  0.00     0.183 HD
BRANCH   6  12
HETATM   12  C7  UNL     1       1.479   4.909   3.936  1.00  0.00     0.202 A 
HETATM   13  O2  UNL     1       1.305   3.593   3.850  1.00  0.00    -0.216 OA
HETATM   14  N2  UNL     1       1.635   3.140   2.699  1.00  0.00    -0.245 N 
HETATM   15  C6  UNL     1       2.065   4.173   1.922  1.00  0.00     0.127 A 
ATOM     16  H2  UNL     1       1.585   2.163   2.410  1.00  0.00     0.196 HD
HETATM   17  N14 UNL     1       1.947   5.236   2.735  1.00  0.00    -0.320 N 
ATOM     18  H14 UNL     1       2.189   6.188   2.462  1.00  0.00     0.169 HD
BRANCH  15  19
HETATM   19  C3  UNL     1       2.545   4.101   0.518  1.00  0.00     0.153 C 
BRANCH  19  20
HETATM   20  C2  UNL     1       3.939   3.503   0.470  1.00  0.00     0.028 C 
HETATM   21  C1  UNL     1       4.983   4.522   0.129  1.00  0.00     0.007 C 
ENDBRANCH  19  20
BRANCH  19  22
HETATM   22  N1  UNL     1       2.482   5.418  -0.057  1.00  0.00    -0.350 N 
HETATM   23  C4  UNL     1       1.645   5.726  -1.164  1.00  0.00     0.214 C 
HETATM   24  C5  UNL     1       1.611   7.103  -1.723  1.00  0.00     0.117 C 
HETATM   25  O1  UNL     1       0.912   4.827  -1.695  1.00  0.00    -0.274 OA
ATOM     26  H1  UNL     1       3.058   6.157   0.345  1.00  0.00     0.163 HD
ENDBRANCH  19  22
ENDBRANCH  15  19
ENDBRANCH   6  12
BRANCH   8  27
HETATM   27  O7  UNL     1       2.685   7.486   4.572  1.00  0.00    -0.357 OA
ATOM     28  H7  UNL     1       2.719   8.418   4.396  1.00  0.00     0.217 HD
ENDBRANCH   8  27
ENDBRANCH   2   4
ENDBRANCH   1   2
BRANCH   1  29
HETATM   29  O3  UNL     1      -1.984   5.546  10.043  1.00  0.00    -0.343 OA
ATOM     30  H3  UNL     1      -2.442   4.926  10.598  1.00  0.00     0.219 HD
ENDBRANCH   1  29
BRANCH   1  31
HETATM   31  C11 UNL     1       0.021   4.328  10.115  1.00  0.00     0.189 A 
HETATM   32  N5  UNL     1      -0.332   3.513  11.191  1.00  0.00    -0.265 N 
HETATM   33  N6  UNL     1       0.761   3.021  11.668  1.00  0.00    -0.224 N 
ATOM     34  H5  UNL     1      -1.276   3.340  11.536  1.00  0.00     0.190 HD
HETATM   35  N7  UNL     1       1.811   3.443  10.994  1.00  0.00    -0.215 N 
ATOM     36  H6  UNL     1       0.807   2.386  12.464  1.00  0.00     0.210 HD
HETATM   37  N12 UNL     1       1.333   4.227  10.067  1.00  0.00    -0.263 N 
ATOM     38  H12 UNL     1       1.913   4.708   9.380  1.00  0.00     0.190 HD
BRANCH  35  39
HETATM   39  C12 UNL     1       3.183   3.093  11.251  1.00  0.00     0.211 C 
BRANCH  39  40
HETATM   40  C13 UNL     1       3.864   4.146  12.130  1.00  0.00     0.214 C 
BRANCH  40  41
HETATM   41  O4  UNL     1       3.670   5.352  11.381  1.00  0.00    -0.386 OA
ATOM     42  H4  UNL     1       3.386   5.967  12.047  1.00  0.00     0.210 HD
ENDBRANCH  40  41
BRANCH  40  43
HETATM   43  C14 UNL     1       3.182   4.304  13.413  1.00  0.00     0.198 C 
HETATM   44  O5  UNL     1       2.688   3.210  13.895  1.00  0.00    -0.289 OA
BRANCH  43  45
HETATM   45  C15 UNL     1       2.998   5.508  14.185  1.00  0.00     0.122 A 
HETATM   46  C16 UNL     1       1.989   6.395  13.792  1.00  0.00     0.151 A 
HETATM   47  N8  UNL     1       1.167   6.093  12.681  1.00  0.00    -0.081 NA
HETATM   48  N9  UNL     1       1.851   7.517  14.508  1.00  0.00    -0.178 N 
HETATM   49  C17 UNL     1       2.609   7.846  15.568  1.00  0.00     0.680 A 
ATOM     50  H9  UNL     1       1.119   8.169  14.228  1.00  0.00     0.185 HD
HETATM   51  N11 UNL     1       3.575   7.002  15.949  1.00  0.00    -0.155 N 
HETATM   52  C18 UNL     1       3.766   5.836  15.255  1.00  0.00     0.277 A 
ATOM     53  H11 UNL     1       4.165   7.225  16.750  1.00  0.00     0.187 HD
HETATM   54  O6  UNL     1       4.687   5.093  15.659  1.00  0.00    -0.267 OA
BRANCH  49  55
HETATM   55  N10 UNL     1       2.432   8.934  16.217  1.00  0.00    -0.234 N 
ATOM     56 2H10 UNL     1       3.049   9.728  16.045  1.00  0.00     0.174 HD
ATOM     57 1H10 UNL     1       1.687   9.037  16.907  1.00  0.00     0.174 HD
ENDBRANCH  49  55
ENDBRANCH  43  45
ENDBRANCH  40  43
ENDBRANCH  39  40
ENDBRANCH  35  39
ENDBRANCH   1  31
TORSDOF 15
ENDMDL
MODEL 2
REMARK VINA RESULT: -9.894911348      2.332     11.100
REMARK  15 active torsions:
REMARK  status: ('A' for Active; 'I' for Inactive)
REMARK    1  A    between atoms: C2_2  and  C3_3 
REMARK    2  A    between atoms: C3_3  and  N1_4 
REMARK    3  A    between atoms: C3_3  and  C6_9 
REMARK       I    between atoms: N1_4  and  C4_6 
REMARK    4  A    between atoms: C7_13  and  C8_14 
REMARK    5  A    between atoms: C9_17  and  N4_18 
REMARK    6  A    between atoms: N4_18  and  C10_20 
REMARK    7  A    between atoms: C10_20  and  O3_21 
REMARK    8  A    between atoms: C10_20  and  C11_23 
REMARK    9  A    between atoms: N7_28  and  C12_29 
REMARK   10  A    between atoms: C12_29  and  C13_30 
REMARK   11  A    between atoms: C13_30  and  O4_31 
REMARK   12  A    between atoms: C13_30  and  C14_33 
REMARK   13  A    between atoms: C14_33  and  C15_35 
REMARK   14  A    between atoms: C17_40  and  N10_41 
REMARK   15  A    between atoms: C20_53  and  O7_54 
ROOT
HETATM    1  C10 UNL     1      -0.247   4.171   6.725  1.00  0.00     0.203 C 
ENDROOT
BRANCH   1   2
HETATM    2  N4  UNL     1      -1.421   4.849   6.944  1.00  0.00    -0.167 N 
ATOM      3  H4  UNL     1      -2.159   4.642   6.271  1.00  0.00     0.186 HD
BRANCH   2   4
HETATM    4  C9  UNL     1      -1.779   5.765   7.924  1.00  0.00     0.684 A 
HETATM    5  N3  UNL     1      -0.906   5.843   8.999  1.00  0.00    -0.184 N 
HETATM    6  C8  UNL     1      -1.097   6.668  10.045  1.00  0.00     0.137 A 
ATOM      7  H3  UNL     1      -0.079   5.247   8.997  1.00  0.00     0.184 HD
HETATM    8  C20 UNL     1      -2.214   7.458  10.022  1.00  0.00     0.113 A 
HETATM    9  C19 UNL     1      -3.106   7.382   8.931  1.00  0.00     0.145 A 
HETATM   10  N13 UNL     1      -2.854   6.544   7.933  1.00  0.00    -0.199 N 
ATOM     11  H13 UNL     1      -3.504   6.498   7.149  1.00  0.00     0.183 HD
BRANCH   6  12
HETATM   12  C7  UNL     1      -0.120   6.681  11.136  1.00  0.00     0.202 A 
HETATM   13  O2  UNL     1       0.233   7.762  11.827  1.00  0.00    -0.216 OA
HETATM   14  N2  UNL     1       1.105   7.494  12.725  1.00  0.00    -0.245 N 
HETATM   15  C6  UNL     1       1.394   6.163  12.680  1.00  0.00     0.127 A 
ATOM     16  H2  UNL     1       1.518   8.167  13.370  1.00  0.00     0.196 HD
HETATM   17  N14 UNL     1       0.612   5.715  11.684  1.00  0.00    -0.320 N 
ATOM     18  H14 UNL     1       0.581   4.742  11.382  1.00  0.00     0.169 HD
BRANCH  15  19
HETATM   19  C3  UNL     1       2.354   5.423  13.539  1.00  0.00     0.153 C 
BRANCH  19  20
HETATM   20  C2  UNL     1       2.873   6.327  14.643  1.00  0.00     0.028 C 
HETATM   21  C1  UNL     1       3.892   5.643  15.504  1.00  0.00     0.007 C 
ENDBRANCH  19  20
BRANCH  19  22
HETATM   22  N1  UNL     1       3.403   4.897  12.708  1.00  0.00    -0.350 N 
HETATM   23  C4  UNL     1       3.274   3.665  12.009  1.00  0.00     0.214 C 
HETATM   24  C5  UNL     1       4.384   3.162  11.159  1.00  0.00     0.117 C 
HETATM   25  O1  UNL     1       2.205   2.975  12.100  1.00  0.00    -0.274 OA
ATOM     26  H1  UNL     1       4.270   5.425  12.617  1.00  0.00     0.163 HD
ENDBRANCH  19  22
ENDBRANCH  15  19
ENDBRANCH   6  12
BRANCH   8  27
HETATM   27  O7  UNL     1      -2.526   8.321  10.998  1.00  0.00    -0.357 OA
ATOM     28  H7  UNL     1      -2.321   9.248  10.961  1.00  0.00     0.217 HD
ENDBRANCH   8  27
ENDBRANCH   2   4
ENDBRANCH   1   2
BRANCH   1  29
HETATM   29  O3  UNL     1       0.414   3.769   7.808  1.00  0.00    -0.343 OA
ATOM     30  H3  UNL     1       1.058   3.083   7.677  1.00  0.00     0.219 HD
ENDBRANCH   1  29
BRANCH   1  31
HETATM   31  C11 UNL     1       0.379   3.831   5.462  1.00  0.00     0.189 A 
HETATM   32  N5  UNL     1       1.710   4.138   5.179  1.00  0.00    -0.265 N 
HETATM   33  N6  UNL     1       1.948   3.720   3.982  1.00  0.00    -0.224 N 
ATOM     34  H5  UNL     1       2.370   4.605   5.801  1.00  0.00     0.190 HD
HETATM   35  N7  UNL     1       0.882   3.161   3.448  1.00  0.00    -0.215 N 
ATOM     36  H6  UNL     1       2.847   3.812   3.509  1.00  0.00     0.210 HD
HETATM   37  N12 UNL     1      -0.044   3.242   4.363  1.00  0.00    -0.263 N 
ATOM     38  H12 UNL     1      -0.992   2.889   4.240  1.00  0.00     0.190 HD
BRANCH  35  39
HETATM   39  C12 UNL     1       0.793   2.587   2.131  1.00  0.00     0.211 C 
BRANCH  39  40
HETATM   40  C13 UNL     1       0.354   3.635   1.104  1.00  0.00     0.214 C 
BRANCH  40  41
HETATM   41  O4  UNL     1       0.419   4.854   1.853  1.00  0.00    -0.386 OA
ATOM     42  H4  UNL     1       0.168   5.507   1.210  1.00  0.00     0.210 HD
ENDBRANCH  40  41
BRANCH  40  43
HETATM   43  C14 UNL     1       1.303   3.740  -0.003  1.00  0.00     0.198 C 
HETATM   44  O5  UNL     1       0.890   3.220  -1.113  1.00  0.00    -0.289 OA
BRANCH  43  45
HETATM   45  C15 UNL     1       2.614   4.340  -0.001  1.00  0.00     0.122 A 
HETATM   46  C16 UNL     1       2.736   5.658  -0.456  1.00  0.00     0.151 A 
HETATM   47  N8  UNL     1       1.592   6.376  -0.880  1.00  0.00    -0.081 NA
HETATM   48  N9  UNL     1       3.965   6.187  -0.469  1.00  0.00    -0.178 N 
HETATM   49  C17 UNL     1       5.079   5.543  -0.078  1.00  0.00     0.680 A 
ATOM     50  H9  UNL     1       4.063   7.147  -0.799  1.00  0.00     0.185 HD
HETATM   51  N11 UNL     1       4.968   4.284   0.358  1.00  0.00    -0.155 N 
HETATM   52  C18 UNL     1       3.735   3.687   0.395  1.00  0.00     0.277 A 
ATOM     53  H11 UNL     1       5.795   3.770   0.662  1.00  0.00     0.187 HD
HETATM   54  O6  UNL     1       3.700   2.507   0.808  1.00  0.00    -0.267 OA
BRANCH  49  55
HETATM   55  N10 UNL     1       6.230   6.100  -0.111  1.00  0.00    -0.234 N 
ATOM     56 2H10 UNL     1       6.485   6.771   0.613  1.00  0.00     0.174 HD
ATOM     57 1H10 UNL     1       6.909   5.893  -0.844  1.00  0.00     0.174 HD
ENDBRANCH  49  55
ENDBRANCH  43  45
ENDBRANCH  40  43
ENDBRANCH  39  40
ENDBRANCH  35  39
ENDBRANCH   1  31
TORSDOF 15
ENDMDL
MODEL 3
REMARK VINA RESULT: -9.869636734      1.838      2.424
REMARK  15 active torsions:
REMARK  status: ('A' for Active; 'I' for Inactive)
REMARK    1  A    between atoms: C2_2  and  C3_3 
REMARK    2  A    between atoms: C3_3  and  N1_4 
REMARK    3  A    between atoms: C3_3  and  C6_9 
REMARK       I    between atoms: N1_4  and  C4_6 
REMARK    4  A    between atoms: C7_13  and  C8_14 
REMARK    5  A    between atoms: C9_17  and  N4_18 
REMARK    6  A    between atoms: N4_18  and  C10_20 
REMARK    7  A    between atoms: C10_20  and  O3_21 
REMARK    8  A    between atoms: C10_20  and  C11_23 
REMARK    9  A    between atoms: N7_28  and  C12_29 
REMARK   10  A    between atoms: C12_29  and  C13_30 
REMARK   11  A    between atoms: C13_30  and  O4_31 
REMARK   12  A    between atoms: C13_30  and  C14_33 
REMARK   13  A    between atoms: C14_33  and  C15_35 
REMARK   14  A    between atoms: C17_40  and  N10_41 
REMARK   15  A    between atoms: C20_53  and  O7_54 
ROOT
HETATM    1  C10 UNL     1      -1.232   7.414  10.018  1.00  0.00     0.203 C 
ENDROOT
BRANCH   1   2
HETATM    2  N4  UNL     1      -1.085   8.073   8.822  1.00  0.00    -0.167 N 
ATOM      3  H4  UNL     1      -1.957   8.418   8.420  1.00  0.00     0.186 HD
BRANCH   2   4
HETATM    4  C9  UNL     1       0.044   8.353   8.064  1.00  0.00     0.684 A 
HETATM    5  N3  UNL     1       0.305   7.448   7.047  1.00  0.00    -0.184 N 
HETATM    6  C8  UNL     1       1.361   7.554   6.219  1.00  0.00     0.137 A 
ATOM      7  H3  UNL     1      -0.333   6.663   6.920  1.00  0.00     0.184 HD
HETATM    8  C20 UNL     1       2.202   8.615   6.411  1.00  0.00     0.113 A 
HETATM    9  C19 UNL     1       1.942   9.539   7.445  1.00  0.00     0.145 A 
HETATM   10  N13 UNL     1       0.880   9.372   8.225  1.00  0.00    -0.199 N 
ATOM     11  H13 UNL     1       0.701  10.046   8.969  1.00  0.00     0.183 HD
BRANCH   6  12
HETATM   12  C7  UNL     1       1.555   6.547   5.172  1.00  0.00     0.202 A 
HETATM   13  O2  UNL     1       0.804   5.460   5.015  1.00  0.00    -0.216 OA
HETATM   14  N2  UNL     1       1.191   4.749   4.023  1.00  0.00    -0.245 N 
HETATM   15  C6  UNL     1       2.265   5.348   3.440  1.00  0.00     0.127 A 
ATOM     16  H2  UNL     1       0.763   3.875   3.719  1.00  0.00     0.196 HD
HETATM   17  N14 UNL     1       2.444   6.450   4.188  1.00  0.00    -0.320 N 
ATOM     18  H14 UNL     1       3.180   7.135   4.021  1.00  0.00     0.169 HD
BRANCH  15  19
HETATM   19  C3  UNL     1       3.031   4.867   2.261  1.00  0.00     0.153 C 
BRANCH  19  20
HETATM   20  C2  UNL     1       4.233   5.763   2.016  1.00  0.00     0.028 C 
HETATM   21  C1  UNL     1       4.908   5.462   0.712  1.00  0.00     0.007 C 
ENDBRANCH  19  20
BRANCH  19  22
HETATM   22  N1  UNL     1       2.143   4.802   1.132  1.00  0.00    -0.350 N 
HETATM   23  C4  UNL     1       1.389   3.636   0.823  1.00  0.00     0.214 C 
HETATM   24  C5  UNL     1       0.481   3.616  -0.353  1.00  0.00     0.117 C 
HETATM   25  O1  UNL     1       1.480   2.592   1.550  1.00  0.00    -0.274 OA
ATOM     26  H1  UNL     1       2.051   5.621   0.531  1.00  0.00     0.163 HD
ENDBRANCH  19  22
ENDBRANCH  15  19
ENDBRANCH   6  12
BRANCH   8  27
HETATM   27  O7  UNL     1       3.289   8.839   5.661  1.00  0.00    -0.357 OA
ATOM     28  H7  UNL     1       4.077   9.251   5.993  1.00  0.00     0.217 HD
ENDBRANCH   8  27
ENDBRANCH   2   4
ENDBRANCH   1   2
BRANCH   1  29
HETATM   29  O3  UNL     1      -2.010   8.001  10.924  1.00  0.00    -0.343 OA
ATOM     30  H3  UNL     1      -2.075   7.568  11.767  1.00  0.00     0.219 HD
ENDBRANCH   1  29
BRANCH   1  31
HETATM   31  C11 UNL     1      -0.650   6.153  10.433  1.00  0.00     0.189 A 
HETATM   32  N5  UNL     1      -1.421   5.093  10.910  1.00  0.00    -0.265 N 
HETATM   33  N6  UNL     1      -0.607   4.136  11.207  1.00  0.00    -0.224 N 
ATOM     34  H5  UNL     1      -2.436   5.077  11.007  1.00  0.00     0.190 HD
HETATM   35  N7  UNL     1       0.642   4.477  10.965  1.00  0.00    -0.215 N 
ATOM     36  H6  UNL     1      -0.894   3.232  11.580  1.00  0.00     0.210 HD
HETATM   37  N12 UNL     1       0.583   5.694  10.500  1.00  0.00    -0.263 N 
ATOM     38  H12 UNL     1       1.402   6.232  10.220  1.00  0.00     0.190 HD
BRANCH  35  39
HETATM   39  C12 UNL     1       1.803   3.654  11.177  1.00  0.00     0.211 C 
BRANCH  39  40
HETATM   40  C13 UNL     1       2.326   3.800  12.609  1.00  0.00     0.214 C 
BRANCH  40  41
HETATM   41  O4  UNL     1       3.434   2.891  12.632  1.00  0.00    -0.386 OA
ATOM     42  H4  UNL     1       4.145   3.438  12.943  1.00  0.00     0.210 HD
ENDBRANCH  40  41
BRANCH  40  43
HETATM   43  C14 UNL     1       2.846   5.142  12.862  1.00  0.00     0.198 C 
HETATM   44  O5  UNL     1       3.548   5.635  11.893  1.00  0.00    -0.289 OA
BRANCH  43  45
HETATM   45  C15 UNL     1       2.675   5.960  14.037  1.00  0.00     0.122 A 
HETATM   46  C16 UNL     1       3.529   5.740  15.123  1.00  0.00     0.151 A 
HETATM   47  N8  UNL     1       4.543   4.755  15.047  1.00  0.00    -0.081 NA
HETATM   48  N9  UNL     1       3.338   6.493  16.212  1.00  0.00    -0.178 N 
HETATM   49  C17 UNL     1       2.388   7.438  16.331  1.00  0.00     0.680 A 
ATOM     50  H9  UNL     1       3.956   6.340  17.009  1.00  0.00     0.185 HD
HETATM   51  N11 UNL     1       1.569   7.653  15.296  1.00  0.00    -0.155 N 
HETATM   52  C18 UNL     1       1.716   6.912  14.152  1.00  0.00     0.277 A 
ATOM     53  H11 UNL     1       0.840   8.363  15.357  1.00  0.00     0.187 HD
HETATM   54  O6  UNL     1       0.916   7.159  13.224  1.00  0.00    -0.267 OA
BRANCH  49  55
HETATM   55  N10 UNL     1       2.251   8.131  17.398  1.00  0.00    -0.234 N 
ATOM     56 2H10 UNL     1       2.793   7.889  18.227  1.00  0.00     0.174 HD
ATOM     57 1H10 UNL     1       1.611   8.924  17.449  1.00  0.00     0.174 HD
ENDBRANCH  49  55
ENDBRANCH  43  45
ENDBRANCH  40  43
ENDBRANCH  39  40
ENDBRANCH  35  39
ENDBRANCH   1  31
TORSDOF 15
ENDMDL
MODEL 4
REMARK VINA RESULT: -9.792597579      4.109      7.789
REMARK  15 active torsions:
REMARK  status: ('A' for Active; 'I' for Inactive)
REMARK    1  A    between atoms: C2_2  and  C3_3 
REMARK    2  A    between atoms: C3_3  and  N1_4 
REMARK    3  A    between atoms: C3_3  and  C6_9 
REMARK       I    between atoms: N1_4  and  C4_6 
REMARK    4  A    between atoms: C7_13  and  C8_14 
REMARK    5  A    between atoms: C9_17  and  N4_18 
REMARK    6  A    between atoms: N4_18  and  C10_20 
REMARK    7  A    between atoms: C10_20  and  O3_21 
REMARK    8  A    between atoms: C10_20  and  C11_23 
REMARK    9  A    between atoms: N7_28  and  C12_29 
REMARK   10  A    between atoms: C12_29  and  C13_30 
REMARK   11  A    between atoms: C13_30  and  O4_31 
REMARK   12  A    between atoms: C13_30  and  C14_33 
REMARK   13  A    between atoms: C14_33  and  C15_35 
REMARK   14  A    between atoms: C17_40  and  N10_41 
REMARK   15  A    between atoms: C20_53  and  O7_54 
ROOT
HETATM    1  C10 UNL     1       1.568   2.827   1.447  1.00  0.00     0.203 C 
ENDROOT
BRANCH   1   2
HETATM    2  N4  UNL     1       2.914   2.913   1.188  1.00  0.00    -0.167 N 
ATOM      3  H4  UNL     1       3.383   2.012   1.091  1.00  0.00     0.186 HD
BRANCH   2   4
HETATM    4  C9  UNL     1       3.747   4.013   1.034  1.00  0.00     0.684 A 
HETATM    5  N3  UNL     1       3.467   5.081   1.872  1.00  0.00    -0.184 N 
HETATM    6  C8  UNL     1       4.163   6.232   1.857  1.00  0.00     0.137 A 
ATOM      7  H3  UNL     1       2.695   4.990   2.533  1.00  0.00     0.184 HD
HETATM    8  C20 UNL     1       5.193   6.328   0.962  1.00  0.00     0.113 A 
HETATM    9  C19 UNL     1       5.483   5.244   0.106  1.00  0.00     0.145 A 
HETATM   10  N13 UNL     1       4.753   4.137   0.176  1.00  0.00    -0.199 N 
ATOM     11  H13 UNL     1       4.971   3.360  -0.446  1.00  0.00     0.183 HD
BRANCH   6  12
HETATM   12  C7  UNL     1       3.792   7.308   2.781  1.00  0.00     0.202 A 
HETATM   13  O2  UNL     1       4.084   8.594   2.606  1.00  0.00    -0.216 OA
HETATM   14  N2  UNL     1       3.642   9.320   3.563  1.00  0.00    -0.245 N 
HETATM   15  C6  UNL     1       3.004   8.525   4.466  1.00  0.00     0.127 A 
ATOM     16  H2  UNL     1       3.749  10.332   3.637  1.00  0.00     0.196 HD
HETATM   17  N14 UNL     1       3.129   7.298   3.933  1.00  0.00    -0.320 N 
ATOM     18  H14 UNL     1       2.755   6.453   4.364  1.00  0.00     0.169 HD
BRANCH  15  19
HETATM   19  C3  UNL     1       2.345   8.949   5.728  1.00  0.00     0.153 C 
BRANCH  19  20
HETATM   20  C2  UNL     1       1.472  10.166   5.480  1.00  0.00     0.028 C 
HETATM   21  C1  UNL     1       0.561  10.456   6.634  1.00  0.00     0.007 C 
ENDBRANCH  19  20
BRANCH  19  22
HETATM   22  N1  UNL     1       3.360   9.183   6.720  1.00  0.00    -0.350 N 
HETATM   23  C4  UNL     1       3.380   8.495   7.965  1.00  0.00     0.214 C 
HETATM   24  C5  UNL     1       4.451   8.767   8.959  1.00  0.00     0.117 C 
HETATM   25  O1  UNL     1       2.481   7.636   8.248  1.00  0.00    -0.274 OA
ATOM     26  H1  UNL     1       4.092   9.865   6.523  1.00  0.00     0.163 HD
ENDBRANCH  19  22
ENDBRANCH  15  19
ENDBRANCH   6  12
BRANCH   8  27
HETATM   27  O7  UNL     1       5.965   7.416   0.841  1.00  0.00    -0.357 OA
ATOM     28  H7  UNL     1       6.735   7.573   1.374  1.00  0.00     0.217 HD
ENDBRANCH   8  27
ENDBRANCH   2   4
ENDBRANCH   1   2
BRANCH   1  29
HETATM   29  O3  UNL     1       0.791   2.486   0.421  1.00  0.00    -0.343 OA
ATOM     30  H3  UNL     1      -0.078   2.168   0.639  1.00  0.00     0.219 HD
ENDBRANCH   1  29
BRANCH   1  31
HETATM   31  C11 UNL     1       0.870   3.058   2.696  1.00  0.00     0.189 A 
HETATM   32  N5  UNL     1      -0.518   3.170   2.769  1.00  0.00    -0.265 N 
HETATM   33  N6  UNL     1      -0.816   3.387   4.005  1.00  0.00    -0.224 N 
ATOM     34  H5  UNL     1      -1.174   3.094   1.991  1.00  0.00     0.190 HD
HETATM   35  N7  UNL     1       0.263   3.428   4.759  1.00  0.00    -0.215 N 
ATOM     36  H6  UNL     1      -1.766   3.511   4.355  1.00  0.00     0.210 HD
HETATM   37  N12 UNL     1       1.260   3.226   3.942  1.00  0.00    -0.263 N 
ATOM     38  H12 UNL     1       2.236   3.202   4.238  1.00  0.00     0.190 HD
BRANCH  35  39
HETATM   39  C12 UNL     1       0.300   3.649   6.180  1.00  0.00     0.211 C 
BRANCH  39  40
HETATM   40  C13 UNL     1       0.681   5.098   6.502  1.00  0.00     0.214 C 
BRANCH  40  41
HETATM   41  O4  UNL     1       0.886   5.663   5.202  1.00  0.00    -0.386 OA
ATOM     42  H4  UNL     1       1.817   5.851   5.202  1.00  0.00     0.210 HD
ENDBRANCH  40  41
BRANCH  40  43
HETATM   43  C14 UNL     1      -0.421   5.820   7.134  1.00  0.00     0.198 C 
HETATM   44  O5  UNL     1      -0.474   7.079   6.839  1.00  0.00    -0.289 OA
BRANCH  43  45
HETATM   45  C15 UNL     1      -1.431   5.307   8.026  1.00  0.00     0.122 A 
HETATM   46  C16 UNL     1      -1.159   5.310   9.399  1.00  0.00     0.151 A 
HETATM   47  N8  UNL     1       0.067   5.827   9.883  1.00  0.00    -0.081 NA
HETATM   48  N9  UNL     1      -2.099   4.808  10.208  1.00  0.00    -0.178 N 
HETATM   49  C17 UNL     1      -3.276   4.306   9.794  1.00  0.00     0.680 A 
ATOM     50  H9  UNL     1      -1.909   4.806  11.210  1.00  0.00     0.185 HD
HETATM   51  N11 UNL     1      -3.541   4.301   8.483  1.00  0.00    -0.155 N 
HETATM   52  C18 UNL     1      -2.617   4.802   7.604  1.00  0.00     0.277 A 
ATOM     53  H11 UNL     1      -4.425   3.927   8.140  1.00  0.00     0.187 HD
HETATM   54  O6  UNL     1      -2.924   4.764   6.392  1.00  0.00    -0.267 OA
BRANCH  49  55
HETATM   55  N10 UNL     1      -4.140   3.839  10.614  1.00  0.00    -0.234 N 
ATOM     56 2H10 UNL     1      -3.932   2.983  11.128  1.00  0.00     0.174 HD
ATOM     57 1H10 UNL     1      -5.037   4.297  10.773  1.00  0.00     0.174 HD
ENDBRANCH  49  55
ENDBRANCH  43  45
ENDBRANCH  40  43
ENDBRANCH  39  40
ENDBRANCH  35  39
ENDBRANCH   1  31
TORSDOF 15
ENDMDL
MODEL 5
REMARK VINA RESULT: -9.782374761      2.357      3.458
REMARK  15 active torsions:
REMARK  status: ('A' for Active; 'I' for Inactive)
REMARK    1  A    between atoms: C2_2  and  C3_3 
REMARK    2  A    between atoms: C3_3  and  N1_4 
REMARK    3  A    between atoms: C3_3  and  C6_9 
REMARK       I    between atoms: N1_4  and  C4_6 
REMARK    4  A    between atoms: C7_13  and  C8_14 
REMARK    5  A    between atoms: C9_17  and  N4_18 
REMARK    6  A    between atoms: N4_18  and  C10_20 
REMARK    7  A    between atoms: C10_20  and  O3_21 
REMARK    8  A    between atoms: C10_20  and  C11_23 
REMARK    9  A    between atoms: N7_28  and  C12_29 
REMARK   10  A    between atoms: C12_29  and  C13_30 
REMARK   11  A    between atoms: C13_30  and  O4_31 
REMARK   12  A    between atoms: C13_30  and  C14_33 
REMARK   13  A    between atoms: C14_33  and  C15_35 
REMARK   14  A    between atoms: C17_40  and  N10_41 
REMARK   15  A    between atoms: C20_53  and  O7_54 
ROOT
HETATM    1  C10 UNL     1      -2.658   7.403   9.189  1.00  0.00     0.203 C 
ENDROOT
BRANCH   1   2
HETATM    2  N4  UNL     1      -1.940   8.107   8.254  1.00  0.00    -0.167 N 
ATOM      3  H4  UNL     1      -2.510   8.669   7.620  1.00  0.00     0.186 HD
BRANCH   2   4
HETATM    4  C9  UNL     1      -0.574   8.189   8.020  1.00  0.00     0.684 A 
HETATM    5  N3  UNL     1      -0.084   7.281   7.094  1.00  0.00    -0.184 N 
HETATM    6  C8  UNL     1       1.215   7.208   6.750  1.00  0.00     0.137 A 
ATOM      7  H3  UNL     1      -0.739   6.637   6.652  1.00  0.00     0.184 HD
HETATM    8  C20 UNL     1       2.072   8.083   7.357  1.00  0.00     0.113 A 
HETATM    9  C19 UNL     1       1.580   9.009   8.302  1.00  0.00     0.145 A 
HETATM   10  N13 UNL     1       0.284   9.024   8.593  1.00  0.00    -0.199 N 
ATOM     11  H13 UNL     1      -0.062   9.698   9.276  1.00  0.00     0.183 HD
BRANCH   6  12
HETATM   12  C7  UNL     1       1.640   6.213   5.761  1.00  0.00     0.202 A 
HETATM   13  O2  UNL     1       2.645   5.358   5.928  1.00  0.00    -0.216 OA
HETATM   14  N2  UNL     1       2.803   4.599   4.909  1.00  0.00    -0.245 N 
HETATM   15  C6  UNL     1       1.873   4.921   3.967  1.00  0.00     0.127 A 
ATOM     16  H2  UNL     1       3.512   3.871   4.817  1.00  0.00     0.196 HD
HETATM   17  N14 UNL     1       1.186   5.920   4.546  1.00  0.00    -0.320 N 
ATOM     18  H14 UNL     1       0.403   6.399   4.103  1.00  0.00     0.169 HD
BRANCH  15  19
HETATM   19  C3  UNL     1       1.695   4.296   2.631  1.00  0.00     0.153 C 
BRANCH  19  20
HETATM   20  C2  UNL     1       0.408   3.492   2.596  1.00  0.00     0.028 C 
HETATM   21  C1  UNL     1       0.523   2.204   3.352  1.00  0.00     0.007 C 
ENDBRANCH  19  20
BRANCH  19  22
HETATM   22  N1  UNL     1       2.858   3.502   2.337  1.00  0.00    -0.350 N 
HETATM   23  C4  UNL     1       3.343   3.325   1.012  1.00  0.00     0.214 C 
HETATM   24  C5  UNL     1       4.551   2.497   0.757  1.00  0.00     0.117 C 
HETATM   25  O1  UNL     1       2.750   3.871   0.024  1.00  0.00    -0.274 OA
ATOM     26  H1  UNL     1       3.352   3.051   3.106  1.00  0.00     0.163 HD
ENDBRANCH  19  22
ENDBRANCH  15  19
ENDBRANCH   6  12
BRANCH   8  27
HETATM   27  O7  UNL     1       3.389   8.117   7.109  1.00  0.00    -0.357 OA
ATOM     28  H7  UNL     1       3.901   8.916   7.118  1.00  0.00     0.217 HD
ENDBRANCH   8  27
ENDBRANCH   2   4
ENDBRANCH   1   2
BRANCH   1  29
HETATM   29  O3  UNL     1      -3.736   8.007   9.684  1.00  0.00    -0.343 OA
ATOM     30  H3  UNL     1      -4.088   7.648  10.490  1.00  0.00     0.219 HD
ENDBRANCH   1  29
BRANCH   1  31
HETATM   31  C11 UNL     1      -2.401   6.078   9.718  1.00  0.00     0.189 A 
HETATM   32  N5  UNL     1      -3.382   5.087   9.767  1.00  0.00    -0.265 N 
HETATM   33  N6  UNL     1      -2.841   4.045  10.302  1.00  0.00    -0.224 N 
ATOM     34  H5  UNL     1      -4.345   5.171   9.441  1.00  0.00     0.190 HD
HETATM   35  N7  UNL     1      -1.580   4.265  10.611  1.00  0.00    -0.215 N 
ATOM     36  H6  UNL     1      -3.327   3.164  10.464  1.00  0.00     0.210 HD
HETATM   37  N12 UNL     1      -1.345   5.495  10.248  1.00  0.00    -0.263 N 
ATOM     38  H12 UNL     1      -0.443   5.956  10.362  1.00  0.00     0.190 HD
BRANCH  35  39
HETATM   39  C12 UNL     1      -0.677   3.323  11.220  1.00  0.00     0.211 C 
BRANCH  39  40
HETATM   40  C13 UNL     1       0.595   3.161  10.382  1.00  0.00     0.214 C 
BRANCH  40  41
HETATM   41  O4  UNL     1       0.113   3.335   9.044  1.00  0.00    -0.386 OA
ATOM     42  H4  UNL     1      -0.830   3.327   9.161  1.00  0.00     0.210 HD
ENDBRANCH  40  41
BRANCH  40  43
HETATM   43  C14 UNL     1       1.560   4.224  10.650  1.00  0.00     0.198 C 
HETATM   44  O5  UNL     1       1.851   4.955   9.622  1.00  0.00    -0.289 OA
BRANCH  43  45
HETATM   45  C15 UNL     1       2.212   4.547  11.895  1.00  0.00     0.122 A 
HETATM   46  C16 UNL     1       3.280   3.741  12.307  1.00  0.00     0.151 A 
HETATM   47  N8  UNL     1       3.710   2.659  11.502  1.00  0.00    -0.081 NA
HETATM   48  N9  UNL     1       3.855   4.043  13.476  1.00  0.00    -0.178 N 
HETATM   49  C17 UNL     1       3.480   5.058  14.274  1.00  0.00     0.680 A 
ATOM     50  H9  UNL     1       4.634   3.461  13.785  1.00  0.00     0.185 HD
HETATM   51  N11 UNL     1       2.460   5.832  13.885  1.00  0.00    -0.155 N 
HETATM   52  C18 UNL     1       1.830   5.572  12.696  1.00  0.00     0.277 A 
ATOM     53  H11 UNL     1       2.154   6.609  14.469  1.00  0.00     0.187 HD
HETATM   54  O6  UNL     1       0.882   6.329  12.392  1.00  0.00    -0.267 OA
BRANCH  49  55
HETATM   55  N10 UNL     1       4.068   5.302  15.384  1.00  0.00    -0.234 N 
ATOM     56 2H10 UNL     1       5.071   5.139  15.467  1.00  0.00     0.174 HD
ATOM     57 1H10 UNL     1       3.563   5.656  16.197  1.00  0.00     0.174 HD
ENDBRANCH  49  55
ENDBRANCH  43  45
ENDBRANCH  40  43
ENDBRANCH  39  40
ENDBRANCH  35  39
ENDBRANCH   1  31
TORSDOF 15
ENDMDL
