MODEL 1
REMARK VINA RESULT: -8.798228540      0.000      0.000
REMARK  15 active torsions:
REMARK  status: ('A' for Active; 'I' for Inactive)
REMARK    1  A    between atoms: C2_5  and  C3_6 
REMARK    2  A    between atoms: C5_18  and  C6_19 
REMARK    3  A    between atoms: C6_19  and  C7_20 
REMARK    4  A    between atoms: C7_20  and  C8_21 
REMARK    5  A    between atoms: C8_21  and  C9_22 
REMARK    6  A    between atoms: C9_22  and  C10_23 
REMARK    7  A    between atoms: C10_23  and  N7_24 
REMARK    8  A    between atoms: N8_28  and  C11_30 
REMARK    9  A    between atoms: C12_32  and  C13_33 
REMARK   10  A    between atoms: C13_33  and  C14_34 
REMARK   11  A    between atoms: C14_34  and  S1_35 
REMARK   12  A    between atoms: S1_35  and  C15_36 
REMARK   13  A    between atoms: C17_41  and  C18_42 
REMARK   14  A    between atoms: C20_49  and  O5_50 
REMARK   15  A    between atoms: N13_52  and  O6_53 
ROOT
HETATM    1  C6  UNL     1       2.893   4.844   6.850  1.00  0.00     0.058 C 
HETATM    2  N8  UNL     1       3.933   4.231   7.212  1.00  0.00    -0.320 N 
ATOM      3  H8  UNL     1       4.378   3.633   6.516  1.00  0.00     0.169 HD
ENDROOT
BRANCH   1   4
HETATM    4  C5  UNL     1       2.372   4.676   5.470  1.00  0.00     0.146 A 
HETATM    5  N1  UNL     1       1.126   4.327   5.126  1.00  0.00    -0.278 N 
HETATM    6  C1  UNL     1       0.047   4.006   6.035  1.00  0.00     0.179 C 
HETATM    7  N2  UNL     1       1.034   4.314   3.787  1.00  0.00    -0.280 N 
HETATM    8  C2  UNL     1       2.214   4.655   3.271  1.00  0.00     0.154 A 
ATOM      9  H2  UNL     1       0.197   4.081   3.253  1.00  0.00     0.189 HD
HETATM   10  N6  UNL     1       3.022   4.873   4.322  1.00  0.00    -0.323 N 
ATOM     11  H6  UNL     1       4.001   5.151   4.252  1.00  0.00     0.169 HD
BRANCH   8  12
HETATM   12  C3  UNL     1       2.640   4.790   1.880  1.00  0.00     0.147 A 
HETATM   13  N3  UNL     1       2.352   5.808   1.046  1.00  0.00    -0.234 N 
HETATM   14  O1  UNL     1       2.897   5.597  -0.112  1.00  0.00    -0.155 OA
ATOM     15  H3  UNL     1       1.788   6.623   1.289  1.00  0.00     0.197 HD
HETATM   16  N4  UNL     1       3.545   4.482  -0.104  1.00  0.00    -0.224 N 
HETATM   17  C4  UNL     1       3.415   3.926   1.136  1.00  0.00     0.154 A 
ATOM     18  H4  UNL     1       4.063   4.085  -0.887  1.00  0.00     0.198 HD
HETATM   19  N5  UNL     1       3.934   2.823   1.479  1.00  0.00    -0.382 N 
ATOM     20  H52 UNL     1       3.836   2.408   2.406  1.00  0.00     0.157 HD
ATOM     21  H51 UNL     1       4.507   2.183   0.929  1.00  0.00     0.157 HD
ENDBRANCH   8  12
ENDBRANCH   1   4
BRANCH   1  22
HETATM   22  C7  UNL     1       2.149   5.778   7.744  1.00  0.00     0.061 C 
BRANCH  22  23
HETATM   23  C8  UNL     1       2.267   7.190   7.263  1.00  0.00     0.008 C 
BRANCH  23  24
HETATM   24  C9  UNL     1       1.039   7.800   6.696  1.00  0.00     0.027 C 
BRANCH  24  25
HETATM   25  C10 UNL     1       0.790   9.239   6.940  1.00  0.00     0.229 C 
BRANCH  25  26
HETATM   26  N7  UNL     1      -0.541   9.619   7.302  1.00  0.00    -0.079 N 
ATOM     27  H73 UNL     1      -0.868  10.353   6.674  1.00  0.00     0.274 HD
ATOM     28  H72 UNL     1      -1.186   8.865   7.063  1.00  0.00     0.274 HD
ATOM     29  H71 UNL     1      -0.697   9.904   8.268  1.00  0.00     0.274 HD
ENDBRANCH  25  26
ENDBRANCH  24  25
ENDBRANCH  23  24
ENDBRANCH  22  23
ENDBRANCH   1  22
BRANCH   2  30
HETATM   30  C11 UNL     1       4.541   4.288   8.478  1.00  0.00     0.258 A 
HETATM   31  O2  UNL     1       4.019   4.154   9.674  1.00  0.00    -0.278 OA
HETATM   32  C12 UNL     1       4.890   4.266  10.636  1.00  0.00     0.110 A 
HETATM   33  C20 UNL     1       6.091   4.495   9.999  1.00  0.00     0.201 A 
HETATM   34  N13 UNL     1       5.877   4.509   8.683  1.00  0.00    -0.160 N 
BRANCH  32  35
HETATM   35  C13 UNL     1       4.650   4.167  12.118  1.00  0.00     0.080 C 
BRANCH  35  36
HETATM   36  C14 UNL     1       3.166   3.981  12.311  1.00  0.00     0.089 C 
BRANCH  36  37
HETATM   37  S1  UNL     1       2.411   5.433  13.092  1.00  0.00    -0.093 SA
BRANCH  37  38
HETATM   38  C15 UNL     1       1.123   6.021  12.010  1.00  0.00     0.148 A 
HETATM   39  N9  UNL     1       0.157   5.135  11.636  1.00  0.00    -0.324 N 
HETATM   40  C16 UNL     1      -0.857   5.475  10.824  1.00  0.00     0.139 A 
ATOM     41  H9  UNL     1       0.206   4.178  11.986  1.00  0.00     0.169 HD
HETATM   42  N10 UNL     1      -1.866   4.550  10.432  1.00  0.00    -0.081 NA
HETATM   43  C17 UNL     1      -0.956   6.760  10.330  1.00  0.00     0.138 A 
HETATM   44  C19 UNL     1       0.023   7.651  10.711  1.00  0.00     0.266 A 
HETATM   45  O4  UNL     1      -0.052   8.826  10.270  1.00  0.00    -0.267 OA
HETATM   46  N12 UNL     1       1.042   7.274  11.540  1.00  0.00    -0.303 N 
ATOM     47  H12 UNL     1       1.752   7.956  11.805  1.00  0.00     0.171 HD
BRANCH  43  48
HETATM   48  C18 UNL     1      -2.067   7.128   9.443  1.00  0.00     0.273 C 
HETATM   49  N11 UNL     1      -2.001   6.929   8.039  1.00  0.00    -0.057 NA
HETATM   50  O3  UNL     1      -3.095   7.629   9.938  1.00  0.00    -0.271 OA
ENDBRANCH  43  48
ENDBRANCH  37  38
ENDBRANCH  36  37
ENDBRANCH  35  36
ENDBRANCH  32  35
BRANCH  33  51
HETATM   51  O5  UNL     1       7.304   4.675  10.685  1.00  0.00    -0.343 OA
ATOM     52  H5  UNL     1       8.146   4.408  10.333  1.00  0.00     0.219 HD
ENDBRANCH  33  51
BRANCH  34  53
HETATM   53  O6  UNL     1       6.779   4.701   7.684  1.00  0.00    -0.278 OA
ATOM     54  H6  UNL     1       6.912   5.530   7.239  1.00  0.00     0.245 HD
ENDBRANCH  34  53
ENDBRANCH   2  30
TORSDOF 15
ENDMDL
MODEL 2
REMARK VINA RESULT: -8.744025687      3.165      9.971
REMARK  15 active torsions:
REMARK  status: ('A' for Active; 'I' for Inactive)
REMARK    1  A    between atoms: C2_5  and  C3_6 
REMARK    2  A    between atoms: C5_18  and  C6_19 
REMARK    3  A    between atoms: C6_19  and  C7_20 
REMARK    4  A    between atoms: C7_20  and  C8_21 
REMARK    5  A    between atoms: C8_21  and  C9_22 
REMARK    6  A    between atoms: C9_22  and  C10_23 
REMARK    7  A    between atoms: C10_23  and  N7_24 
REMARK    8  A    between atoms: N8_28  and  C11_30 
REMARK    9  A    between atoms: C12_32  and  C13_33 
REMARK   10  A    between atoms: C13_33  and  C14_34 
REMARK   11  A    between atoms: C14_34  and  S1_35 
REMARK   12  A    between atoms: S1_35  and  C15_36 
REMARK   13  A    between atoms: C17_41  and  C18_42 
REMARK   14  A    between atoms: C20_49  and  O5_50 
REMARK   15  A    between atoms: N13_52  and  O6_53 
ROOT
HETATM    1  C6  UNL     1       1.045   5.909  11.153  1.00  0.00     0.058 C 
HETATM    2  N8  UNL     1      -0.194   5.732  11.000  1.00  0.00    -0.320 N 
ATOM      3  H8  UNL     1      -0.749   5.624  11.848  1.00  0.00     0.169 HD
ENDROOT
BRANCH   1   4
HETATM    4  C5  UNL     1       1.629   5.950  12.517  1.00  0.00     0.146 A 
HETATM    5  N1  UNL     1       2.352   4.987  13.103  1.00  0.00    -0.278 N 
HETATM    6  C1  UNL     1       2.677   3.697  12.534  1.00  0.00     0.179 C 
HETATM    7  N2  UNL     1       2.729   5.409  14.320  1.00  0.00    -0.280 N 
HETATM    8  C2  UNL     1       2.252   6.637  14.517  1.00  0.00     0.154 A 
ATOM      9  H2  UNL     1       3.289   4.875  14.985  1.00  0.00     0.189 HD
HETATM   10  N6  UNL     1       1.579   6.951  13.397  1.00  0.00    -0.323 N 
ATOM     11  H6  UNL     1       1.095   7.835  13.241  1.00  0.00     0.169 HD
BRANCH   8  12
HETATM   12  C3  UNL     1       2.377   7.533  15.665  1.00  0.00     0.147 A 
HETATM   13  N3  UNL     1       1.993   7.277  16.930  1.00  0.00    -0.234 N 
HETATM   14  O1  UNL     1       2.257   8.298  17.686  1.00  0.00    -0.155 OA
ATOM     15  H3  UNL     1       1.559   6.410  17.248  1.00  0.00     0.197 HD
HETATM   16  N4  UNL     1       2.804   9.237  16.992  1.00  0.00    -0.224 N 
HETATM   17  C4  UNL     1       2.904   8.806  15.700  1.00  0.00     0.154 A 
ATOM     18  H4  UNL     1       3.110  10.144  17.346  1.00  0.00     0.198 HD
HETATM   19  N5  UNL     1       3.400   9.491  14.758  1.00  0.00    -0.382 N 
ATOM     20  H52 UNL     1       3.474   9.169  13.793  1.00  0.00     0.157 HD
ATOM     21  H51 UNL     1       3.790  10.434  14.784  1.00  0.00     0.157 HD
ENDBRANCH   8  12
ENDBRANCH   1   4
BRANCH   1  22
HETATM   22  C7  UNL     1       1.982   6.115  10.010  1.00  0.00     0.061 C 
BRANCH  22  23
HETATM   23  C8  UNL     1       2.207   7.572   9.756  1.00  0.00     0.008 C 
BRANCH  23  24
HETATM   24  C9  UNL     1       1.681   8.110   8.476  1.00  0.00     0.027 C 
BRANCH  24  25
HETATM   25  C10 UNL     1       0.514   9.021   8.521  1.00  0.00     0.229 C 
BRANCH  25  26
HETATM   26  N7  UNL     1       0.068   9.447   9.812  1.00  0.00    -0.079 N 
ATOM     27  H73 UNL     1       0.535   8.895  10.532  1.00  0.00     0.274 HD
ATOM     28  H72 UNL     1       0.443  10.374  10.012  1.00  0.00     0.274 HD
ATOM     29  H71 UNL     1      -0.937   9.444   9.981  1.00  0.00     0.274 HD
ENDBRANCH  25  26
ENDBRANCH  24  25
ENDBRANCH  23  24
ENDBRANCH  22  23
ENDBRANCH   1  22
BRANCH   2  30
HETATM   30  C11 UNL     1      -0.887   5.670   9.779  1.00  0.00     0.258 A 
HETATM   31  O2  UNL     1      -0.756   4.836   8.774  1.00  0.00    -0.278 OA
HETATM   32  C12 UNL     1      -1.576   5.076   7.791  1.00  0.00     0.110 A 
HETATM   33  C20 UNL     1      -2.307   6.171   8.201  1.00  0.00     0.201 A 
HETATM   34  N13 UNL     1      -1.885   6.533   9.413  1.00  0.00    -0.160 N 
BRANCH  32  35
HETATM   35  C13 UNL     1      -1.708   4.329   6.492  1.00  0.00     0.080 C 
BRANCH  35  36
HETATM   36  C14 UNL     1      -0.465   4.620   5.690  1.00  0.00     0.089 C 
BRANCH  36  37
HETATM   37  S1  UNL     1       0.428   3.097   5.274  1.00  0.00    -0.093 SA
BRANCH  37  38
HETATM   38  C15 UNL     1       1.316   3.388   3.756  1.00  0.00     0.148 A 
HETATM   39  N9  UNL     1       2.243   4.388   3.746  1.00  0.00    -0.324 N 
HETATM   40  C16 UNL     1       2.965   4.690   2.655  1.00  0.00     0.139 A 
ATOM     41  H9  UNL     1       2.393   4.926   4.600  1.00  0.00     0.169 HD
HETATM   42  N10 UNL     1       3.933   5.735   2.644  1.00  0.00    -0.081 NA
HETATM   43  C17 UNL     1       2.788   3.984   1.482  1.00  0.00     0.138 A 
HETATM   44  C19 UNL     1       1.851   2.975   1.497  1.00  0.00     0.266 A 
HETATM   45  O4  UNL     1       1.677   2.323   0.438  1.00  0.00    -0.267 OA
HETATM   46  N12 UNL     1       1.132   2.692   2.625  1.00  0.00    -0.303 N 
ATOM     47  H12 UNL     1       0.444   1.938   2.606  1.00  0.00     0.171 HD
BRANCH  43  48
HETATM   48  C18 UNL     1       3.581   4.317   0.292  1.00  0.00     0.273 C 
HETATM   49  N11 UNL     1       4.822   3.684   0.018  1.00  0.00    -0.057 NA
HETATM   50  O3  UNL     1       3.152   5.179  -0.498  1.00  0.00    -0.271 OA
ENDBRANCH  43  48
ENDBRANCH  37  38
ENDBRANCH  36  37
ENDBRANCH  35  36
ENDBRANCH  32  35
BRANCH  33  51
HETATM   51  O5  UNL     1      -3.317   6.759   7.420  1.00  0.00    -0.343 OA
ATOM     52  H5  UNL     1      -4.164   6.354   7.273  1.00  0.00     0.219 HD
ENDBRANCH  33  51
BRANCH  34  53
HETATM   53  O6  UNL     1      -2.328   7.558  10.189  1.00  0.00    -0.278 OA
ATOM     54  H6  UNL     1      -2.898   8.251   9.879  1.00  0.00     0.245 HD
ENDBRANCH  34  53
ENDBRANCH   2  30
TORSDOF 15
ENDMDL
MODEL 3
REMARK VINA RESULT: -8.713815716      0.646      1.277
REMARK  15 active torsions:
REMARK  status: ('A' for Active; 'I' for Inactive)
REMARK    1  A    between atoms: C2_5  and  C3_6 
REMARK    2  A    between atoms: C5_18  and  C6_19 
REMARK    3  A    between atoms: C6_19  and  C7_20 
REMARK    4  A    between atoms: C7_20  and  C8_21 
REMARK    5  A    between atoms: C8_21  and  C9_22 
REMARK    6  A    between atoms: C9_22  and  C10_23 
REMARK    7  A    between atoms: C10_23  and  N7_24 
REMARK    8  A    between atoms: N8_28  and  C11_30 
REMARK    9  A    between atoms: C12_32  and  C13_33 
REMARK   10  A    between atoms: C13_33  and  C14_34 
REMARK   11  A    between atoms: C14_34  and  S1_35 
REMARK   12  A    between atoms: S1_35  and  C15_36 
REMARK   13  A    between atoms: C17_41  and  C18_42 
REMARK   14  A    between atoms: C20_49  and  O5_50 
REMARK   15  A    between atoms: N13_52  and  O6_53 
ROOT
HETATM    1  C6  UNL     1       2.933   4.828   6.828  1.00  0.00     0.058 C 
HETATM    2  N8  UNL     1       3.967   4.205   7.190  1.00  0.00    -0.320 N 
ATOM      3  H8  UNL     1       4.402   3.596   6.498  1.00  0.00     0.169 HD
ENDROOT
BRANCH   1   4
HETATM    4  C5  UNL     1       2.404   4.654   5.451  1.00  0.00     0.146 A 
HETATM    5  N1  UNL     1       1.162   4.286   5.116  1.00  0.00    -0.278 N 
HETATM    6  C1  UNL     1       0.095   3.946   6.033  1.00  0.00     0.179 C 
HETATM    7  N2  UNL     1       1.059   4.274   3.778  1.00  0.00    -0.280 N 
HETATM    8  C2  UNL     1       2.230   4.634   3.253  1.00  0.00     0.154 A 
ATOM      9  H2  UNL     1       0.222   4.029   3.250  1.00  0.00     0.189 HD
HETATM   10  N6  UNL     1       3.043   4.863   4.299  1.00  0.00    -0.323 N 
ATOM     11  H6  UNL     1       4.016   5.157   4.222  1.00  0.00     0.169 HD
BRANCH   8  12
HETATM   12  C3  UNL     1       2.644   4.779   1.859  1.00  0.00     0.147 A 
HETATM   13  N3  UNL     1       2.345   5.801   1.034  1.00  0.00    -0.234 N 
HETATM   14  O1  UNL     1       2.880   5.599  -0.130  1.00  0.00    -0.155 OA
ATOM     15  H3  UNL     1       1.781   6.613   1.286  1.00  0.00     0.197 HD
HETATM   16  N4  UNL     1       3.531   4.485  -0.135  1.00  0.00    -0.224 N 
HETATM   17  C4  UNL     1       3.414   3.922   1.104  1.00  0.00     0.154 A 
ATOM     18  H4  UNL     1       4.044   4.094  -0.924  1.00  0.00     0.198 HD
HETATM   19  N5  UNL     1       3.939   2.818   1.436  1.00  0.00    -0.382 N 
ATOM     20  H52 UNL     1       3.851   2.397   2.361  1.00  0.00     0.157 HD
ATOM     21  H51 UNL     1       4.509   2.183   0.876  1.00  0.00     0.157 HD
ENDBRANCH   8  12
ENDBRANCH   1   4
BRANCH   1  22
HETATM   22  C7  UNL     1       2.204   5.778   7.717  1.00  0.00     0.061 C 
BRANCH  22  23
HETATM   23  C8  UNL     1       2.289   7.177   7.192  1.00  0.00     0.008 C 
BRANCH  23  24
HETATM   24  C9  UNL     1       1.035   7.759   6.652  1.00  0.00     0.027 C 
BRANCH  24  25
HETATM   25  C10 UNL     1       0.821   9.218   6.785  1.00  0.00     0.229 C 
BRANCH  25  26
HETATM   26  N7  UNL     1      -0.453   9.648   7.272  1.00  0.00    -0.079 N 
ATOM     27  H73 UNL     1      -1.146   8.919   7.104  1.00  0.00     0.274 HD
ATOM     28  H72 UNL     1      -0.440   9.664   8.292  1.00  0.00     0.274 HD
ATOM     29  H71 UNL     1      -0.808  10.539   6.924  1.00  0.00     0.274 HD
ENDBRANCH  25  26
ENDBRANCH  24  25
ENDBRANCH  23  24
ENDBRANCH  22  23
ENDBRANCH   1  22
BRANCH   2  30
HETATM   30  C11 UNL     1       4.581   4.267   8.454  1.00  0.00     0.258 A 
HETATM   31  O2  UNL     1       4.069   4.112   9.651  1.00  0.00    -0.278 OA
HETATM   32  C12 UNL     1       4.943   4.236  10.609  1.00  0.00     0.110 A 
HETATM   33  C20 UNL     1       6.135   4.496   9.968  1.00  0.00     0.201 A 
HETATM   34  N13 UNL     1       5.913   4.515   8.653  1.00  0.00    -0.160 N 
BRANCH  32  35
HETATM   35  C13 UNL     1       4.714   4.120  12.091  1.00  0.00     0.080 C 
BRANCH  35  36
HETATM   36  C14 UNL     1       3.236   3.902  12.292  1.00  0.00     0.089 C 
BRANCH  36  37
HETATM   37  S1  UNL     1       2.441   5.363  13.016  1.00  0.00    -0.093 SA
BRANCH  37  38
HETATM   38  C15 UNL     1       1.070   5.809  11.968  1.00  0.00     0.148 A 
HETATM   39  N9  UNL     1       1.020   7.089  11.502  1.00  0.00    -0.324 N 
HETATM   40  C16 UNL     1       0.031   7.528  10.707  1.00  0.00     0.139 A 
ATOM     41  H9  UNL     1       1.762   7.737  11.767  1.00  0.00     0.169 HD
HETATM   42  N10 UNL     1      -0.023   8.865  10.221  1.00  0.00    -0.081 NA
HETATM   43  C17 UNL     1      -0.991   6.680  10.330  1.00  0.00     0.138 A 
HETATM   44  C19 UNL     1      -0.936   5.388  10.804  1.00  0.00     0.266 A 
HETATM   45  O4  UNL     1      -1.858   4.603  10.470  1.00  0.00    -0.267 OA
HETATM   46  N12 UNL     1       0.086   4.972  11.611  1.00  0.00    -0.303 N 
ATOM     47  H12 UNL     1       0.101   4.008  11.946  1.00  0.00     0.171 HD
BRANCH  43  48
HETATM   48  C18 UNL     1      -2.071   7.164   9.460  1.00  0.00     0.273 C 
HETATM   49  N11 UNL     1      -1.998   7.056   8.046  1.00  0.00    -0.057 NA
HETATM   50  O3  UNL     1      -3.077   7.684   9.979  1.00  0.00    -0.271 OA
ENDBRANCH  43  48
ENDBRANCH  37  38
ENDBRANCH  36  37
ENDBRANCH  35  36
ENDBRANCH  32  35
BRANCH  33  51
HETATM   51  O5  UNL     1       7.348   4.697  10.648  1.00  0.00    -0.343 OA
ATOM     52  H5  UNL     1       8.176   4.843  10.204  1.00  0.00     0.219 HD
ENDBRANCH  33  51
BRANCH  34  53
HETATM   53  O6  UNL     1       6.805   4.734   7.650  1.00  0.00    -0.278 OA
ATOM     54  H6  UNL     1       6.877   5.552   7.171  1.00  0.00     0.245 HD
ENDBRANCH  34  53
ENDBRANCH   2  30
TORSDOF 15
ENDMDL
MODEL 4
REMARK VINA RESULT: -8.665173210      1.424      1.654
REMARK  15 active torsions:
REMARK  status: ('A' for Active; 'I' for Inactive)
REMARK    1  A    between atoms: C2_5  and  C3_6 
REMARK    2  A    between atoms: C5_18  and  C6_19 
REMARK    3  A    between atoms: C6_19  and  C7_20 
REMARK    4  A    between atoms: C7_20  and  C8_21 
REMARK    5  A    between atoms: C8_21  and  C9_22 
REMARK    6  A    between atoms: C9_22  and  C10_23 
REMARK    7  A    between atoms: C10_23  and  N7_24 
REMARK    8  A    between atoms: N8_28  and  C11_30 
REMARK    9  A    between atoms: C12_32  and  C13_33 
REMARK   10  A    between atoms: C13_33  and  C14_34 
REMARK   11  A    between atoms: C14_34  and  S1_35 
REMARK   12  A    between atoms: S1_35  and  C15_36 
REMARK   13  A    between atoms: C17_41  and  C18_42 
REMARK   14  A    between atoms: C20_49  and  O5_50 
REMARK   15  A    between atoms: N13_52  and  O6_53 
ROOT
HETATM    1  C6  UNL     1       2.476   4.937   6.478  1.00  0.00     0.058 C 
HETATM    2  N8  UNL     1       3.415   4.293   7.018  1.00  0.00    -0.320 N 
ATOM      3  H8  UNL     1       3.834   3.545   6.466  1.00  0.00     0.169 HD
ENDROOT
BRANCH   1   4
HETATM    4  C5  UNL     1       2.028   4.592   5.105  1.00  0.00     0.146 A 
HETATM    5  N1  UNL     1       0.867   4.021   4.765  1.00  0.00    -0.278 N 
HETATM    6  C1  UNL     1      -0.173   3.591   5.676  1.00  0.00     0.179 C 
HETATM    7  N2  UNL     1       0.816   3.901   3.430  1.00  0.00    -0.280 N 
HETATM    8  C2  UNL     1       1.940   4.393   2.910  1.00  0.00     0.154 A 
ATOM      9  H2  UNL     1       0.044   3.498   2.899  1.00  0.00     0.189 HD
HETATM   10  N6  UNL     1       2.672   4.813   3.957  1.00  0.00    -0.323 N 
ATOM     11  H6  UNL     1       3.594   5.241   3.884  1.00  0.00     0.169 HD
BRANCH   8  12
HETATM   12  C3  UNL     1       2.379   4.501   1.521  1.00  0.00     0.147 A 
HETATM   13  N3  UNL     1       1.949   5.394   0.609  1.00  0.00    -0.234 N 
HETATM   14  O1  UNL     1       2.557   5.198  -0.520  1.00  0.00    -0.155 OA
ATOM     15  H3  UNL     1       1.250   6.117   0.780  1.00  0.00     0.197 HD
HETATM   16  N4  UNL     1       3.382   4.211  -0.418  1.00  0.00    -0.224 N 
HETATM   17  C4  UNL     1       3.310   3.730   0.858  1.00  0.00     0.154 A 
ATOM     18  H4  UNL     1       3.983   3.854  -1.160  1.00  0.00     0.198 HD
HETATM   19  N5  UNL     1       3.996   2.758   1.291  1.00  0.00    -0.382 N 
ATOM     20  H52 UNL     1       3.942   2.399   2.244  1.00  0.00     0.157 HD
ATOM     21  H51 UNL     1       4.684   2.187   0.800  1.00  0.00     0.157 HD
ENDBRANCH   8  12
ENDBRANCH   1   4
BRANCH   1  22
HETATM   22  C7  UNL     1       1.785   6.078   7.146  1.00  0.00     0.061 C 
BRANCH  22  23
HETATM   23  C8  UNL     1       1.489   7.173   6.170  1.00  0.00     0.008 C 
BRANCH  23  24
HETATM   24  C9  UNL     1       1.114   8.489   6.744  1.00  0.00     0.027 C 
BRANCH  24  25
HETATM   25  C10 UNL     1       0.209   8.513   7.917  1.00  0.00     0.229 C 
BRANCH  25  26
HETATM   26  N7  UNL     1      -1.187   8.693   7.660  1.00  0.00    -0.079 N 
ATOM     27  H73 UNL     1      -1.374   8.533   6.670  1.00  0.00     0.274 HD
ATOM     28  H72 UNL     1      -1.711   7.924   8.078  1.00  0.00     0.274 HD
ATOM     29  H71 UNL     1      -1.601   9.580   7.944  1.00  0.00     0.274 HD
ENDBRANCH  25  26
ENDBRANCH  24  25
ENDBRANCH  23  24
ENDBRANCH  22  23
ENDBRANCH   1  22
BRANCH   2  30
HETATM   30  C11 UNL     1       3.943   4.502   8.304  1.00  0.00     0.258 A 
HETATM   31  O2  UNL     1       3.331   4.659   9.454  1.00  0.00    -0.278 OA
HETATM   32  C12 UNL     1       4.146   4.831  10.455  1.00  0.00     0.110 A 
HETATM   33  C20 UNL     1       5.406   4.781   9.897  1.00  0.00     0.201 A 
HETATM   34  N13 UNL     1       5.281   4.581   8.585  1.00  0.00    -0.160 N 
BRANCH  32  35
HETATM   35  C13 UNL     1       3.801   5.038  11.904  1.00  0.00     0.080 C 
BRANCH  35  36
HETATM   36  C14 UNL     1       3.223   6.426  12.025  1.00  0.00     0.089 C 
BRANCH  36  37
HETATM   37  S1  UNL     1       1.564   6.393  12.755  1.00  0.00    -0.093 SA
BRANCH  37  38
HETATM   38  C15 UNL     1       0.417   5.926  11.473  1.00  0.00     0.148 A 
HETATM   39  N9  UNL     1      -0.650   6.744  11.250  1.00  0.00    -0.324 N 
HETATM   40  C16 UNL     1      -1.573   6.484  10.309  1.00  0.00     0.139 A 
ATOM     41  H9  UNL     1      -0.752   7.584  11.819  1.00  0.00     0.169 HD
HETATM   42  N10 UNL     1      -2.689   7.337  10.076  1.00  0.00    -0.081 NA
HETATM   43  C17 UNL     1      -1.469   5.355   9.521  1.00  0.00     0.138 A 
HETATM   44  C19 UNL     1      -0.389   4.532   9.751  1.00  0.00     0.266 A 
HETATM   45  O4  UNL     1      -0.279   3.500   9.043  1.00  0.00    -0.267 OA
HETATM   46  N12 UNL     1       0.534   4.825  10.716  1.00  0.00    -0.303 N 
ATOM     47  H12 UNL     1       1.324   4.197  10.863  1.00  0.00     0.171 HD
BRANCH  43  48
HETATM   48  C18 UNL     1      -2.480   5.075   8.493  1.00  0.00     0.273 C 
HETATM   49  N11 UNL     1      -2.519   5.791   7.268  1.00  0.00    -0.057 NA
HETATM   50  O3  UNL     1      -3.325   4.184   8.704  1.00  0.00    -0.271 OA
ENDBRANCH  43  48
ENDBRANCH  37  38
ENDBRANCH  36  37
ENDBRANCH  35  36
ENDBRANCH  32  35
BRANCH  33  51
HETATM   51  O5  UNL     1       6.586   4.924  10.646  1.00  0.00    -0.343 OA
ATOM     52  H5  UNL     1       7.074   5.738  10.700  1.00  0.00     0.219 HD
ENDBRANCH  33  51
BRANCH  34  53
HETATM   53  O6  UNL     1       6.263   4.467   7.651  1.00  0.00    -0.278 OA
ATOM     54  H6  UNL     1       7.136   4.827   7.751  1.00  0.00     0.245 HD
ENDBRANCH  34  53
ENDBRANCH   2  30
TORSDOF 15
ENDMDL
MODEL 5
REMARK VINA RESULT: -8.659773232      3.342      9.766
REMARK  15 active torsions:
REMARK  status: ('A' for Active; 'I' for Inactive)
REMARK    1  A    between atoms: C2_5  and  C3_6 
REMARK    2  A    between atoms: C5_18  and  C6_19 
REMARK    3  A    between atoms: C6_19  and  C7_20 
REMARK    4  A    between atoms: C7_20  and  C8_21 
REMARK    5  A    between atoms: C8_21  and  C9_22 
REMARK    6  A    between atoms: C9_22  and  C10_23 
REMARK    7  A    between atoms: C10_23  and  N7_24 
REMARK    8  A    between atoms: N8_28  and  C11_30 
REMARK    9  A    between atoms: C12_32  and  C13_33 
REMARK   10  A    between atoms: C13_33  and  C14_34 
REMARK   11  A    between atoms: C14_34  and  S1_35 
REMARK   12  A    between atoms: S1_35  and  C15_36 
REMARK   13  A    between atoms: C17_41  and  C18_42 
REMARK   14  A    between atoms: C20_49  and  O5_50 
REMARK   15  A    between atoms: N13_52  and  O6_53 
ROOT
HETATM    1  C6  UNL     1       1.119   5.723  10.500  1.00  0.00     0.058 C 
HETATM    2  N8  UNL     1       1.852   5.526   9.495  1.00  0.00    -0.320 N 
ATOM      3  H8  UNL     1       2.857   5.482   9.662  1.00  0.00     0.169 HD
ENDROOT
BRANCH   1   4
HETATM    4  C5  UNL     1       1.725   5.880  11.846  1.00  0.00     0.146 A 
HETATM    5  N1  UNL     1       2.293   4.916  12.581  1.00  0.00    -0.278 N 
HETATM    6  C1  UNL     1       2.396   3.517  12.224  1.00  0.00     0.179 C 
HETATM    7  N2  UNL     1       2.753   5.455  13.721  1.00  0.00    -0.280 N 
HETATM    8  C2  UNL     1       2.485   6.759  13.720  1.00  0.00     0.154 A 
ATOM      9  H2  UNL     1       3.231   4.947  14.465  1.00  0.00     0.189 HD
HETATM   10  N6  UNL     1       1.852   7.000  12.559  1.00  0.00    -0.323 N 
ATOM     11  H6  UNL     1       1.514   7.916  12.262  1.00  0.00     0.169 HD
BRANCH   8  12
HETATM   12  C3  UNL     1       2.771   7.791  14.714  1.00  0.00     0.147 A 
HETATM   13  N3  UNL     1       3.619   8.829  14.575  1.00  0.00    -0.234 N 
HETATM   14  O1  UNL     1       3.623   9.543  15.657  1.00  0.00    -0.155 OA
ATOM     15  H3  UNL     1       4.176   9.023  13.742  1.00  0.00     0.197 HD
HETATM   16  N4  UNL     1       2.815   9.040  16.528  1.00  0.00    -0.224 N 
HETATM   17  C4  UNL     1       2.247   7.924  15.982  1.00  0.00     0.154 A 
ATOM     18  H4  UNL     1       2.632   9.410  17.460  1.00  0.00     0.198 HD
HETATM   19  N5  UNL     1       1.403   7.192  16.577  1.00  0.00    -0.382 N 
ATOM     20  H52 UNL     1       0.979   6.359  16.169  1.00  0.00     0.157 HD
ATOM     21  H51 UNL     1       1.015   7.291  17.516  1.00  0.00     0.157 HD
ENDBRANCH   8  12
ENDBRANCH   1   4
BRANCH   1  22
HETATM   22  C7  UNL     1      -0.370   5.781  10.419  1.00  0.00     0.061 C 
BRANCH  22  23
HETATM   23  C8  UNL     1      -0.986   4.527  10.956  1.00  0.00     0.008 C 
BRANCH  23  24
HETATM   24  C9  UNL     1      -1.824   3.745  10.014  1.00  0.00     0.027 C 
BRANCH  24  25
HETATM   25  C10 UNL     1      -3.153   4.282   9.642  1.00  0.00     0.229 C 
BRANCH  25  26
HETATM   26  N7  UNL     1      -4.231   4.046  10.552  1.00  0.00    -0.079 N 
ATOM     27  H73 UNL     1      -5.071   4.516  10.216  1.00  0.00     0.274 HD
ATOM     28  H72 UNL     1      -4.522   3.070  10.488  1.00  0.00     0.274 HD
ATOM     29  H71 UNL     1      -4.075   4.289  11.530  1.00  0.00     0.274 HD
ENDBRANCH  25  26
ENDBRANCH  24  25
ENDBRANCH  23  24
ENDBRANCH  22  23
ENDBRANCH   1  22
BRANCH   2  30
HETATM   30  C11 UNL     1       1.426   5.361   8.165  1.00  0.00     0.258 A 
HETATM   31  O2  UNL     1       0.724   4.399   7.616  1.00  0.00    -0.278 OA
HETATM   32  C12 UNL     1       0.509   4.575   6.343  1.00  0.00     0.110 A 
HETATM   33  C20 UNL     1       1.133   5.766   6.042  1.00  0.00     0.201 A 
HETATM   34  N13 UNL     1       1.692   6.245   7.154  1.00  0.00    -0.160 N 
BRANCH  32  35
HETATM   35  C13 UNL     1      -0.252   3.683   5.401  1.00  0.00     0.080 C 
BRANCH  35  36
HETATM   36  C14 UNL     1       0.756   2.771   4.748  1.00  0.00     0.089 C 
BRANCH  36  37
HETATM   37  S1  UNL     1       0.353   2.476   3.005  1.00  0.00    -0.093 SA
BRANCH  37  38
HETATM   38  C15 UNL     1       1.248   3.672   2.032  1.00  0.00     0.148 A 
HETATM   39  N9  UNL     1       2.075   4.532   2.690  1.00  0.00    -0.324 N 
HETATM   40  C16 UNL     1       2.794   5.471   2.053  1.00  0.00     0.139 A 
ATOM     41  H9  UNL     1       2.151   4.460   3.705  1.00  0.00     0.169 HD
HETATM   42  N10 UNL     1       3.657   6.371   2.740  1.00  0.00    -0.081 NA
HETATM   43  C17 UNL     1       2.715   5.599   0.681  1.00  0.00     0.138 A 
HETATM   44  C19 UNL     1       1.878   4.727   0.021  1.00  0.00     0.266 A 
HETATM   45  O4  UNL     1       1.795   4.830  -1.229  1.00  0.00    -0.267 OA
HETATM   46  N12 UNL     1       1.160   3.782   0.699  1.00  0.00    -0.303 N 
ATOM     47  H12 UNL     1       0.548   3.150   0.182  1.00  0.00     0.171 HD
BRANCH  43  48
HETATM   48  C18 UNL     1       3.504   6.626  -0.012  1.00  0.00     0.273 C 
HETATM   49  N11 UNL     1       4.856   6.407  -0.385  1.00  0.00    -0.057 NA
HETATM   50  O3  UNL     1       2.969   7.719  -0.279  1.00  0.00    -0.271 OA
ENDBRANCH  43  48
ENDBRANCH  37  38
ENDBRANCH  36  37
ENDBRANCH  35  36
ENDBRANCH  32  35
BRANCH  33  51
HETATM   51  O5  UNL     1       1.140   6.328   4.754  1.00  0.00    -0.343 OA
ATOM     52  H5  UNL     1       0.552   6.050   4.061  1.00  0.00     0.219 HD
ENDBRANCH  33  51
BRANCH  34  53
HETATM   53  O6  UNL     1       2.405   7.392   7.313  1.00  0.00    -0.278 OA
ATOM     54  H6  UNL     1       3.152   7.633   6.778  1.00  0.00     0.245 HD
ENDBRANCH  34  53
ENDBRANCH   2  30
TORSDOF 15
ENDMDL
