MODEL 1
REMARK VINA RESULT: -10.112883012      0.000      0.000
REMARK  16 active torsions:
REMARK  status: ('A' for Active; 'I' for Inactive)
REMARK    1  A    between atoms: C2_2  and  O1_3 
REMARK    2  A    between atoms: C2_2  and  C3_5 
REMARK    3  A    between atoms: C3_5  and  C4_6 
REMARK    4  A    between atoms: C3_5  and  N2_16 
REMARK    5  A    between atoms: C4_6  and  C5_7 
REMARK    6  A    between atoms: C5_7  and  N1_8 
REMARK    7  A    between atoms: N1_8  and  C6_10 
REMARK    8  A    between atoms: C6_10  and  O2_11 
REMARK    9  A    between atoms: N2_16  and  C10_18 
REMARK   10  A    between atoms: C10_18  and  O3_19 
REMARK   11  A    between atoms: C10_18  and  C11_21 
REMARK   12  A    between atoms: C12_27  and  C13_28 
REMARK   13  A    between atoms: C13_28  and  C14_29 
REMARK   14  A    between atoms: C13_28  and  N14_53 
REMARK   15  A    between atoms: C18_42  and  N10_43 
REMARK   16  A    between atoms: N12_48  and  O5_49 
ROOT
HETATM    1  C13 UNL     1      -1.016   6.437   8.951  1.00  0.00     0.213 C 
ENDROOT
BRANCH   1   2
HETATM    2  C12 UNL     1      -1.705   5.370   9.653  1.00  0.00     0.094 A 
HETATM    3  C11 UNL     1      -1.220   4.266  10.259  1.00  0.00     0.109 A 
HETATM    4  N3  UNL     1      -2.384   3.643  10.735  1.00  0.00    -0.239 N 
HETATM    5  O4  UNL     1      -3.383   4.339  10.418  1.00  0.00    -0.157 OA
ATOM      6  H3  UNL     1      -2.415   2.765  11.254  1.00  0.00     0.196 HD
HETATM    7  N4  UNL     1      -3.079   5.386   9.771  1.00  0.00    -0.241 N 
ATOM      8  H4  UNL     1      -3.718   6.095   9.412  1.00  0.00     0.196 HD
BRANCH   3   9
HETATM    9  C10 UNL     1       0.078   3.681  10.523  1.00  0.00     0.269 C 
BRANCH   9  10
HETATM   10  N2  UNL     1       0.819   3.647  11.660  1.00  0.00    -0.385 N 
ATOM     11  H2  UNL     1       0.286   3.394  12.492  1.00  0.00     0.156 HD
BRANCH  10  12
HETATM   12  C3  UNL     1       2.142   3.887  11.904  1.00  0.00     0.109 C 
BRANCH  12  13
HETATM   13  C2  UNL     1       3.075   3.189  10.937  1.00  0.00     0.136 C 
HETATM   14  C1  UNL     1       4.315   4.114  10.854  1.00  0.00     0.041 C 
BRANCH  13  15
HETATM   15  O1  UNL     1       3.619   2.072  11.675  1.00  0.00    -0.394 OA
ATOM     16  H1  UNL     1       3.965   1.544  10.966  1.00  0.00     0.210 HD
ENDBRANCH  13  15
ENDBRANCH  12  13
BRANCH  12  17
HETATM   17  C4  UNL     1       2.723   3.720  13.289  1.00  0.00     0.046 C 
BRANCH  17  18
HETATM   18  C5  UNL     1       3.057   5.037  13.922  1.00  0.00     0.119 C 
BRANCH  18  19
HETATM   19  N1  UNL     1       1.950   5.917  14.132  1.00  0.00    -0.392 N 
ATOM     20  H1  UNL     1       1.095   5.812  13.587  1.00  0.00     0.156 HD
BRANCH  19  21
HETATM   21  C6  UNL     1       2.060   6.932  15.101  1.00  0.00     0.127 C 
HETATM   22  C7  UNL     1       2.756   8.175  14.530  1.00  0.00     0.060 C 
HETATM   23  C8  UNL     1       3.392   8.345  15.924  1.00  0.00     0.010 C 
HETATM   24  C9  UNL     1       3.242   6.826  16.062  1.00  0.00     0.060 C 
BRANCH  21  25
HETATM   25  O2  UNL     1       0.920   7.359  15.779  1.00  0.00    -0.371 OA
ATOM     26  H2  UNL     1       0.708   8.285  15.799  1.00  0.00     0.212 HD
ENDBRANCH  21  25
ENDBRANCH  19  21
ENDBRANCH  18  19
ENDBRANCH  17  18
ENDBRANCH  12  17
ENDBRANCH  10  12
ENDBRANCH   9  10
BRANCH   9  27
HETATM   27  O3  UNL     1      -0.158   2.260  10.189  1.00  0.00    -0.371 OA
ATOM     28  H3  UNL     1      -0.727   2.284   9.428  1.00  0.00     0.212 HD
ENDBRANCH   9  27
ENDBRANCH   3   9
ENDBRANCH   1   2
BRANCH   1  29
HETATM   29  C14 UNL     1      -0.346   6.028   7.664  1.00  0.00     0.128 A 
HETATM   30  N5  UNL     1       0.447   6.920   7.052  1.00  0.00    -0.337 N 
HETATM   31  C15 UNL     1       1.108   6.609   5.922  1.00  0.00     0.126 A 
ATOM     32  H5  UNL     1       0.552   7.852   7.452  1.00  0.00     0.167 HD
HETATM   33  C16 UNL     1       1.930   7.534   5.324  1.00  0.00     0.162 A 
HETATM   34  C19 UNL     1       0.931   5.318   5.409  1.00  0.00     0.223 A 
HETATM   35  N6  UNL     1       2.070   8.836   5.898  1.00  0.00    -0.080 NA
HETATM   36  N7  UNL     1       2.571   7.166   4.218  1.00  0.00    -0.174 N 
HETATM   37  C17 UNL     1       2.433   5.936   3.687  1.00  0.00     0.721 A 
ATOM     38  H7  UNL     1       3.185   7.837   3.756  1.00  0.00     0.185 HD
HETATM   39  N8  UNL     1       2.972   5.344   2.603  1.00  0.00    -0.117 N 
HETATM   40  N11 UNL     1       1.615   5.006   4.276  1.00  0.00     0.047 N 
HETATM   41  N9  UNL     1       2.522   4.133   2.524  1.00  0.00    -0.117 N 
ATOM     42  H8  UNL     1       3.626   5.779   1.952  1.00  0.00     0.206 HD
HETATM   43  C18 UNL     1       1.663   3.890   3.567  1.00  0.00     0.714 A 
ATOM     44  H9  UNL     1       2.768   3.461   1.796  1.00  0.00     0.206 HD
HETATM   45  N12 UNL     1       0.142   4.436   6.016  1.00  0.00    -0.141 N 
HETATM   46  N13 UNL     1      -0.491   4.815   7.150  1.00  0.00    -0.259 N 
ATOM     47  H13 UNL     1      -1.098   4.147   7.624  1.00  0.00     0.191 HD
BRANCH  43  48
HETATM   48  N10 UNL     1       1.110   2.773   3.673  1.00  0.00    -0.232 N 
ATOM     49 2H10 UNL     1       1.418   1.862   4.014  1.00  0.00     0.174 HD
ATOM     50 1H10 UNL     1       0.138   2.657   3.385  1.00  0.00     0.174 HD
ENDBRANCH  43  48
BRANCH  45  51
HETATM   51  O5  UNL     1      -0.075   3.181   5.593  1.00  0.00    -0.266 OA
ATOM     52  H5  UNL     1       0.587   2.500   5.545  1.00  0.00     0.247 HD
ENDBRANCH  45  51
ENDBRANCH   1  29
BRANCH   1  53
HETATM   53  N14 UNL     1       0.124   6.920   9.762  1.00  0.00    -0.334 N 
HETATM   54  C20 UNL     1       1.423   6.658   9.566  1.00  0.00     0.110 A 
HETATM   55  C21 UNL     1       2.165   7.290  10.540  1.00  0.00     0.106 A 
HETATM   56  N15 UNL     1       1.276   7.943  11.330  1.00  0.00    -0.361 N 
HETATM   57  C22 UNL     1       0.040   7.701  10.837  1.00  0.00     0.183 A 
ATOM     58  H15 UNL     1       1.500   8.512  12.147  1.00  0.00     0.166 HD
ENDBRANCH   1  53
TORSDOF 16
ENDMDL
MODEL 2
REMARK VINA RESULT: -9.787094480      2.843      8.524
REMARK  16 active torsions:
REMARK  status: ('A' for Active; 'I' for Inactive)
REMARK    1  A    between atoms: C2_2  and  O1_3 
REMARK    2  A    between atoms: C2_2  and  C3_5 
REMARK    3  A    between atoms: C3_5  and  C4_6 
REMARK    4  A    between atoms: C3_5  and  N2_16 
REMARK    5  A    between atoms: C4_6  and  C5_7 
REMARK    6  A    between atoms: C5_7  and  N1_8 
REMARK    7  A    between atoms: N1_8  and  C6_10 
REMARK    8  A    between atoms: C6_10  and  O2_11 
REMARK    9  A    between atoms: N2_16  and  C10_18 
REMARK   10  A    between atoms: C10_18  and  O3_19 
REMARK   11  A    between atoms: C10_18  and  C11_21 
REMARK   12  A    between atoms: C12_27  and  C13_28 
REMARK   13  A    between atoms: C13_28  and  C14_29 
REMARK   14  A    between atoms: C13_28  and  N14_53 
REMARK   15  A    between atoms: C18_42  and  N10_43 
REMARK   16  A    between atoms: N12_48  and  O5_49 
ROOT
HETATM    1  C13 UNL     1       2.915   5.237   8.250  1.00  0.00     0.213 C 
ENDROOT
BRANCH   1   2
HETATM    2  C12 UNL     1       3.107   6.635   7.911  1.00  0.00     0.094 A 
HETATM    3  C11 UNL     1       2.595   7.368   6.900  1.00  0.00     0.109 A 
HETATM    4  N3  UNL     1       3.166   8.631   7.119  1.00  0.00    -0.239 N 
HETATM    5  O4  UNL     1       3.902   8.579   8.139  1.00  0.00    -0.157 OA
ATOM      6  H3  UNL     1       3.009   9.460   6.544  1.00  0.00     0.196 HD
HETATM    7  N4  UNL     1       3.931   7.432   8.677  1.00  0.00    -0.241 N 
ATOM      8  H4  UNL     1       4.455   7.155   9.507  1.00  0.00     0.196 HD
BRANCH   3   9
HETATM    9  C10 UNL     1       1.674   7.168   5.800  1.00  0.00     0.269 C 
BRANCH   9  10
HETATM   10  N2  UNL     1       1.067   6.041   5.348  1.00  0.00    -0.385 N 
ATOM     11  H2  UNL     1       0.066   6.007   5.539  1.00  0.00     0.156 HD
BRANCH  10  12
HETATM   12  C3  UNL     1       1.540   4.943   4.687  1.00  0.00     0.109 C 
BRANCH  12  13
HETATM   13  C2  UNL     1       1.082   3.629   5.283  1.00  0.00     0.136 C 
HETATM   14  C1  UNL     1      -0.456   3.773   5.411  1.00  0.00     0.041 C 
BRANCH  13  15
HETATM   15  O1  UNL     1       1.175   2.671   4.205  1.00  0.00    -0.394 OA
ATOM     16  H1  UNL     1       1.947   2.989   3.752  1.00  0.00     0.210 HD
ENDBRANCH  13  15
ENDBRANCH  12  13
BRANCH  12  17
HETATM   17  C4  UNL     1       3.009   4.801   4.360  1.00  0.00     0.046 C 
BRANCH  17  18
HETATM   18  C5  UNL     1       3.277   4.953   2.893  1.00  0.00     0.119 C 
BRANCH  18  19
HETATM   19  N1  UNL     1       3.382   3.732   2.157  1.00  0.00    -0.392 N 
ATOM     20  H1  UNL     1       3.928   2.952   2.524  1.00  0.00     0.156 HD
BRANCH  19  21
HETATM   21  C6  UNL     1       2.722   3.622   0.919  1.00  0.00     0.127 C 
HETATM   22  C7  UNL     1       1.476   4.518   0.872  1.00  0.00     0.060 C 
HETATM   23  C8  UNL     1       0.822   3.402   0.033  1.00  0.00     0.010 C 
HETATM   24  C9  UNL     1       1.766   2.442   0.763  1.00  0.00     0.060 C 
BRANCH  21  25
HETATM   25  O2  UNL     1       3.436   3.828  -0.259  1.00  0.00    -0.371 OA
ATOM     26  H2  UNL     1       3.086   4.412  -0.922  1.00  0.00     0.212 HD
ENDBRANCH  21  25
ENDBRANCH  19  21
ENDBRANCH  18  19
ENDBRANCH  17  18
ENDBRANCH  12  17
ENDBRANCH  10  12
ENDBRANCH   9  10
BRANCH   9  27
HETATM   27  O3  UNL     1       0.561   8.068   6.172  1.00  0.00    -0.371 OA
ATOM     28  H3  UNL     1       0.299   8.476   5.354  1.00  0.00     0.212 HD
ENDBRANCH   9  27
ENDBRANCH   3   9
ENDBRANCH   1   2
BRANCH   1  29
HETATM   29  C14 UNL     1       1.586   4.909   8.882  1.00  0.00     0.128 A 
HETATM   30  N5  UNL     1       0.495   5.544   8.429  1.00  0.00    -0.337 N 
HETATM   31  C15 UNL     1      -0.728   5.272   8.920  1.00  0.00     0.126 A 
ATOM     32  H5  UNL     1       0.595   6.248   7.698  1.00  0.00     0.167 HD
HETATM   33  C16 UNL     1      -1.833   5.922   8.426  1.00  0.00     0.162 A 
HETATM   34  C19 UNL     1      -0.815   4.300   9.924  1.00  0.00     0.223 A 
HETATM   35  N6  UNL     1      -1.678   6.904   7.398  1.00  0.00    -0.080 NA
HETATM   36  N7  UNL     1      -3.018   5.601   8.937  1.00  0.00    -0.174 N 
HETATM   37  C17 UNL     1      -3.152   4.673   9.904  1.00  0.00     0.721 A 
ATOM     38  H7  UNL     1      -3.852   6.072   8.586  1.00  0.00     0.185 HD
HETATM   39  N8  UNL     1      -4.224   4.185  10.558  1.00  0.00    -0.117 N 
HETATM   40  N11 UNL     1      -2.055   4.018  10.404  1.00  0.00     0.047 N 
HETATM   41  N9  UNL     1      -3.823   3.290  11.403  1.00  0.00    -0.117 N 
ATOM     42  H8  UNL     1      -5.191   4.472  10.411  1.00  0.00     0.206 HD
HETATM   43  C18 UNL     1      -2.458   3.162  11.328  1.00  0.00     0.714 A 
ATOM     44  H9  UNL     1      -4.430   2.760  12.030  1.00  0.00     0.206 HD
HETATM   45  N12 UNL     1       0.269   3.673  10.374  1.00  0.00    -0.141 N 
HETATM   46  N13 UNL     1       1.467   3.995   9.835  1.00  0.00    -0.259 N 
ATOM     47  H13 UNL     1       2.304   3.520  10.172  1.00  0.00     0.191 HD
BRANCH  43  48
HETATM   48  N10 UNL     1      -1.866   2.349  12.072  1.00  0.00    -0.232 N 
ATOM     49 2H10 UNL     1      -2.175   1.571  12.655  1.00  0.00     0.174 HD
ATOM     50 1H10 UNL     1      -0.852   2.396  12.171  1.00  0.00     0.174 HD
ENDBRANCH  43  48
BRANCH  45  51
HETATM   51  O5  UNL     1       0.269   2.728  11.328  1.00  0.00    -0.266 OA
ATOM     52  H5  UNL     1       0.670   2.820  12.184  1.00  0.00     0.247 HD
ENDBRANCH  45  51
ENDBRANCH   1  29
BRANCH   1  53
HETATM   53  N14 UNL     1       3.874   4.838   9.303  1.00  0.00    -0.334 N 
HETATM   54  C20 UNL     1       3.802   5.120  10.611  1.00  0.00     0.110 A 
HETATM   55  C21 UNL     1       4.890   4.571  11.254  1.00  0.00     0.106 A 
HETATM   56  N15 UNL     1       5.622   3.948  10.297  1.00  0.00    -0.361 N 
HETATM   57  C22 UNL     1       4.984   4.125   9.117  1.00  0.00     0.183 A 
ATOM     58  H15 UNL     1       6.495   3.439  10.440  1.00  0.00     0.166 HD
ENDBRANCH   1  53
TORSDOF 16
ENDMDL
MODEL 3
REMARK VINA RESULT: -9.647403640      2.195      5.572
REMARK  16 active torsions:
REMARK  status: ('A' for Active; 'I' for Inactive)
REMARK    1  A    between atoms: C2_2  and  O1_3 
REMARK    2  A    between atoms: C2_2  and  C3_5 
REMARK    3  A    between atoms: C3_5  and  C4_6 
REMARK    4  A    between atoms: C3_5  and  N2_16 
REMARK    5  A    between atoms: C4_6  and  C5_7 
REMARK    6  A    between atoms: C5_7  and  N1_8 
REMARK    7  A    between atoms: N1_8  and  C6_10 
REMARK    8  A    between atoms: C6_10  and  O2_11 
REMARK    9  A    between atoms: N2_16  and  C10_18 
REMARK   10  A    between atoms: C10_18  and  O3_19 
REMARK   11  A    between atoms: C10_18  and  C11_21 
REMARK   12  A    between atoms: C12_27  and  C13_28 
REMARK   13  A    between atoms: C13_28  and  C14_29 
REMARK   14  A    between atoms: C13_28  and  N14_53 
REMARK   15  A    between atoms: C18_42  and  N10_43 
REMARK   16  A    between atoms: N12_48  and  O5_49 
ROOT
HETATM    1  C13 UNL     1       2.518   5.683   7.458  1.00  0.00     0.213 C 
ENDROOT
BRANCH   1   2
HETATM    2  C12 UNL     1       3.723   4.932   7.756  1.00  0.00     0.094 A 
HETATM    3  C11 UNL     1       4.503   4.929   8.857  1.00  0.00     0.109 A 
HETATM    4  N3  UNL     1       5.505   4.006   8.520  1.00  0.00    -0.239 N 
HETATM    5  O4  UNL     1       5.284   3.562   7.364  1.00  0.00    -0.157 OA
ATOM      6  H3  UNL     1       6.288   3.739   9.118  1.00  0.00     0.196 HD
HETATM    7  N4  UNL     1       4.246   4.055   6.828  1.00  0.00    -0.241 N 
ATOM      8  H4  UNL     1       3.873   3.846   5.902  1.00  0.00     0.196 HD
BRANCH   3   9
HETATM    9  C10 UNL     1       4.508   5.564  10.159  1.00  0.00     0.269 C 
BRANCH   9  10
HETATM   10  N2  UNL     1       4.727   5.048  11.395  1.00  0.00    -0.385 N 
ATOM     11  H2  UNL     1       5.711   5.015  11.659  1.00  0.00     0.156 HD
BRANCH  10  12
HETATM   12  C3  UNL     1       3.882   4.564  12.353  1.00  0.00     0.109 C 
BRANCH  12  13
HETATM   13  C2  UNL     1       3.867   3.053  12.444  1.00  0.00     0.136 C 
HETATM   14  C1  UNL     1       3.093   2.747  13.751  1.00  0.00     0.041 C 
BRANCH  13  15
HETATM   15  O1  UNL     1       2.905   2.624  11.454  1.00  0.00    -0.394 OA
ATOM     16  H1  UNL     1       2.600   1.813  11.843  1.00  0.00     0.210 HD
ENDBRANCH  13  15
ENDBRANCH  12  13
BRANCH  12  17
HETATM   17  C4  UNL     1       2.448   5.034  12.440  1.00  0.00     0.046 C 
BRANCH  17  18
HETATM   18  C5  UNL     1       2.350   6.467  12.871  1.00  0.00     0.119 C 
BRANCH  18  19
HETATM   19  N1  UNL     1       1.380   6.740  13.885  1.00  0.00    -0.392 N 
ATOM     20  H1  UNL     1       0.385   6.629  13.692  1.00  0.00     0.156 HD
BRANCH  19  21
HETATM   21  C6  UNL     1       1.820   7.165  15.153  1.00  0.00     0.127 C 
HETATM   22  C7  UNL     1       2.554   8.510  15.065  1.00  0.00     0.060 C 
HETATM   23  C8  UNL     1       3.472   7.976  16.182  1.00  0.00     0.010 C 
HETATM   24  C9  UNL     1       3.143   6.580  15.641  1.00  0.00     0.060 C 
BRANCH  21  25
HETATM   25  O2  UNL     1       0.909   7.248  16.202  1.00  0.00    -0.371 OA
ATOM     26  H2  UNL     1       0.942   7.991  16.792  1.00  0.00     0.212 HD
ENDBRANCH  21  25
ENDBRANCH  19  21
ENDBRANCH  18  19
ENDBRANCH  17  18
ENDBRANCH  12  17
ENDBRANCH  10  12
ENDBRANCH   9  10
BRANCH   9  27
HETATM   27  O3  UNL     1       5.560   6.590   9.991  1.00  0.00    -0.371 OA
ATOM     28  H3  UNL     1       6.364   6.152  10.244  1.00  0.00     0.212 HD
ENDBRANCH   9  27
ENDBRANCH   3   9
ENDBRANCH   1   2
BRANCH   1  29
HETATM   29  C14 UNL     1       1.297   5.268   8.239  1.00  0.00     0.128 A 
HETATM   30  N5  UNL     1       0.157   5.944   8.037  1.00  0.00    -0.337 N 
HETATM   31  C15 UNL     1      -0.981   5.603   8.670  1.00  0.00     0.126 A 
ATOM     32  H5  UNL     1       0.152   6.733   7.391  1.00  0.00     0.167 HD
HETATM   33  C16 UNL     1      -2.141   6.299   8.433  1.00  0.00     0.162 A 
HETATM   34  C19 UNL     1      -0.925   4.515   9.550  1.00  0.00     0.223 A 
HETATM   35  N6  UNL     1      -2.134   7.401   7.521  1.00  0.00    -0.080 NA
HETATM   36  N7  UNL     1      -3.239   5.907   9.074  1.00  0.00    -0.174 N 
HETATM   37  C17 UNL     1      -3.234   4.867   9.929  1.00  0.00     0.721 A 
ATOM     38  H7  UNL     1      -4.111   6.411   8.913  1.00  0.00     0.185 HD
HETATM   39  N8  UNL     1      -4.200   4.293  10.673  1.00  0.00    -0.117 N 
HETATM   40  N11 UNL     1      -2.081   4.165  10.174  1.00  0.00     0.047 N 
HETATM   41  N9  UNL     1      -3.685   3.305  11.332  1.00  0.00    -0.117 N 
ATOM     42  H8  UNL     1      -5.176   4.588  10.711  1.00  0.00     0.206 HD
HETATM   43  C18 UNL     1      -2.348   3.199  11.037  1.00  0.00     0.714 A 
ATOM     44  H9  UNL     1      -4.195   2.697  11.974  1.00  0.00     0.206 HD
HETATM   45  N12 UNL     1       0.208   3.847   9.751  1.00  0.00    -0.141 N 
HETATM   46  N13 UNL     1       1.314   4.243   9.080  1.00  0.00    -0.259 N 
ATOM     47  H13 UNL     1       2.188   3.738   9.226  1.00  0.00     0.191 HD
BRANCH  43  48
HETATM   48  N10 UNL     1      -1.659   2.307  11.577  1.00  0.00    -0.232 N 
ATOM     49 2H10 UNL     1      -1.281   2.178  12.516  1.00  0.00     0.174 HD
ATOM     50 1H10 UNL     1      -1.371   1.490  11.038  1.00  0.00     0.174 HD
ENDBRANCH  43  48
BRANCH  45  51
HETATM   51  O5  UNL     1       0.343   2.793  10.571  1.00  0.00    -0.266 OA
ATOM     52  H5  UNL     1       1.043   2.682  11.204  1.00  0.00     0.247 HD
ENDBRANCH  45  51
ENDBRANCH   1  29
BRANCH   1  53
HETATM   53  N14 UNL     1       2.100   5.432   6.061  1.00  0.00    -0.334 N 
HETATM   54  C20 UNL     1       1.559   4.311   5.568  1.00  0.00     0.110 A 
HETATM   55  C21 UNL     1       1.317   4.477   4.222  1.00  0.00     0.106 A 
HETATM   56  N15 UNL     1       1.726   5.733   3.915  1.00  0.00    -0.361 N 
HETATM   57  C22 UNL     1       2.200   6.295   5.051  1.00  0.00     0.183 A 
ATOM     58  H15 UNL     1       1.684   6.174   2.996  1.00  0.00     0.166 HD
ENDBRANCH   1  53
TORSDOF 16
ENDMDL
MODEL 4
REMARK VINA RESULT: -9.529640284      2.637      7.943
REMARK  16 active torsions:
REMARK  status: ('A' for Active; 'I' for Inactive)
REMARK    1  A    between atoms: C2_2  and  O1_3 
REMARK    2  A    between atoms: C2_2  and  C3_5 
REMARK    3  A    between atoms: C3_5  and  C4_6 
REMARK    4  A    between atoms: C3_5  and  N2_16 
REMARK    5  A    between atoms: C4_6  and  C5_7 
REMARK    6  A    between atoms: C5_7  and  N1_8 
REMARK    7  A    between atoms: N1_8  and  C6_10 
REMARK    8  A    between atoms: C6_10  and  O2_11 
REMARK    9  A    between atoms: N2_16  and  C10_18 
REMARK   10  A    between atoms: C10_18  and  O3_19 
REMARK   11  A    between atoms: C10_18  and  C11_21 
REMARK   12  A    between atoms: C12_27  and  C13_28 
REMARK   13  A    between atoms: C13_28  and  C14_29 
REMARK   14  A    between atoms: C13_28  and  N14_53 
REMARK   15  A    between atoms: C18_42  and  N10_43 
REMARK   16  A    between atoms: N12_48  and  O5_49 
ROOT
HETATM    1  C13 UNL     1       4.127   5.940  10.583  1.00  0.00     0.213 C 
ENDROOT
BRANCH   1   2
HETATM    2  C12 UNL     1       4.938   5.210   9.627  1.00  0.00     0.094 A 
HETATM    3  C11 UNL     1       4.606   4.649   8.446  1.00  0.00     0.109 A 
HETATM    4  N3  UNL     1       5.821   4.094   8.018  1.00  0.00    -0.239 N 
HETATM    5  O4  UNL     1       6.709   4.335   8.877  1.00  0.00    -0.157 OA
ATOM      6  H3  UNL     1       5.963   3.578   7.149  1.00  0.00     0.196 HD
HETATM    7  N4  UNL     1       6.278   4.993   9.871  1.00  0.00    -0.241 N 
ATOM      8  H4  UNL     1       6.812   5.299  10.684  1.00  0.00     0.196 HD
BRANCH   3   9
HETATM    9  C10 UNL     1       3.425   4.541   7.614  1.00  0.00     0.269 C 
BRANCH   9  10
HETATM   10  N2  UNL     1       2.661   5.501   7.033  1.00  0.00    -0.385 N 
ATOM     11  H2  UNL     1       3.132   6.400   6.936  1.00  0.00     0.156 HD
BRANCH  10  12
HETATM   12  C3  UNL     1       1.382   5.495   6.554  1.00  0.00     0.109 C 
BRANCH  12  13
HETATM   13  C2  UNL     1       0.587   4.272   6.960  1.00  0.00     0.136 C 
HETATM   14  C1  UNL     1      -0.882   4.629   6.620  1.00  0.00     0.041 C 
BRANCH  13  15
HETATM   15  O1  UNL     1       0.866   3.283   5.942  1.00  0.00    -0.394 OA
ATOM     16  H1  UNL     1       1.050   3.843   5.198  1.00  0.00     0.210 HD
ENDBRANCH  13  15
ENDBRANCH  12  13
BRANCH  12  17
HETATM   17  C4  UNL     1       1.093   5.754   5.093  1.00  0.00     0.046 C 
BRANCH  17  18
HETATM   18  C5  UNL     1       2.323   5.629   4.245  1.00  0.00     0.119 C 
BRANCH  18  19
HETATM   19  N1  UNL     1       2.529   4.349   3.644  1.00  0.00    -0.392 N 
ATOM     20  H1  UNL     1       3.097   3.643   4.111  1.00  0.00     0.156 HD
BRANCH  19  21
HETATM   21  C6  UNL     1       1.936   4.079   2.395  1.00  0.00     0.127 C 
HETATM   22  C7  UNL     1       1.107   2.789   2.441  1.00  0.00     0.060 C 
HETATM   23  C8  UNL     1       1.578   2.547   0.993  1.00  0.00     0.010 C 
HETATM   24  C9  UNL     1       2.815   3.370   1.368  1.00  0.00     0.060 C 
BRANCH  21  25
HETATM   25  O2  UNL     1       1.162   5.059   1.779  1.00  0.00    -0.371 OA
ATOM     26  H2  UNL     1       1.440   5.966   1.815  1.00  0.00     0.212 HD
ENDBRANCH  21  25
ENDBRANCH  19  21
ENDBRANCH  18  19
ENDBRANCH  17  18
ENDBRANCH  12  17
ENDBRANCH  10  12
ENDBRANCH   9  10
BRANCH   9  27
HETATM   27  O3  UNL     1       3.924   3.728   6.485  1.00  0.00    -0.371 OA
ATOM     28  H3  UNL     1       4.301   4.359   5.882  1.00  0.00     0.212 HD
ENDBRANCH   9  27
ENDBRANCH   3   9
ENDBRANCH   1   2
BRANCH   1  29
HETATM   29  C14 UNL     1       2.665   5.573  10.593  1.00  0.00     0.128 A 
HETATM   30  N5  UNL     1       1.788   6.451  10.083  1.00  0.00    -0.337 N 
HETATM   31  C15 UNL     1       0.473   6.172  10.023  1.00  0.00     0.126 A 
ATOM     32  H5  UNL     1       2.126   7.347   9.733  1.00  0.00     0.167 HD
HETATM   33  C16 UNL     1      -0.403   7.080   9.478  1.00  0.00     0.162 A 
HETATM   34  C19 UNL     1       0.057   4.930  10.517  1.00  0.00     0.223 A 
HETATM   35  N6  UNL     1       0.085   8.331   8.988  1.00  0.00    -0.080 NA
HETATM   36  N7  UNL     1      -1.689   6.744   9.430  1.00  0.00    -0.174 N 
HETATM   37  C17 UNL     1      -2.138   5.561   9.893  1.00  0.00     0.721 A 
ATOM     38  H7  UNL     1      -2.357   7.403   9.031  1.00  0.00     0.185 HD
HETATM   39  N8  UNL     1      -3.365   5.007   9.945  1.00  0.00    -0.117 N 
HETATM   40  N11 UNL     1      -1.271   4.648  10.439  1.00  0.00     0.047 N 
HETATM   41  N9  UNL     1      -3.269   3.834  10.483  1.00  0.00    -0.117 N 
ATOM     42  H8  UNL     1      -4.227   5.441   9.615  1.00  0.00     0.206 HD
HETATM   43  C18 UNL     1      -1.958   3.579  10.805  1.00  0.00     0.714 A 
ATOM     44  H9  UNL     1      -4.048   3.195  10.644  1.00  0.00     0.206 HD
HETATM   45  N12 UNL     1       0.927   4.062  11.025  1.00  0.00    -0.141 N 
HETATM   46  N13 UNL     1       2.235   4.406  11.053  1.00  0.00    -0.259 N 
ATOM     47  H13 UNL     1       2.911   3.748  11.440  1.00  0.00     0.191 HD
BRANCH  43  48
HETATM   48  N10 UNL     1      -1.648   2.495  11.346  1.00  0.00    -0.232 N 
ATOM     49 2H10 UNL     1      -2.176   1.663  11.613  1.00  0.00     0.174 HD
ATOM     50 1H10 UNL     1      -0.678   2.313  11.604  1.00  0.00     0.174 HD
ENDBRANCH  43  48
BRANCH  45  51
HETATM   51  O5  UNL     1       0.610   2.852  11.513  1.00  0.00    -0.266 OA
ATOM     52  H5  UNL     1       1.221   2.258  11.934  1.00  0.00     0.247 HD
ENDBRANCH  45  51
ENDBRANCH   1  29
BRANCH   1  53
HETATM   53  N14 UNL     1       4.091   7.375  10.222  1.00  0.00    -0.334 N 
HETATM   54  C20 UNL     1       4.332   7.911   9.018  1.00  0.00     0.110 A 
HETATM   55  C21 UNL     1       4.201   9.281   9.098  1.00  0.00     0.106 A 
HETATM   56  N15 UNL     1       3.872   9.556  10.384  1.00  0.00    -0.361 N 
HETATM   57  C22 UNL     1       3.812   8.380  11.049  1.00  0.00     0.183 A 
ATOM     58  H15 UNL     1       3.702  10.482  10.778  1.00  0.00     0.166 HD
ENDBRANCH   1  53
TORSDOF 16
ENDMDL
MODEL 5
REMARK VINA RESULT: -9.527666516      3.241      8.532
REMARK  16 active torsions:
REMARK  status: ('A' for Active; 'I' for Inactive)
REMARK    1  A    between atoms: C2_2  and  O1_3 
REMARK    2  A    between atoms: C2_2  and  C3_5 
REMARK    3  A    between atoms: C3_5  and  C4_6 
REMARK    4  A    between atoms: C3_5  and  N2_16 
REMARK    5  A    between atoms: C4_6  and  C5_7 
REMARK    6  A    between atoms: C5_7  and  N1_8 
REMARK    7  A    between atoms: N1_8  and  C6_10 
REMARK    8  A    between atoms: C6_10  and  O2_11 
REMARK    9  A    between atoms: N2_16  and  C10_18 
REMARK   10  A    between atoms: C10_18  and  O3_19 
REMARK   11  A    between atoms: C10_18  and  C11_21 
REMARK   12  A    between atoms: C12_27  and  C13_28 
REMARK   13  A    between atoms: C13_28  and  C14_29 
REMARK   14  A    between atoms: C13_28  and  N14_53 
REMARK   15  A    between atoms: C18_42  and  N10_43 
REMARK   16  A    between atoms: N12_48  and  O5_49 
ROOT
HETATM    1  C13 UNL     1       2.235   8.253   7.823  1.00  0.00     0.213 C 
ENDROOT
BRANCH   1   2
HETATM    2  C12 UNL     1       2.399   8.042   6.397  1.00  0.00     0.094 A 
HETATM    3  C11 UNL     1       2.317   6.911   5.665  1.00  0.00     0.109 A 
HETATM    4  N3  UNL     1       2.581   7.369   4.365  1.00  0.00    -0.239 N 
HETATM    5  O4  UNL     1       2.782   8.611   4.399  1.00  0.00    -0.157 OA
ATOM      6  H3  UNL     1       2.607   6.788   3.527  1.00  0.00     0.196 HD
HETATM    7  N4  UNL     1       2.695   9.101   5.565  1.00  0.00    -0.241 N 
ATOM      8  H4  UNL     1       2.819  10.077   5.833  1.00  0.00     0.196 HD
BRANCH   3   9
HETATM    9  C10 UNL     1       2.017   5.513   5.896  1.00  0.00     0.269 C 
BRANCH   9  10
HETATM   10  N2  UNL     1       1.924   4.472   5.030  1.00  0.00    -0.385 N 
ATOM     11  H2  UNL     1       2.541   3.693   5.255  1.00  0.00     0.156 HD
BRANCH  10  12
HETATM   12  C3  UNL     1       1.162   4.270   3.914  1.00  0.00     0.109 C 
BRANCH  12  13
HETATM   13  C2  UNL     1       0.337   3.001   3.963  1.00  0.00     0.136 C 
HETATM   14  C1  UNL     1       0.411   2.431   2.524  1.00  0.00     0.041 C 
BRANCH  13  15
HETATM   15  O1  UNL     1       1.155   2.045   4.675  1.00  0.00    -0.394 OA
ATOM     16  H1  UNL     1       1.761   2.626   5.119  1.00  0.00     0.210 HD
ENDBRANCH  13  15
ENDBRANCH  12  13
BRANCH  12  17
HETATM   17  C4  UNL     1       1.763   4.362   2.530  1.00  0.00     0.046 C 
BRANCH  17  18
HETATM   18  C5  UNL     1       3.240   4.618   2.574  1.00  0.00     0.119 C 
BRANCH  18  19
HETATM   19  N1  UNL     1       3.989   4.088   1.478  1.00  0.00    -0.392 N 
ATOM     20  H1  UNL     1       3.986   3.087   1.286  1.00  0.00     0.156 HD
BRANCH  19  21
HETATM   21  C6  UNL     1       4.733   4.969   0.670  1.00  0.00     0.127 C 
HETATM   22  C7  UNL     1       4.847   6.355   1.319  1.00  0.00     0.060 C 
HETATM   23  C8  UNL     1       4.760   6.927  -0.110  1.00  0.00     0.010 C 
HETATM   24  C9  UNL     1       3.970   5.661  -0.457  1.00  0.00     0.060 C 
BRANCH  21  25
HETATM   25  O2  UNL     1       6.004   4.597   0.240  1.00  0.00    -0.371 OA
ATOM     26  H2  UNL     1       6.743   4.691   0.829  1.00  0.00     0.212 HD
ENDBRANCH  21  25
ENDBRANCH  19  21
ENDBRANCH  18  19
ENDBRANCH  17  18
ENDBRANCH  12  17
ENDBRANCH  10  12
ENDBRANCH   9  10
BRANCH   9  27
HETATM   27  O3  UNL     1       3.094   5.124   6.832  1.00  0.00    -0.371 OA
ATOM     28  H3  UNL     1       3.668   5.881   6.866  1.00  0.00     0.212 HD
ENDBRANCH   9  27
ENDBRANCH   3   9
ENDBRANCH   1   2
BRANCH   1  29
HETATM   29  C14 UNL     1       1.379   7.230   8.527  1.00  0.00     0.128 A 
HETATM   30  N5  UNL     1       0.049   7.302   8.370  1.00  0.00    -0.337 N 
HETATM   31  C15 UNL     1      -0.772   6.399   8.936  1.00  0.00     0.126 A 
ATOM     32  H5  UNL     1      -0.347   8.057   7.810  1.00  0.00     0.167 HD
HETATM   33  C16 UNL     1      -2.130   6.483   8.745  1.00  0.00     0.162 A 
HETATM   34  C19 UNL     1      -0.182   5.383   9.697  1.00  0.00     0.223 A 
HETATM   35  N6  UNL     1      -2.672   7.545   7.955  1.00  0.00    -0.080 NA
HETATM   36  N7  UNL     1      -2.892   5.554   9.315  1.00  0.00    -0.174 N 
HETATM   37  C17 UNL     1      -2.371   4.557  10.056  1.00  0.00     0.721 A 
ATOM     38  H7  UNL     1      -3.903   5.597   9.188  1.00  0.00     0.185 HD
HETATM   39  N8  UNL     1      -2.928   3.520  10.712  1.00  0.00    -0.117 N 
HETATM   40  N11 UNL     1      -1.016   4.464  10.253  1.00  0.00     0.047 N 
HETATM   41  N9  UNL     1      -1.988   2.831  11.275  1.00  0.00    -0.117 N 
ATOM     42  H8  UNL     1      -3.925   3.312  10.757  1.00  0.00     0.206 HD
HETATM   43  C18 UNL     1      -0.769   3.403  11.003  1.00  0.00     0.714 A 
ATOM     44  H9  UNL     1      -2.130   1.991  11.837  1.00  0.00     0.206 HD
HETATM   45  N12 UNL     1       1.137   5.314   9.854  1.00  0.00    -0.141 N 
HETATM   46  N13 UNL     1       1.904   6.254   9.255  1.00  0.00    -0.259 N 
ATOM     47  H13 UNL     1       2.916   6.212   9.368  1.00  0.00     0.191 HD
BRANCH  43  48
HETATM   48  N10 UNL     1       0.276   2.893  11.462  1.00  0.00    -0.232 N 
ATOM     49 2H10 UNL     1       0.667   1.951  11.449  1.00  0.00     0.174 HD
ATOM     50 1H10 UNL     1       0.944   3.472  11.970  1.00  0.00     0.174 HD
ENDBRANCH  43  48
BRANCH  45  51
HETATM   51  O5  UNL     1       1.779   4.371  10.561  1.00  0.00    -0.266 OA
ATOM     52  H5  UNL     1       2.473   3.816  10.224  1.00  0.00     0.247 HD
ENDBRANCH  45  51
ENDBRANCH   1  29
BRANCH   1  53
HETATM   53  N14 UNL     1       1.491   9.509   8.065  1.00  0.00    -0.334 N 
HETATM   54  C20 UNL     1       1.710  10.403   9.037  1.00  0.00     0.110 A 
HETATM   55  C21 UNL     1       0.800  11.432   8.921  1.00  0.00     0.106 A 
HETATM   56  N15 UNL     1       0.026  11.134   7.848  1.00  0.00    -0.361 N 
HETATM   57  C22 UNL     1       0.466   9.958   7.344  1.00  0.00     0.183 A 
ATOM     58  H15 UNL     1      -0.746  11.694   7.487  1.00  0.00     0.166 HD
ENDBRANCH   1  53
TORSDOF 16
ENDMDL
