MODEL 1
REMARK VINA RESULT: -7.151934963      0.000      0.000
REMARK  7 active torsions:
REMARK  status: ('A' for Active; 'I' for Inactive)
REMARK       I    between atoms: C1_2  and  N1_3 
REMARK    1  A    between atoms: C1_2  and  C14_18 
REMARK    2  A    between atoms: N1_3  and  C2_5 
REMARK    3  A    between atoms: N2_9  and  C6_10 
REMARK    4  A    between atoms: C6_10  and  C7_11 
REMARK    5  A    between atoms: C7_11  and  C8_12 
REMARK    6  A    between atoms: C17_25  and  N5_26 
REMARK    7  A    between atoms: N5_26  and  C18_27 
ROOT
HETATM    1  O1  UNL     1      26.216   3.281  52.555  1.00  0.00    -0.267 OA
HETATM    2  C1  UNL     1      26.397   2.730  51.423  1.00  0.00     0.258 C 
HETATM    3  N1  UNL     1      26.084   1.377  51.295  1.00  0.00    -0.348 N 
ATOM      4  H1  UNL     1      26.231   0.937  50.386  1.00  0.00     0.163 HD
ENDROOT
BRANCH   2   5
HETATM    5  C14 UNL     1      26.924   3.549  50.351  1.00  0.00     0.105 A 
HETATM    6  C15 UNL     1      26.193   4.587  49.856  1.00  0.00     0.111 A 
HETATM    7  N3  UNL     1      26.703   5.371  48.898  1.00  0.00    -0.361 N 
HETATM    8  C16 UNL     1      27.932   5.115  48.444  1.00  0.00     0.182 A 
ATOM      9  H3  UNL     1      26.161   6.150  48.522  1.00  0.00     0.166 HD
HETATM   10  N4  UNL     1      28.697   4.126  48.876  1.00  0.00    -0.326 N 
HETATM   11  C17 UNL     1      28.240   3.281  49.855  1.00  0.00     0.197 A 
ATOM     12  H4  UNL     1      29.628   3.992  48.481  1.00  0.00     0.169 HD
BRANCH  11  13
HETATM   13  N5  UNL     1      28.812   2.353  50.282  1.00  0.00    -0.386 NA
BRANCH  13  14
HETATM   14  C18 UNL     1      29.475   1.316  50.688  1.00  0.00     0.109 A 
HETATM   15  C19 UNL     1      29.282   0.005  50.133  1.00  0.00     0.048 A 
HETATM   16  C20 UNL     1      29.969  -1.079  50.555  1.00  0.00     0.045 A 
HETATM   17  C21 UNL     1      30.895  -0.969  51.552  1.00  0.00     0.116 A 
HETATM   18  F1  UNL     1      31.608  -2.039  52.003  1.00  0.00    -0.206 F 
HETATM   19  C22 UNL     1      31.129   0.254  52.127  1.00  0.00     0.045 A 
HETATM   20  C23 UNL     1      30.443   1.356  51.710  1.00  0.00     0.048 A 
ENDBRANCH  13  14
ENDBRANCH  11  13
ENDBRANCH   2   5
BRANCH   3  21
HETATM   21  C2  UNL     1      25.563   0.557  52.372  1.00  0.00     0.123 C 
HETATM   22  C3  UNL     1      24.473  -0.364  51.993  1.00  0.00     0.036 C 
HETATM   23  C4  UNL     1      23.882  -0.851  53.333  1.00  0.00     0.047 C 
HETATM   24  C5  UNL     1      24.941  -1.738  53.919  1.00  0.00     0.063 C 
HETATM   25  N2  UNL     1      26.177  -1.109  54.016  1.00  0.00    -0.372 N 
HETATM   26  C13 UNL     1      26.652  -0.180  53.096  1.00  0.00     0.088 C 
BRANCH  25  27
HETATM   27  C6  UNL     1      27.229  -1.936  54.588  1.00  0.00     0.127 C 
BRANCH  27  28
HETATM   28  C7  UNL     1      28.259  -2.315  53.587  1.00  0.00     0.024 C 
BRANCH  28  29
HETATM   29  C8  UNL     1      28.118  -3.670  53.004  1.00  0.00    -0.013 C 
HETATM   30  C9  UNL     1      27.322  -3.680  51.724  1.00  0.00     0.005 C 
HETATM   31  C10 UNL     1      27.091  -5.159  51.522  1.00  0.00     0.000 C 
HETATM   32  C11 UNL     1      27.118  -5.777  52.880  1.00  0.00     0.000 C 
HETATM   33  C12 UNL     1      27.331  -4.625  53.868  1.00  0.00     0.005 C 
ENDBRANCH  28  29
ENDBRANCH  27  28
ENDBRANCH  25  27
ENDBRANCH   3  21
TORSDOF 7
ENDMDL
MODEL 2
REMARK VINA RESULT: -7.129094640      1.429      1.915
REMARK  7 active torsions:
REMARK  status: ('A' for Active; 'I' for Inactive)
REMARK       I    between atoms: C1_2  and  N1_3 
REMARK    1  A    between atoms: C1_2  and  C14_18 
REMARK    2  A    between atoms: N1_3  and  C2_5 
REMARK    3  A    between atoms: N2_9  and  C6_10 
REMARK    4  A    between atoms: C6_10  and  C7_11 
REMARK    5  A    between atoms: C7_11  and  C8_12 
REMARK    6  A    between atoms: C17_25  and  N5_26 
REMARK    7  A    between atoms: N5_26  and  C18_27 
ROOT
HETATM    1  O1  UNL     1      26.871   2.799  52.581  1.00  0.00    -0.267 OA
HETATM    2  C1  UNL     1      26.745   2.437  51.368  1.00  0.00     0.258 C 
HETATM    3  N1  UNL     1      26.305   1.139  51.112  1.00  0.00    -0.348 N 
ATOM      4  H1  UNL     1      26.206   0.850  50.139  1.00  0.00     0.163 HD
ENDROOT
BRANCH   2   5
HETATM    5  C14 UNL     1      27.075   3.401  50.339  1.00  0.00     0.105 A 
HETATM    6  C15 UNL     1      26.201   4.398  50.023  1.00  0.00     0.111 A 
HETATM    7  N3  UNL     1      26.530   5.315  49.105  1.00  0.00    -0.361 N 
HETATM    8  C16 UNL     1      27.724   5.233  48.514  1.00  0.00     0.182 A 
ATOM      9  H3  UNL     1      25.880   6.063  48.863  1.00  0.00     0.166 HD
HETATM   10  N4  UNL     1      28.622   4.295  48.770  1.00  0.00    -0.326 N 
HETATM   11  C17 UNL     1      28.353   3.320  49.697  1.00  0.00     0.197 A 
ATOM     12  H4  UNL     1      29.516   4.297  48.277  1.00  0.00     0.169 HD
BRANCH  11  13
HETATM   13  N5  UNL     1      29.052   2.424  49.972  1.00  0.00    -0.386 NA
BRANCH  13  14
HETATM   14  C18 UNL     1      29.873   1.452  50.224  1.00  0.00     0.109 A 
HETATM   15  C19 UNL     1      30.139   0.397  49.286  1.00  0.00     0.048 A 
HETATM   16  C20 UNL     1      30.991  -0.618  49.545  1.00  0.00     0.045 A 
HETATM   17  C21 UNL     1      31.650  -0.683  50.739  1.00  0.00     0.116 A 
HETATM   18  F1  UNL     1      32.519  -1.691  51.036  1.00  0.00    -0.206 F 
HETATM   19  C22 UNL     1      31.443   0.292  51.681  1.00  0.00     0.045 A 
HETATM   20  C23 UNL     1      30.586   1.322  51.432  1.00  0.00     0.048 A 
ENDBRANCH  13  14
ENDBRANCH  11  13
ENDBRANCH   2   5
BRANCH   3  21
HETATM   21  C2  UNL     1      25.981   0.172  52.145  1.00  0.00     0.123 C 
HETATM   22  C3  UNL     1      24.626  -0.409  52.061  1.00  0.00     0.036 C 
HETATM   23  C4  UNL     1      24.414  -1.116  53.417  1.00  0.00     0.047 C 
HETATM   24  C5  UNL     1      25.337  -2.298  53.381  1.00  0.00     0.063 C 
HETATM   25  N2  UNL     1      26.652  -1.946  53.101  1.00  0.00    -0.372 N 
HETATM   26  C13 UNL     1      27.016  -0.909  52.249  1.00  0.00     0.088 C 
BRANCH  25  27
HETATM   27  C6  UNL     1      27.580  -3.067  53.067  1.00  0.00     0.127 C 
BRANCH  27  28
HETATM   28  C7  UNL     1      28.928  -2.672  52.586  1.00  0.00     0.024 C 
BRANCH  28  29
HETATM   29  C8  UNL     1      30.064  -3.428  53.164  1.00  0.00    -0.013 C 
HETATM   30  C9  UNL     1      29.639  -4.397  54.237  1.00  0.00     0.005 C 
HETATM   31  C10 UNL     1      30.971  -4.792  54.832  1.00  0.00     0.000 C 
HETATM   32  C11 UNL     1      31.891  -3.641  54.603  1.00  0.00     0.000 C 
HETATM   33  C12 UNL     1      31.058  -2.563  53.901  1.00  0.00     0.005 C 
ENDBRANCH  28  29
ENDBRANCH  27  28
ENDBRANCH  25  27
ENDBRANCH   3  21
TORSDOF 7
ENDMDL
MODEL 3
REMARK VINA RESULT: -7.106429172      0.959      1.748
REMARK  7 active torsions:
REMARK  status: ('A' for Active; 'I' for Inactive)
REMARK       I    between atoms: C1_2  and  N1_3 
REMARK    1  A    between atoms: C1_2  and  C14_18 
REMARK    2  A    between atoms: N1_3  and  C2_5 
REMARK    3  A    between atoms: N2_9  and  C6_10 
REMARK    4  A    between atoms: C6_10  and  C7_11 
REMARK    5  A    between atoms: C7_11  and  C8_12 
REMARK    6  A    between atoms: C17_25  and  N5_26 
REMARK    7  A    between atoms: N5_26  and  C18_27 
ROOT
HETATM    1  O1  UNL     1      26.607   3.152  52.522  1.00  0.00    -0.267 OA
HETATM    2  C1  UNL     1      26.591   2.693  51.335  1.00  0.00     0.258 C 
HETATM    3  N1  UNL     1      26.121   1.395  51.140  1.00  0.00    -0.348 N 
ATOM      4  H1  UNL     1      26.111   1.028  50.189  1.00  0.00     0.163 HD
ENDROOT
BRANCH   2   5
HETATM    5  C14 UNL     1      27.072   3.553  50.274  1.00  0.00     0.105 A 
HETATM    6  C15 UNL     1      26.304   4.584  49.822  1.00  0.00     0.111 A 
HETATM    7  N3  UNL     1      26.770   5.405  48.874  1.00  0.00    -0.361 N 
HETATM    8  C16 UNL     1      27.995   5.194  48.387  1.00  0.00     0.182 A 
ATOM      9  H3  UNL     1      26.200   6.178  48.531  1.00  0.00     0.166 HD
HETATM   10  N4  UNL     1      28.796   4.215  48.776  1.00  0.00    -0.326 N 
HETATM   11  C17 UNL     1      28.383   3.333  49.743  1.00  0.00     0.197 A 
ATOM     12  H4  UNL     1      29.721   4.116  48.357  1.00  0.00     0.169 HD
BRANCH  11  13
HETATM   13  N5  UNL     1      28.988   2.410  50.132  1.00  0.00    -0.386 NA
BRANCH  13  14
HETATM   14  C18 UNL     1      29.702   1.394  50.505  1.00  0.00     0.109 A 
HETATM   15  C19 UNL     1      30.562   1.429  51.654  1.00  0.00     0.048 A 
HETATM   16  C20 UNL     1      31.308   0.373  52.046  1.00  0.00     0.045 A 
HETATM   17  C21 UNL     1      31.274  -0.798  51.345  1.00  0.00     0.116 A 
HETATM   18  F1  UNL     1      32.011  -1.885  51.710  1.00  0.00    -0.206 F 
HETATM   19  C22 UNL     1      30.473  -0.901  50.236  1.00  0.00     0.045 A 
HETATM   20  C23 UNL     1      29.715   0.157  49.831  1.00  0.00     0.048 A 
ENDBRANCH  13  14
ENDBRANCH  11  13
ENDBRANCH   2   5
BRANCH   3  21
HETATM   21  C2  UNL     1      25.647   0.533  52.206  1.00  0.00     0.123 C 
HETATM   22  C3  UNL     1      24.190   0.289  52.219  1.00  0.00     0.036 C 
HETATM   23  C4  UNL     1      23.907  -0.348  53.596  1.00  0.00     0.047 C 
HETATM   24  C5  UNL     1      24.521  -1.715  53.521  1.00  0.00     0.063 C 
HETATM   25  N2  UNL     1      25.860  -1.684  53.152  1.00  0.00    -0.372 N 
HETATM   26  C13 UNL     1      26.402  -0.763  52.262  1.00  0.00     0.088 C 
BRANCH  25  27
HETATM   27  C6  UNL     1      26.493  -2.992  53.076  1.00  0.00     0.127 C 
BRANCH  27  28
HETATM   28  C7  UNL     1      27.698  -2.990  52.207  1.00  0.00     0.024 C 
BRANCH  28  29
HETATM   29  C8  UNL     1      28.966  -3.382  52.867  1.00  0.00    -0.013 C 
HETATM   30  C9  UNL     1      28.822  -4.604  53.737  1.00  0.00     0.005 C 
HETATM   31  C10 UNL     1      30.134  -4.597  54.487  1.00  0.00     0.000 C 
HETATM   32  C11 UNL     1      30.577  -3.174  54.545  1.00  0.00     0.000 C 
HETATM   33  C12 UNL     1      29.481  -2.359  53.850  1.00  0.00     0.005 C 
ENDBRANCH  28  29
ENDBRANCH  27  28
ENDBRANCH  25  27
ENDBRANCH   3  21
TORSDOF 7
ENDMDL
MODEL 4
REMARK VINA RESULT: -6.862838084      2.410      5.940
REMARK  7 active torsions:
REMARK  status: ('A' for Active; 'I' for Inactive)
REMARK       I    between atoms: C1_2  and  N1_3 
REMARK    1  A    between atoms: C1_2  and  C14_18 
REMARK    2  A    between atoms: N1_3  and  C2_5 
REMARK    3  A    between atoms: N2_9  and  C6_10 
REMARK    4  A    between atoms: C6_10  and  C7_11 
REMARK    5  A    between atoms: C7_11  and  C8_12 
REMARK    6  A    between atoms: C17_25  and  N5_26 
REMARK    7  A    between atoms: N5_26  and  C18_27 
ROOT
HETATM    1  O1  UNL     1      23.562   2.434  50.869  1.00  0.00    -0.267 OA
HETATM    2  C1  UNL     1      24.119   2.460  52.012  1.00  0.00     0.258 C 
HETATM    3  N1  UNL     1      25.470   2.802  52.076  1.00  0.00    -0.348 N 
ATOM      4  H1  UNL     1      25.915   2.821  52.993  1.00  0.00     0.163 HD
ENDROOT
BRANCH   2   5
HETATM    5  C14 UNL     1      23.311   2.122  53.165  1.00  0.00     0.105 A 
HETATM    6  C15 UNL     1      22.446   3.035  53.690  1.00  0.00     0.111 A 
HETATM    7  N3  UNL     1      21.666   2.704  54.726  1.00  0.00    -0.361 N 
HETATM    8  C16 UNL     1      21.751   1.469  55.227  1.00  0.00     0.182 A 
ATOM      9  H3  UNL     1      21.016   3.383  55.125  1.00  0.00     0.166 HD
HETATM   10  N4  UNL     1      22.566   0.533  54.769  1.00  0.00    -0.326 N 
HETATM   11  C17 UNL     1      23.398   0.802  53.711  1.00  0.00     0.197 A 
ATOM     12  H4  UNL     1      22.576  -0.390  55.204  1.00  0.00     0.169 HD
BRANCH  11  13
HETATM   13  N5  UNL     1      24.184   0.066  53.253  1.00  0.00    -0.386 NA
BRANCH  13  14
HETATM   14  C18 UNL     1      25.066  -0.776  52.813  1.00  0.00     0.109 A 
HETATM   15  C19 UNL     1      25.709  -0.630  51.537  1.00  0.00     0.048 A 
HETATM   16  C20 UNL     1      26.627  -1.506  51.073  1.00  0.00     0.045 A 
HETATM   17  C21 UNL     1      26.987  -2.593  51.817  1.00  0.00     0.116 A 
HETATM   18  F1  UNL     1      27.910  -3.497  51.382  1.00  0.00    -0.206 F 
HETATM   19  C22 UNL     1      26.411  -2.793  53.045  1.00  0.00     0.045 A 
HETATM   20  C23 UNL     1      25.484  -1.917  53.525  1.00  0.00     0.048 A 
ENDBRANCH  13  14
ENDBRANCH  11  13
ENDBRANCH   2   5
BRANCH   3  21
HETATM   21  C2  UNL     1      26.280   3.134  50.919  1.00  0.00     0.123 C 
HETATM   22  C3  UNL     1      26.446   4.577  50.657  1.00  0.00     0.036 C 
HETATM   23  C4  UNL     1      27.033   4.657  49.232  1.00  0.00     0.047 C 
HETATM   24  C5  UNL     1      28.433   4.132  49.365  1.00  0.00     0.063 C 
HETATM   25  N2  UNL     1      28.483   2.873  49.952  1.00  0.00    -0.372 N 
HETATM   26  C13 UNL     1      27.613   2.444  50.948  1.00  0.00     0.088 C 
BRANCH  25  27
HETATM   27  C6  UNL     1      29.824   2.327  50.090  1.00  0.00     0.127 C 
BRANCH  27  28
HETATM   28  C7  UNL     1      29.836   1.029  50.812  1.00  0.00     0.024 C 
BRANCH  28  29
HETATM   29  C8  UNL     1      30.200  -0.155  49.997  1.00  0.00    -0.013 C 
HETATM   30  C9  UNL     1      31.671  -0.475  50.050  1.00  0.00     0.005 C 
HETATM   31  C10 UNL     1      31.798  -1.494  48.942  1.00  0.00     0.000 C 
HETATM   32  C11 UNL     1      30.708  -1.195  47.969  1.00  0.00     0.000 C 
HETATM   33  C12 UNL     1      29.974   0.034  48.517  1.00  0.00     0.005 C 
ENDBRANCH  28  29
ENDBRANCH  27  28
ENDBRANCH  25  27
ENDBRANCH   3  21
TORSDOF 7
ENDMDL
MODEL 5
REMARK VINA RESULT: -6.818496068      2.252      5.763
REMARK  7 active torsions:
REMARK  status: ('A' for Active; 'I' for Inactive)
REMARK       I    between atoms: C1_2  and  N1_3 
REMARK    1  A    between atoms: C1_2  and  C14_18 
REMARK    2  A    between atoms: N1_3  and  C2_5 
REMARK    3  A    between atoms: N2_9  and  C6_10 
REMARK    4  A    between atoms: C6_10  and  C7_11 
REMARK    5  A    between atoms: C7_11  and  C8_12 
REMARK    6  A    between atoms: C17_25  and  N5_26 
REMARK    7  A    between atoms: N5_26  and  C18_27 
ROOT
HETATM    1  O1  UNL     1      23.830   2.314  50.726  1.00  0.00    -0.267 OA
HETATM    2  C1  UNL     1      24.340   2.376  51.889  1.00  0.00     0.258 C 
HETATM    3  N1  UNL     1      25.689   2.713  51.997  1.00  0.00    -0.348 N 
ATOM      4  H1  UNL     1      26.096   2.762  52.931  1.00  0.00     0.163 HD
ENDROOT
BRANCH   2   5
HETATM    5  C14 UNL     1      23.481   2.084  53.018  1.00  0.00     0.105 A 
HETATM    6  C15 UNL     1      22.637   3.037  53.505  1.00  0.00     0.111 A 
HETATM    7  N3  UNL     1      21.811   2.749  54.518  1.00  0.00    -0.361 N 
HETATM    8  C16 UNL     1      21.832   1.518  55.034  1.00  0.00     0.182 A 
ATOM      9  H3  UNL     1      21.177   3.457  54.888  1.00  0.00     0.166 HD
HETATM   10  N4  UNL     1      22.623   0.544  54.614  1.00  0.00    -0.326 N 
HETATM   11  C17 UNL     1      23.498   0.768  53.581  1.00  0.00     0.197 A 
ATOM     12  H4  UNL     1      22.583  -0.373  55.059  1.00  0.00     0.169 HD
BRANCH  11  13
HETATM   13  N5  UNL     1      24.269  -0.003  53.157  1.00  0.00    -0.386 NA
BRANCH  13  14
HETATM   14  C18 UNL     1      25.133  -0.883  52.755  1.00  0.00     0.109 A 
HETATM   15  C19 UNL     1      25.525  -2.009  53.556  1.00  0.00     0.048 A 
HETATM   16  C20 UNL     1      26.425  -2.927  53.141  1.00  0.00     0.045 A 
HETATM   17  C21 UNL     1      27.013  -2.817  51.915  1.00  0.00     0.116 A 
HETATM   18  F1  UNL     1      27.925  -3.724  51.462  1.00  0.00    -0.206 F 
HETATM   19  C22 UNL     1      26.685  -1.765  51.098  1.00  0.00     0.045 A 
HETATM   20  C23 UNL     1      25.778  -0.833  51.503  1.00  0.00     0.048 A 
ENDBRANCH  13  14
ENDBRANCH  11  13
ENDBRANCH   2   5
BRANCH   3  21
HETATM   21  C2  UNL     1      26.549   2.999  50.864  1.00  0.00     0.123 C 
HETATM   22  C3  UNL     1      26.953   4.412  50.719  1.00  0.00     0.036 C 
HETATM   23  C4  UNL     1      27.553   4.508  49.301  1.00  0.00     0.047 C 
HETATM   24  C5  UNL     1      28.846   3.750  49.379  1.00  0.00     0.063 C 
HETATM   25  N2  UNL     1      28.683   2.457  49.861  1.00  0.00    -0.372 N 
HETATM   26  C13 UNL     1      27.748   2.097  50.827  1.00  0.00     0.088 C 
BRANCH  25  27
HETATM   27  C6  UNL     1      29.915   1.687  49.943  1.00  0.00     0.127 C 
BRANCH  27  28
HETATM   28  C7  UNL     1      29.730   0.276  49.517  1.00  0.00     0.024 C 
BRANCH  28  29
HETATM   29  C8  UNL     1      30.507  -0.732  50.278  1.00  0.00    -0.013 C 
HETATM   30  C9  UNL     1      30.085  -0.834  51.720  1.00  0.00     0.005 C 
HETATM   31  C10 UNL     1      31.194  -1.678  52.302  1.00  0.00     0.000 C 
HETATM   32  C11 UNL     1      32.398  -1.428  51.458  1.00  0.00     0.000 C 
HETATM   33  C12 UNL     1      31.974  -0.398  50.406  1.00  0.00     0.005 C 
ENDBRANCH  28  29
ENDBRANCH  27  28
ENDBRANCH  25  27
ENDBRANCH   3  21
TORSDOF 7
ENDMDL
