MODEL 1
REMARK VINA RESULT: -8.101161318      0.000      0.000
REMARK  6 active torsions:
REMARK  status: ('A' for Active; 'I' for Inactive)
REMARK    1  A    between atoms: C6_7  and  N1_8 
REMARK    2  A    between atoms: N1_8  and  C7_10 
REMARK    3  A    between atoms: C10_13  and  C11_14 
REMARK    4  A    between atoms: C11_14  and  N2_15 
REMARK    5  A    between atoms: N2_15  and  S1_17 
REMARK    6  A    between atoms: S1_17  and  C12_20 
ROOT
HETATM    1  C12 UNL     1      26.055   3.158  51.112  1.00  0.00     0.081 A 
HETATM    2  C13 UNL     1      26.872   2.686  52.120  1.00  0.00     0.025 A 
HETATM    3  C14 UNL     1      28.248   2.779  52.100  1.00  0.00     0.003 A 
HETATM    4  C15 UNL     1      28.850   3.379  51.011  1.00  0.00     0.023 A 
HETATM    5  C16 UNL     1      28.063   3.854  50.004  1.00  0.00     0.046 A 
HETATM    6  C17 UNL     1      28.713   4.479  48.875  1.00  0.00     0.099 C 
HETATM    7  N3  UNL     1      29.231   4.976  47.978  1.00  0.00    -0.191 NA
HETATM    8  C18 UNL     1      26.667   3.753  50.035  1.00  0.00     0.048 A 
ENDROOT
BRANCH   1   9
HETATM    9  S1  UNL     1      24.334   2.954  51.289  1.00  0.00     0.258 S 
HETATM   10  O1  UNL     1      23.954   3.317  52.690  1.00  0.00    -0.201 OA
HETATM   11  O2  UNL     1      23.646   3.855  50.302  1.00  0.00    -0.201 OA
BRANCH   9  12
HETATM   12  N2  UNL     1      23.854   1.322  51.004  1.00  0.00    -0.315 N 
ATOM     13  H2  UNL     1      23.550   0.940  50.109  1.00  0.00     0.172 HD
BRANCH  12  14
HETATM   14  C11 UNL     1      23.950   0.600  52.219  1.00  0.00     0.136 C 
BRANCH  14  15
HETATM   15  C10 UNL     1      24.614  -0.754  52.134  1.00  0.00     0.004 C 
HETATM   16  C9  UNL     1      25.729  -0.734  51.115  1.00  0.00     0.008 C 
HETATM   17  C8  UNL     1      26.623  -1.917  51.455  1.00  0.00     0.025 C 
HETATM   18  C7  UNL     1      27.435  -1.483  52.638  1.00  0.00     0.077 C 
HETATM   19  C20 UNL     1      26.547  -0.954  53.747  1.00  0.00     0.025 C 
HETATM   20  C19 UNL     1      25.091  -1.148  53.503  1.00  0.00     0.008 C 
BRANCH  18  21
HETATM   21  N1  UNL     1      28.439  -0.596  52.332  1.00  0.00    -0.413 N 
ATOM     22  H1  UNL     1      28.323   0.337  52.727  1.00  0.00     0.154 HD
BRANCH  21  23
HETATM   23  C6  UNL     1      29.567  -0.766  51.584  1.00  0.00     0.080 C 
HETATM   24  C5  UNL     1      30.638  -1.688  52.141  1.00  0.00     0.025 C 
HETATM   25  C4  UNL     1      31.931  -1.356  51.429  1.00  0.00     0.005 C 
HETATM   26  C3  UNL     1      31.799  -0.376  50.314  1.00  0.00     0.043 C 
HETATM   27  C2  UNL     1      30.639  -0.587  49.405  1.00  0.00     0.102 C 
HETATM   28  C1  UNL     1      30.224   0.740  48.817  1.00  0.00     0.051 C 
HETATM   29  F1  UNL     1      30.894  -1.486  48.380  1.00  0.00    -0.243 F 
HETATM   30  C21 UNL     1      29.422  -1.147  50.139  1.00  0.00     0.067 C 
ENDBRANCH  21  23
ENDBRANCH  18  21
ENDBRANCH  14  15
ENDBRANCH  12  14
ENDBRANCH   9  12
ENDBRANCH   1   9
TORSDOF 6
ENDMDL
MODEL 2
REMARK VINA RESULT: -8.072972990      3.533      5.767
REMARK  6 active torsions:
REMARK  status: ('A' for Active; 'I' for Inactive)
REMARK    1  A    between atoms: C6_7  and  N1_8 
REMARK    2  A    between atoms: N1_8  and  C7_10 
REMARK    3  A    between atoms: C10_13  and  C11_14 
REMARK    4  A    between atoms: C11_14  and  N2_15 
REMARK    5  A    between atoms: N2_15  and  S1_17 
REMARK    6  A    between atoms: S1_17  and  C12_20 
ROOT
HETATM    1  C12 UNL     1      28.772   2.288  50.594  1.00  0.00     0.081 A 
HETATM    2  C13 UNL     1      28.942   2.426  51.957  1.00  0.00     0.025 A 
HETATM    3  C14 UNL     1      28.133   3.207  52.755  1.00  0.00     0.003 A 
HETATM    4  C15 UNL     1      27.092   3.894  52.164  1.00  0.00     0.023 A 
HETATM    5  C16 UNL     1      26.904   3.772  50.818  1.00  0.00     0.046 A 
HETATM    6  C17 UNL     1      25.808   4.497  50.220  1.00  0.00     0.099 C 
HETATM    7  N3  UNL     1      24.935   5.075  49.744  1.00  0.00    -0.191 NA
HETATM    8  C18 UNL     1      27.732   2.976  50.017  1.00  0.00     0.048 A 
ENDROOT
BRANCH   1   9
HETATM    9  S1  UNL     1      29.888   1.267  49.729  1.00  0.00     0.258 S 
HETATM   10  O1  UNL     1      30.131   1.865  48.379  1.00  0.00    -0.201 OA
HETATM   11  O2  UNL     1      31.166   1.189  50.514  1.00  0.00    -0.201 OA
BRANCH   9  12
HETATM   12  N2  UNL     1      29.255  -0.323  49.508  1.00  0.00    -0.315 N 
ATOM     13  H2  UNL     1      28.508  -0.581  48.864  1.00  0.00     0.172 HD
BRANCH  12  14
HETATM   14  C11 UNL     1      29.943  -1.211  50.370  1.00  0.00     0.136 C 
BRANCH  14  15
HETATM   15  C10 UNL     1      29.096  -1.935  51.390  1.00  0.00     0.004 C 
HETATM   16  C9  UNL     1      28.944  -1.100  52.640  1.00  0.00     0.008 C 
HETATM   17  C8  UNL     1      27.720  -1.647  53.359  1.00  0.00     0.025 C 
HETATM   18  C7  UNL     1      26.538  -1.099  52.617  1.00  0.00     0.077 C 
HETATM   19  C20 UNL     1      26.645  -1.383  51.131  1.00  0.00     0.025 C 
HETATM   20  C19 UNL     1      27.774  -2.281  50.765  1.00  0.00     0.008 C 
BRANCH  18  21
HETATM   21  N1  UNL     1      26.293   0.231  52.859  1.00  0.00    -0.413 N 
ATOM     22  H1  UNL     1      27.105   0.768  53.163  1.00  0.00     0.154 HD
BRANCH  21  23
HETATM   23  C6  UNL     1      25.136   0.947  52.756  1.00  0.00     0.080 C 
HETATM   24  C5  UNL     1      24.403   0.894  51.427  1.00  0.00     0.025 C 
HETATM   25  C4  UNL     1      23.471   2.085  51.381  1.00  0.00     0.005 C 
HETATM   26  C3  UNL     1      23.399   2.873  52.643  1.00  0.00     0.043 C 
HETATM   27  C2  UNL     1      23.305   2.075  53.897  1.00  0.00     0.102 C 
HETATM   28  C1  UNL     1      23.912   2.864  55.032  1.00  0.00     0.051 C 
HETATM   29  F1  UNL     1      22.007   1.713  54.228  1.00  0.00    -0.243 F 
HETATM   30  C21 UNL     1      24.079   0.761  53.806  1.00  0.00     0.067 C 
ENDBRANCH  21  23
ENDBRANCH  18  21
ENDBRANCH  14  15
ENDBRANCH  12  14
ENDBRANCH   9  12
ENDBRANCH   1   9
TORSDOF 6
ENDMDL
MODEL 3
REMARK VINA RESULT: -8.072928308      0.890      1.547
REMARK  6 active torsions:
REMARK  status: ('A' for Active; 'I' for Inactive)
REMARK    1  A    between atoms: C6_7  and  N1_8 
REMARK    2  A    between atoms: N1_8  and  C7_10 
REMARK    3  A    between atoms: C10_13  and  C11_14 
REMARK    4  A    between atoms: C11_14  and  N2_15 
REMARK    5  A    between atoms: N2_15  and  S1_17 
REMARK    6  A    between atoms: S1_17  and  C12_20 
ROOT
HETATM    1  C12 UNL     1      25.926   3.294  51.143  1.00  0.00     0.081 A 
HETATM    2  C13 UNL     1      26.651   3.076  52.297  1.00  0.00     0.025 A 
HETATM    3  C14 UNL     1      28.016   3.250  52.390  1.00  0.00     0.003 A 
HETATM    4  C15 UNL     1      28.704   3.664  51.267  1.00  0.00     0.023 A 
HETATM    5  C16 UNL     1      28.008   3.887  50.115  1.00  0.00     0.046 A 
HETATM    6  C17 UNL     1      28.746   4.322  48.952  1.00  0.00     0.099 C 
HETATM    7  N3  UNL     1      29.334   4.668  48.027  1.00  0.00    -0.191 NA
HETATM    8  C18 UNL     1      26.622   3.707  50.032  1.00  0.00     0.048 A 
ENDROOT
BRANCH   1   9
HETATM    9  S1  UNL     1      24.206   3.022  51.192  1.00  0.00     0.258 S 
HETATM   10  O1  UNL     1      23.709   3.365  52.562  1.00  0.00    -0.201 OA
HETATM   11  O2  UNL     1      23.557   3.898  50.157  1.00  0.00    -0.201 OA
BRANCH   9  12
HETATM   12  N2  UNL     1      23.813   1.373  50.873  1.00  0.00    -0.315 N 
ATOM     13  H2  UNL     1      23.617   0.976  49.954  1.00  0.00     0.172 HD
BRANCH  12  14
HETATM   14  C11 UNL     1      23.808   0.660  52.097  1.00  0.00     0.136 C 
BRANCH  14  15
HETATM   15  C10 UNL     1      24.613  -0.618  52.123  1.00  0.00     0.004 C 
HETATM   16  C9  UNL     1      25.639  -0.619  51.015  1.00  0.00     0.008 C 
HETATM   17  C8  UNL     1      26.686  -1.647  51.419  1.00  0.00     0.025 C 
HETATM   18  C7  UNL     1      27.529  -0.976  52.461  1.00  0.00     0.077 C 
HETATM   19  C20 UNL     1      26.672  -0.398  53.570  1.00  0.00     0.025 C 
HETATM   20  C19 UNL     1      25.234  -0.773  53.483  1.00  0.00     0.008 C 
BRANCH  18  21
HETATM   21  N1  UNL     1      28.400  -0.040  51.959  1.00  0.00    -0.413 N 
ATOM     22  H1  UNL     1      28.235   0.915  52.278  1.00  0.00     0.154 HD
BRANCH  21  23
HETATM   23  C6  UNL     1      29.451  -0.184  51.101  1.00  0.00     0.080 C 
HETATM   24  C5  UNL     1      29.257   0.309  49.677  1.00  0.00     0.025 C 
HETATM   25  C4  UNL     1      30.308  -0.365  48.823  1.00  0.00     0.005 C 
HETATM   26  C3  UNL     1      31.307  -1.172  49.578  1.00  0.00     0.043 C 
HETATM   27  C2  UNL     1      31.842  -0.541  50.816  1.00  0.00     0.102 C 
HETATM   28  C1  UNL     1      32.246  -1.623  51.788  1.00  0.00     0.051 C 
HETATM   29  F1  UNL     1      32.921   0.301  50.587  1.00  0.00    -0.243 F 
HETATM   30  C21 UNL     1      30.800   0.324  51.522  1.00  0.00     0.067 C 
ENDBRANCH  21  23
ENDBRANCH  18  21
ENDBRANCH  14  15
ENDBRANCH  12  14
ENDBRANCH   9  12
ENDBRANCH   1   9
TORSDOF 6
ENDMDL
MODEL 4
REMARK VINA RESULT: -7.986774761      2.452      5.051
REMARK  6 active torsions:
REMARK  status: ('A' for Active; 'I' for Inactive)
REMARK    1  A    between atoms: C6_7  and  N1_8 
REMARK    2  A    between atoms: N1_8  and  C7_10 
REMARK    3  A    between atoms: C10_13  and  C11_14 
REMARK    4  A    between atoms: C11_14  and  N2_15 
REMARK    5  A    between atoms: N2_15  and  S1_17 
REMARK    6  A    between atoms: S1_17  and  C12_20 
ROOT
HETATM    1  C12 UNL     1      25.893   3.409  51.045  1.00  0.00     0.081 A 
HETATM    2  C13 UNL     1      24.926   3.904  50.192  1.00  0.00     0.025 A 
HETATM    3  C14 UNL     1      23.637   3.420  50.130  1.00  0.00     0.003 A 
HETATM    4  C15 UNL     1      23.285   2.378  50.966  1.00  0.00     0.023 A 
HETATM    5  C16 UNL     1      24.223   1.874  51.818  1.00  0.00     0.046 A 
HETATM    6  C17 UNL     1      23.834   0.786  52.685  1.00  0.00     0.099 C 
HETATM    7  N3  UNL     1      23.523  -0.079  53.375  1.00  0.00    -0.191 NA
HETATM    8  C18 UNL     1      25.530   2.374  51.872  1.00  0.00     0.048 A 
ENDROOT
BRANCH   1   9
HETATM    9  S1  UNL     1      27.478   4.131  50.994  1.00  0.00     0.258 S 
HETATM   10  O1  UNL     1      27.657   4.791  49.663  1.00  0.00    -0.201 OA
HETATM   11  O2  UNL     1      27.576   5.139  52.104  1.00  0.00    -0.201 OA
BRANCH   9  12
HETATM   12  N2  UNL     1      28.721   2.950  51.182  1.00  0.00    -0.315 N 
ATOM     13  H2  UNL     1      29.326   2.849  51.997  1.00  0.00     0.172 HD
BRANCH  12  14
HETATM   14  C11 UNL     1      28.763   2.142  50.019  1.00  0.00     0.136 C 
BRANCH  14  15
HETATM   15  C10 UNL     1      30.092   1.494  49.710  1.00  0.00     0.004 C 
HETATM   16  C9  UNL     1      30.830   1.167  50.987  1.00  0.00     0.008 C 
HETATM   17  C8  UNL     1      31.857   0.109  50.612  1.00  0.00     0.025 C 
HETATM   18  C7  UNL     1      31.092  -1.175  50.498  1.00  0.00     0.077 C 
HETATM   19  C20 UNL     1      29.899  -1.020  49.574  1.00  0.00     0.025 C 
HETATM   20  C19 UNL     1      29.854   0.282  48.855  1.00  0.00     0.008 C 
BRANCH  18  21
HETATM   21  N1  UNL     1      30.725  -1.718  51.705  1.00  0.00    -0.413 N 
ATOM     22  H1  UNL     1      31.463  -1.737  52.409  1.00  0.00     0.154 HD
BRANCH  21  23
HETATM   23  C6  UNL     1      29.530  -2.237  52.112  1.00  0.00     0.080 C 
HETATM   24  C5  UNL     1      29.575  -3.424  53.057  1.00  0.00     0.025 C 
HETATM   25  C4  UNL     1      28.227  -4.106  52.984  1.00  0.00     0.005 C 
HETATM   26  C3  UNL     1      27.205  -3.390  52.171  1.00  0.00     0.043 C 
HETATM   27  C2  UNL     1      27.132  -1.918  52.379  1.00  0.00     0.102 C 
HETATM   28  C1  UNL     1      26.630  -1.264  51.114  1.00  0.00     0.051 C 
HETATM   29  F1  UNL     1      26.322  -1.548  53.443  1.00  0.00    -0.243 F 
HETATM   30  C21 UNL     1      28.498  -1.307  52.682  1.00  0.00     0.067 C 
ENDBRANCH  21  23
ENDBRANCH  18  21
ENDBRANCH  14  15
ENDBRANCH  12  14
ENDBRANCH   9  12
ENDBRANCH   1   9
TORSDOF 6
ENDMDL
MODEL 5
REMARK VINA RESULT: -7.974813403      4.020      6.109
REMARK  6 active torsions:
REMARK  status: ('A' for Active; 'I' for Inactive)
REMARK    1  A    between atoms: C6_7  and  N1_8 
REMARK    2  A    between atoms: N1_8  and  C7_10 
REMARK    3  A    between atoms: C10_13  and  C11_14 
REMARK    4  A    between atoms: C11_14  and  N2_15 
REMARK    5  A    between atoms: N2_15  and  S1_17 
REMARK    6  A    between atoms: S1_17  and  C12_20 
ROOT
HETATM    1  C12 UNL     1      31.289   0.308  51.450  1.00  0.00     0.081 A 
HETATM    2  C13 UNL     1      30.579   1.446  51.777  1.00  0.00     0.025 A 
HETATM    3  C14 UNL     1      29.723   2.091  50.910  1.00  0.00     0.003 A 
HETATM    4  C15 UNL     1      29.561   1.576  49.639  1.00  0.00     0.023 A 
HETATM    5  C16 UNL     1      30.252   0.451  49.295  1.00  0.00     0.046 A 
HETATM    6  C17 UNL     1      30.067  -0.074  47.962  1.00  0.00     0.099 C 
HETATM    7  N3  UNL     1      29.919  -0.491  46.900  1.00  0.00    -0.191 NA
HETATM    8  C18 UNL     1      31.119  -0.196  50.183  1.00  0.00     0.048 A 
ENDROOT
BRANCH   1   9
HETATM    9  S1  UNL     1      32.335  -0.381  52.661  1.00  0.00     0.258 S 
HETATM   10  O1  UNL     1      33.369  -1.218  51.975  1.00  0.00    -0.201 OA
HETATM   11  O2  UNL     1      32.981   0.742  53.423  1.00  0.00    -0.201 OA
BRANCH   9  12
HETATM   12  N2  UNL     1      31.464  -1.388  53.756  1.00  0.00    -0.315 N 
ATOM     13  H2  UNL     1      31.434  -1.278  54.770  1.00  0.00     0.172 HD
BRANCH  12  14
HETATM   14  C11 UNL     1      30.795  -2.395  53.017  1.00  0.00     0.136 C 
BRANCH  14  15
HETATM   15  C10 UNL     1      29.330  -2.584  53.330  1.00  0.00     0.004 C 
HETATM   16  C9  UNL     1      28.688  -1.262  53.679  1.00  0.00     0.008 C 
HETATM   17  C8  UNL     1      27.193  -1.460  53.479  1.00  0.00     0.025 C 
HETATM   18  C7  UNL     1      26.971  -1.397  51.997  1.00  0.00     0.077 C 
HETATM   19  C20 UNL     1      27.893  -2.351  51.265  1.00  0.00     0.025 C 
HETATM   20  C19 UNL     1      28.666  -3.255  52.160  1.00  0.00     0.008 C 
BRANCH  18  21
HETATM   21  N1  UNL     1      27.043  -0.128  51.475  1.00  0.00    -0.413 N 
ATOM     22  H1  UNL     1      27.907   0.082  50.975  1.00  0.00     0.154 HD
BRANCH  21  23
HETATM   23  C6  UNL     1      26.142   0.896  51.519  1.00  0.00     0.080 C 
HETATM   24  C5  UNL     1      24.671   0.523  51.577  1.00  0.00     0.025 C 
HETATM   25  C4  UNL     1      23.883   1.739  51.141  1.00  0.00     0.005 C 
HETATM   26  C3  UNL     1      24.695   2.970  50.929  1.00  0.00     0.043 C 
HETATM   27  C2  UNL     1      25.722   3.251  51.970  1.00  0.00     0.102 C 
HETATM   28  C1  UNL     1      26.856   4.029  51.348  1.00  0.00     0.051 C 
HETATM   29  F1  UNL     1      25.227   3.949  53.062  1.00  0.00    -0.243 F 
HETATM   30  C21 UNL     1      26.325   1.972  52.549  1.00  0.00     0.067 C 
ENDBRANCH  21  23
ENDBRANCH  18  21
ENDBRANCH  14  15
ENDBRANCH  12  14
ENDBRANCH   9  12
ENDBRANCH   1   9
TORSDOF 6
ENDMDL
