MODEL 1
REMARK VINA RESULT: -7.072315858      0.000      0.000
REMARK  5 active torsions:
REMARK  status: ('A' for Active; 'I' for Inactive)
REMARK    1  A    between atoms: C9_15  and  C10_16 
REMARK    2  A    between atoms: N3_17  and  O3_18 
REMARK    3  A    between atoms: N3_17  and  C11_20 
REMARK    4  A    between atoms: C11_20  and  C12_21 
REMARK    5  A    between atoms: C12_21  and  N4_22 
ROOT
HETATM    1  C1  UNL     1       8.201  23.416   0.738  1.00  0.00     0.049 C 
HETATM    2  C2  UNL     1       7.716  23.640   2.119  1.00  0.00    -0.048 A 
HETATM    3  C3  UNL     1       6.753  22.822   2.688  1.00  0.00     0.039 A 
HETATM    4  C4  UNL     1       6.321  23.055   3.975  1.00  0.00     0.062 A 
HETATM    5  N1  UNL     1       5.387  22.273   4.546  1.00  0.00    -0.317 N 
ATOM      6  H1  UNL     1       4.990  21.494   4.021  1.00  0.00     0.169 HD
HETATM    7  C5  UNL     1       4.968  22.511   5.812  1.00  0.00     0.314 A 
HETATM    8  O1  UNL     1       4.093  21.778   6.342  1.00  0.00    -0.262 OA
HETATM    9  C6  UNL     1       5.480  23.558   6.562  1.00  0.00     0.314 A 
HETATM   10  O2  UNL     1       5.105  23.797   7.740  1.00  0.00    -0.262 OA
HETATM   11  N2  UNL     1       6.412  24.330   5.979  1.00  0.00    -0.317 N 
ATOM     12  H2  UNL     1       6.811  25.110   6.501  1.00  0.00     0.169 HD
HETATM   13  C7  UNL     1       6.832  24.093   4.715  1.00  0.00     0.063 A 
HETATM   14  C8  UNL     1       7.805  24.909   4.119  1.00  0.00     0.045 A 
HETATM   15  C9  UNL     1       8.263  24.708   2.835  1.00  0.00    -0.010 A 
ENDROOT
BRANCH  15  16
HETATM   16  C10 UNL     1       9.256  25.533   2.216  1.00  0.00     0.128 C 
HETATM   17  N3  UNL     1       9.313  26.773   2.030  1.00  0.00    -0.270 N 
BRANCH  17  18
HETATM   18  O3  UNL     1       8.365  27.667   2.407  1.00  0.00    -0.288 OA
ATOM     19  H3  UNL     1       8.332  28.578   2.140  1.00  0.00     0.244 HD
ENDBRANCH  17  18
BRANCH  17  20
HETATM   20  C11 UNL     1      10.488  27.345   1.346  1.00  0.00     0.185 C 
BRANCH  20  21
HETATM   21  C12 UNL     1      11.759  26.731   1.905  1.00  0.00     0.293 C 
BRANCH  21  22
HETATM   22  N4  UNL     1      12.718  27.742   2.225  1.00  0.00     0.081 N 
HETATM   23  C13 UNL     1      14.074  27.331   1.864  1.00  0.00     0.309 C 
HETATM   24  C14 UNL     1      12.419  28.897   1.377  1.00  0.00     0.309 C 
ENDBRANCH  21  22
ENDBRANCH  20  21
ENDBRANCH  17  20
ENDBRANCH  15  16
TORSDOF 5
ENDMDL
MODEL 2
REMARK VINA RESULT: -6.998741601      2.604      7.707
REMARK  5 active torsions:
REMARK  status: ('A' for Active; 'I' for Inactive)
REMARK    1  A    between atoms: C9_15  and  C10_16 
REMARK    2  A    between atoms: N3_17  and  O3_18 
REMARK    3  A    between atoms: N3_17  and  C11_20 
REMARK    4  A    between atoms: C11_20  and  C12_21 
REMARK    5  A    between atoms: C12_21  and  N4_22 
ROOT
HETATM    1  C1  UNL     1       6.485  25.138   6.522  1.00  0.00     0.049 C 
HETATM    2  C2  UNL     1       7.392  24.710   5.432  1.00  0.00    -0.048 A 
HETATM    3  C3  UNL     1       8.445  25.507   5.012  1.00  0.00     0.039 A 
HETATM    4  C4  UNL     1       9.271  25.082   3.995  1.00  0.00     0.062 A 
HETATM    5  N1  UNL     1      10.298  25.841   3.572  1.00  0.00    -0.317 N 
ATOM      6  H1  UNL     1      10.471  26.746   4.010  1.00  0.00     0.169 HD
HETATM    7  C5  UNL     1      11.104  25.415   2.571  1.00  0.00     0.314 A 
HETATM    8  O1  UNL     1      12.064  26.128   2.179  1.00  0.00    -0.262 OA
HETATM    9  C6  UNL     1      10.906  24.192   1.949  1.00  0.00     0.314 A 
HETATM   10  O2  UNL     1      11.643  23.777   1.017  1.00  0.00    -0.262 OA
HETATM   11  N2  UNL     1       9.877  23.445   2.382  1.00  0.00    -0.317 N 
ATOM     12  H2  UNL     1       9.700  22.540   1.947  1.00  0.00     0.169 HD
HETATM   13  C7  UNL     1       9.071  23.870   3.382  1.00  0.00     0.063 A 
HETATM   14  C8  UNL     1       7.999  23.079   3.822  1.00  0.00     0.045 A 
HETATM   15  C9  UNL     1       7.151  23.469   4.836  1.00  0.00    -0.010 A 
ENDROOT
BRANCH  15  16
HETATM   16  C10 UNL     1       6.054  22.671   5.294  1.00  0.00     0.128 C 
HETATM   17  N3  UNL     1       4.868  22.575   4.895  1.00  0.00    -0.270 N 
BRANCH  17  18
HETATM   18  O3  UNL     1       4.330  23.266   3.859  1.00  0.00    -0.288 OA
ATOM     19  H3  UNL     1       4.038  22.888   3.039  1.00  0.00     0.244 HD
ENDBRANCH  17  18
BRANCH  17  20
HETATM   20  C11 UNL     1       3.950  21.648   5.583  1.00  0.00     0.185 C 
BRANCH  20  21
HETATM   21  C12 UNL     1       3.298  20.723   4.572  1.00  0.00     0.293 C 
BRANCH  21  22
HETATM   22  N4  UNL     1       4.270  19.874   3.955  1.00  0.00     0.081 N 
HETATM   23  C13 UNL     1       4.058  18.471   4.306  1.00  0.00     0.309 C 
HETATM   24  C14 UNL     1       4.050  19.955   2.510  1.00  0.00     0.309 C 
ENDBRANCH  21  22
ENDBRANCH  20  21
ENDBRANCH  17  20
ENDBRANCH  15  16
TORSDOF 5
ENDMDL
MODEL 3
REMARK VINA RESULT: -6.943227560      0.692      1.114
REMARK  5 active torsions:
REMARK  status: ('A' for Active; 'I' for Inactive)
REMARK    1  A    between atoms: C9_15  and  C10_16 
REMARK    2  A    between atoms: N3_17  and  O3_18 
REMARK    3  A    between atoms: N3_17  and  C11_20 
REMARK    4  A    between atoms: C11_20  and  C12_21 
REMARK    5  A    between atoms: C12_21  and  N4_22 
ROOT
HETATM    1  C1  UNL     1       8.235  23.302   0.747  1.00  0.00     0.049 C 
HETATM    2  C2  UNL     1       7.744  23.531   2.126  1.00  0.00    -0.048 A 
HETATM    3  C3  UNL     1       6.696  22.793   2.651  1.00  0.00     0.039 A 
HETATM    4  C4  UNL     1       6.260  23.029   3.936  1.00  0.00     0.062 A 
HETATM    5  N1  UNL     1       5.243  22.324   4.465  1.00  0.00    -0.317 N 
ATOM      6  H1  UNL     1       4.787  21.602   3.909  1.00  0.00     0.169 HD
HETATM    7  C5  UNL     1       4.822  22.564   5.729  1.00  0.00     0.314 A 
HETATM    8  O1  UNL     1       3.871  21.903   6.220  1.00  0.00    -0.262 OA
HETATM    9  C6  UNL     1       5.414  23.535   6.521  1.00  0.00     0.314 A 
HETATM   10  O2  UNL     1       5.039  23.775   7.698  1.00  0.00    -0.262 OA
HETATM   11  N2  UNL     1       6.428  24.232   5.980  1.00  0.00    -0.317 N 
ATOM     12  H2  UNL     1       6.888  24.955   6.532  1.00  0.00     0.169 HD
HETATM   13  C7  UNL     1       6.850  23.992   4.717  1.00  0.00     0.063 A 
HETATM   14  C8  UNL     1       7.909  24.728   4.165  1.00  0.00     0.045 A 
HETATM   15  C9  UNL     1       8.374  24.521   2.883  1.00  0.00    -0.010 A 
ENDROOT
BRANCH  15  16
HETATM   16  C10 UNL     1       9.453  25.266   2.309  1.00  0.00     0.128 C 
HETATM   17  N3  UNL     1       9.561  26.477   2.002  1.00  0.00    -0.270 N 
BRANCH  17  18
HETATM   18  O3  UNL     1       8.595  27.416   2.162  1.00  0.00    -0.288 OA
ATOM     19  H3  UNL     1       8.345  27.813   2.988  1.00  0.00     0.244 HD
ENDBRANCH  17  18
BRANCH  17  20
HETATM   20  C11 UNL     1      10.824  26.962   1.413  1.00  0.00     0.185 C 
BRANCH  20  21
HETATM   21  C12 UNL     1      10.646  28.382   0.908  1.00  0.00     0.293 C 
BRANCH  21  22
HETATM   22  N4  UNL     1      11.910  29.034   0.760  1.00  0.00     0.081 N 
HETATM   23  C13 UNL     1      11.843  30.435   1.173  1.00  0.00     0.309 C 
HETATM   24  C14 UNL     1      12.834  28.392   1.696  1.00  0.00     0.309 C 
ENDBRANCH  21  22
ENDBRANCH  20  21
ENDBRANCH  17  20
ENDBRANCH  15  16
TORSDOF 5
ENDMDL
MODEL 4
REMARK VINA RESULT: -6.856734571      2.031      7.373
REMARK  5 active torsions:
REMARK  status: ('A' for Active; 'I' for Inactive)
REMARK    1  A    between atoms: C9_15  and  C10_16 
REMARK    2  A    between atoms: N3_17  and  O3_18 
REMARK    3  A    between atoms: N3_17  and  C11_20 
REMARK    4  A    between atoms: C11_20  and  C12_21 
REMARK    5  A    between atoms: C12_21  and  N4_22 
ROOT
HETATM    1  C1  UNL     1       6.284  22.649   2.081  1.00  0.00     0.049 C 
HETATM    2  C2  UNL     1       7.481  23.448   2.435  1.00  0.00    -0.048 A 
HETATM    3  C3  UNL     1       8.304  23.986   1.459  1.00  0.00     0.039 A 
HETATM    4  C4  UNL     1       9.410  24.725   1.817  1.00  0.00     0.062 A 
HETATM    5  N1  UNL     1      10.222  25.256   0.885  1.00  0.00    -0.317 N 
ATOM      6  H1  UNL     1      10.018  25.112  -0.103  1.00  0.00     0.169 HD
HETATM    7  C5  UNL     1      11.308  25.979   1.249  1.00  0.00     0.314 A 
HETATM    8  O1  UNL     1      12.065  26.474   0.374  1.00  0.00    -0.262 OA
HETATM    9  C6  UNL     1      11.621  26.200   2.580  1.00  0.00     0.314 A 
HETATM   10  O2  UNL     1      12.625  26.870   2.940  1.00  0.00    -0.262 OA
HETATM   11  N2  UNL     1      10.802  25.664   3.500  1.00  0.00    -0.317 N 
ATOM     12  H2  UNL     1      11.002  25.805   4.490  1.00  0.00     0.169 HD
HETATM   13  C7  UNL     1       9.717  24.941   3.139  1.00  0.00     0.063 A 
HETATM   14  C8  UNL     1       8.870  24.386   4.110  1.00  0.00     0.045 A 
HETATM   15  C9  UNL     1       7.755  23.642   3.790  1.00  0.00    -0.010 A 
ENDROOT
BRANCH  15  16
HETATM   16  C10 UNL     1       6.884  23.071   4.773  1.00  0.00     0.128 C 
HETATM   17  N3  UNL     1       6.007  23.583   5.509  1.00  0.00    -0.270 N 
BRANCH  17  18
HETATM   18  O3  UNL     1       5.671  24.898   5.532  1.00  0.00    -0.288 OA
ATOM     19  H3  UNL     1       5.699  25.458   6.298  1.00  0.00     0.244 HD
ENDBRANCH  17  18
BRANCH  17  20
HETATM   20  C11 UNL     1       5.257  22.722   6.443  1.00  0.00     0.185 C 
BRANCH  20  21
HETATM   21  C12 UNL     1       4.159  21.987   5.697  1.00  0.00     0.293 C 
BRANCH  21  22
HETATM   22  N4  UNL     1       4.676  20.831   5.033  1.00  0.00     0.081 N 
HETATM   23  C13 UNL     1       5.237  19.871   5.982  1.00  0.00     0.309 C 
HETATM   24  C14 UNL     1       3.538  20.151   4.413  1.00  0.00     0.309 C 
ENDBRANCH  21  22
ENDBRANCH  20  21
ENDBRANCH  17  20
ENDBRANCH  15  16
TORSDOF 5
ENDMDL
MODEL 5
REMARK VINA RESULT: -6.765327220      2.171      7.501
REMARK  5 active torsions:
REMARK  status: ('A' for Active; 'I' for Inactive)
REMARK    1  A    between atoms: C9_15  and  C10_16 
REMARK    2  A    between atoms: N3_17  and  O3_18 
REMARK    3  A    between atoms: N3_17  and  C11_20 
REMARK    4  A    between atoms: C11_20  and  C12_21 
REMARK    5  A    between atoms: C12_21  and  N4_22 
ROOT
HETATM    1  C1  UNL     1       9.617  22.580   3.932  1.00  0.00     0.049 C 
HETATM    2  C2  UNL     1       9.669  23.905   3.271  1.00  0.00    -0.048 A 
HETATM    3  C3  UNL     1      10.758  24.287   2.503  1.00  0.00     0.039 A 
HETATM    4  C4  UNL     1      10.779  25.525   1.901  1.00  0.00     0.062 A 
HETATM    5  N1  UNL     1      11.826  25.915   1.152  1.00  0.00    -0.317 N 
ATOM      6  H1  UNL     1      12.618  25.286   1.024  1.00  0.00     0.169 HD
HETATM    7  C5  UNL     1      11.837  27.135   0.565  1.00  0.00     0.314 A 
HETATM    8  O1  UNL     1      12.818  27.496  -0.135  1.00  0.00    -0.262 OA
HETATM    9  C6  UNL     1      10.782  28.021   0.710  1.00  0.00     0.314 A 
HETATM   10  O2  UNL     1      10.772  29.160   0.174  1.00  0.00    -0.262 OA
HETATM   11  N2  UNL     1       9.743  27.619   1.461  1.00  0.00    -0.317 N 
ATOM     12  H2  UNL     1       8.949  28.245   1.592  1.00  0.00     0.169 HD
HETATM   13  C7  UNL     1       9.730  26.400   2.048  1.00  0.00     0.063 A 
HETATM   14  C8  UNL     1       8.639  25.994   2.831  1.00  0.00     0.045 A 
HETATM   15  C9  UNL     1       8.582  24.763   3.449  1.00  0.00    -0.010 A 
ENDROOT
BRANCH  15  16
HETATM   16  C10 UNL     1       7.474  24.337   4.250  1.00  0.00     0.128 C 
HETATM   17  N3  UNL     1       7.138  24.617   5.426  1.00  0.00    -0.270 N 
BRANCH  17  18
HETATM   18  O3  UNL     1       7.811  25.452   6.256  1.00  0.00    -0.288 OA
ATOM     19  H3  UNL     1       8.373  26.166   5.981  1.00  0.00     0.244 HD
ENDBRANCH  17  18
BRANCH  17  20
HETATM   20  C11 UNL     1       5.919  24.008   5.991  1.00  0.00     0.185 C 
BRANCH  20  21
HETATM   21  C12 UNL     1       5.704  22.632   5.388  1.00  0.00     0.293 C 
BRANCH  21  22
HETATM   22  N4  UNL     1       4.478  22.580   4.655  1.00  0.00     0.081 N 
HETATM   23  C13 UNL     1       4.673  22.014   3.321  1.00  0.00     0.309 C 
HETATM   24  C14 UNL     1       3.600  21.641   5.355  1.00  0.00     0.309 C 
ENDBRANCH  21  22
ENDBRANCH  20  21
ENDBRANCH  17  20
ENDBRANCH  15  16
TORSDOF 5
ENDMDL
