MODEL 1
REMARK VINA RESULT: -6.112939696      0.000      0.000
REMARK  6 active torsions:
REMARK  status: ('A' for Active; 'I' for Inactive)
REMARK    1  A    between atoms: C2_2  and  C3_3 
REMARK    2  A    between atoms: C6_10  and  C7_11 
REMARK    3  A    between atoms: C7_11  and  N3_12 
REMARK    4  A    between atoms: N3_12  and  C8_14 
REMARK    5  A    between atoms: C8_14  and  N4_16 
REMARK    6  A    between atoms: N4_16  and  S2_18 
ROOT
HETATM    1  C7  UNL     1       8.245  23.716   4.185  1.00  0.00     0.181 C 
ENDROOT
BRANCH   1   2
HETATM    2  C6  UNL     1       6.940  23.507   4.883  1.00  0.00     0.051 A 
HETATM    3  C3  UNL     1       6.389  24.368   5.822  1.00  0.00     0.034 A 
HETATM    4  N1  UNL     1       5.208  23.849   6.201  1.00  0.00    -0.348 N 
HETATM    5  C4  UNL     1       4.987  22.699   5.545  1.00  0.00     0.077 A 
ATOM      6  H1  UNL     1       4.576  24.266   6.884  1.00  0.00     0.167 HD
HETATM    7  C5  UNL     1       3.813  21.773   5.638  1.00  0.00     0.089 C 
HETATM    8  N2  UNL     1       6.046  22.512   4.753  1.00  0.00    -0.347 N 
ATOM      9  H2  UNL     1       6.161  21.714   4.128  1.00  0.00     0.167 HD
BRANCH   3  10
HETATM   10  C2  UNL     1       7.065  25.616   6.268  1.00  0.00     0.055 C 
HETATM   11  C1  UNL     1       7.437  25.583   7.713  1.00  0.00     0.011 C 
ENDBRANCH   3  10
ENDBRANCH   1   2
BRANCH   1  12
HETATM   12  N3  UNL     1       8.011  24.669   3.091  1.00  0.00    -0.361 N 
ATOM     13  H3  UNL     1       7.686  25.616   3.289  1.00  0.00     0.162 HD
BRANCH  12  14
HETATM   14  C8  UNL     1       8.240  24.259   1.770  1.00  0.00     0.183 C 
HETATM   15  S1  UNL     1       7.897  22.730   1.274  1.00  0.00    -0.040 SA
BRANCH  14  16
HETATM   16  N4  UNL     1       8.798  25.148   0.825  1.00  0.00    -0.257 N 
HETATM   17  C9  UNL     1       8.770  24.811  -0.607  1.00  0.00     0.172 C 
BRANCH  16  18
HETATM   18  S2  UNL     1       9.496  26.624   1.362  1.00  0.00     0.230 S 
HETATM   19  C10 UNL     1      10.121  27.605   0.041  1.00  0.00     0.186 C 
HETATM   20  O1  UNL     1       8.462  27.428   2.104  1.00  0.00    -0.206 OA
HETATM   21  O2  UNL     1      10.627  26.366   2.333  1.00  0.00    -0.206 OA
ENDBRANCH  16  18
ENDBRANCH  14  16
ENDBRANCH  12  14
ENDBRANCH   1  12
TORSDOF 6
ENDMDL
MODEL 2
REMARK VINA RESULT: -6.029950525      1.152      1.336
REMARK  6 active torsions:
REMARK  status: ('A' for Active; 'I' for Inactive)
REMARK    1  A    between atoms: C2_2  and  C3_3 
REMARK    2  A    between atoms: C6_10  and  C7_11 
REMARK    3  A    between atoms: C7_11  and  N3_12 
REMARK    4  A    between atoms: N3_12  and  C8_14 
REMARK    5  A    between atoms: C8_14  and  N4_16 
REMARK    6  A    between atoms: N4_16  and  S2_18 
ROOT
HETATM    1  C7  UNL     1       8.367  23.688   4.384  1.00  0.00     0.181 C 
ENDROOT
BRANCH   1   2
HETATM    2  C6  UNL     1       7.020  23.501   5.006  1.00  0.00     0.051 A 
HETATM    3  C3  UNL     1       6.410  24.396   5.875  1.00  0.00     0.034 A 
HETATM    4  N1  UNL     1       5.208  23.887   6.198  1.00  0.00    -0.348 N 
HETATM    5  C4  UNL     1       5.030  22.712   5.573  1.00  0.00     0.077 A 
ATOM      6  H1  UNL     1       4.534  24.327   6.823  1.00  0.00     0.167 HD
HETATM    7  C5  UNL     1       3.854  21.786   5.628  1.00  0.00     0.089 C 
HETATM    8  N2  UNL     1       6.137  22.499   4.858  1.00  0.00    -0.347 N 
ATOM      9  H2  UNL     1       6.294  21.678   4.273  1.00  0.00     0.167 HD
BRANCH   3  10
HETATM   10  C2  UNL     1       7.055  25.663   6.314  1.00  0.00     0.055 C 
HETATM   11  C1  UNL     1       7.478  25.625   7.745  1.00  0.00     0.011 C 
ENDBRANCH   3  10
ENDBRANCH   1   2
BRANCH   1  12
HETATM   12  N3  UNL     1       8.165  24.357   3.091  1.00  0.00    -0.361 N 
ATOM     13  H3  UNL     1       7.357  24.961   2.941  1.00  0.00     0.162 HD
BRANCH  12  14
HETATM   14  C8  UNL     1       9.101  24.153   2.067  1.00  0.00     0.183 C 
HETATM   15  S1  UNL     1       9.167  22.738   1.233  1.00  0.00    -0.040 SA
BRANCH  14  16
HETATM   16  N4  UNL     1      10.035  25.158   1.733  1.00  0.00    -0.257 N 
HETATM   17  C9  UNL     1      11.477  24.887   1.844  1.00  0.00     0.172 C 
BRANCH  16  18
HETATM   18  S2  UNL     1       9.472  26.689   1.189  1.00  0.00     0.230 S 
HETATM   19  C10 UNL     1      10.745  27.902   1.127  1.00  0.00     0.186 C 
HETATM   20  O1  UNL     1       8.883  26.546  -0.188  1.00  0.00    -0.206 OA
HETATM   21  O2  UNL     1       8.369  27.208   2.084  1.00  0.00    -0.206 OA
ENDBRANCH  16  18
ENDBRANCH  14  16
ENDBRANCH  12  14
ENDBRANCH   1  12
TORSDOF 6
ENDMDL
MODEL 3
REMARK VINA RESULT: -6.020141848      1.187      2.551
REMARK  6 active torsions:
REMARK  status: ('A' for Active; 'I' for Inactive)
REMARK    1  A    between atoms: C2_2  and  C3_3 
REMARK    2  A    between atoms: C6_10  and  C7_11 
REMARK    3  A    between atoms: C7_11  and  N3_12 
REMARK    4  A    between atoms: N3_12  and  C8_14 
REMARK    5  A    between atoms: C8_14  and  N4_16 
REMARK    6  A    between atoms: N4_16  and  S2_18 
ROOT
HETATM    1  C7  UNL     1       7.229  23.220   2.762  1.00  0.00     0.181 C 
ENDROOT
BRANCH   1   2
HETATM    2  C6  UNL     1       7.068  23.925   4.070  1.00  0.00     0.051 A 
HETATM    3  C3  UNL     1       6.121  23.610   5.036  1.00  0.00     0.034 A 
HETATM    4  N1  UNL     1       6.306  24.450   6.070  1.00  0.00    -0.348 N 
HETATM    5  C4  UNL     1       7.326  25.281   5.802  1.00  0.00     0.077 A 
ATOM      6  H1  UNL     1       5.754  24.455   6.927  1.00  0.00     0.167 HD
HETATM    7  C5  UNL     1       7.893  26.378   6.650  1.00  0.00     0.089 C 
HETATM    8  N2  UNL     1       7.772  24.945   4.589  1.00  0.00    -0.347 N 
ATOM      9  H2  UNL     1       8.549  25.406   4.115  1.00  0.00     0.167 HD
BRANCH   3  10
HETATM   10  C2  UNL     1       5.120  22.523   4.862  1.00  0.00     0.055 C 
HETATM   11  C1  UNL     1       5.233  21.467   5.911  1.00  0.00     0.011 C 
ENDBRANCH   3  10
ENDBRANCH   1   2
BRANCH   1  12
HETATM   12  N3  UNL     1       8.487  23.689   2.162  1.00  0.00    -0.361 N 
ATOM     13  H3  UNL     1       9.345  23.716   2.713  1.00  0.00     0.162 HD
BRANCH  12  14
HETATM   14  C8  UNL     1       8.489  24.099   0.822  1.00  0.00     0.183 C 
HETATM   15  S1  UNL     1       8.108  23.061  -0.395  1.00  0.00    -0.040 SA
BRANCH  14  16
HETATM   16  N4  UNL     1       8.842  25.422   0.472  1.00  0.00    -0.257 N 
HETATM   17  C9  UNL     1       8.803  25.844  -0.936  1.00  0.00     0.172 C 
BRANCH  16  18
HETATM   18  S2  UNL     1       9.307  26.526   1.704  1.00  0.00     0.230 S 
HETATM   19  C10 UNL     1      10.194  27.912   1.081  1.00  0.00     0.186 C 
HETATM   20  O1  UNL     1       8.080  27.028   2.417  1.00  0.00    -0.206 OA
HETATM   21  O2  UNL     1      10.167  25.845   2.745  1.00  0.00    -0.206 OA
ENDBRANCH  16  18
ENDBRANCH  14  16
ENDBRANCH  12  14
ENDBRANCH   1  12
TORSDOF 6
ENDMDL
MODEL 4
REMARK VINA RESULT: -5.991302821      1.513      2.797
REMARK  6 active torsions:
REMARK  status: ('A' for Active; 'I' for Inactive)
REMARK    1  A    between atoms: C2_2  and  C3_3 
REMARK    2  A    between atoms: C6_10  and  C7_11 
REMARK    3  A    between atoms: C7_11  and  N3_12 
REMARK    4  A    between atoms: N3_12  and  C8_14 
REMARK    5  A    between atoms: C8_14  and  N4_16 
REMARK    6  A    between atoms: N4_16  and  S2_18 
ROOT
HETATM    1  C7  UNL     1       7.309  23.259   3.135  1.00  0.00     0.181 C 
ENDROOT
BRANCH   1   2
HETATM    2  C6  UNL     1       6.885  23.780   4.471  1.00  0.00     0.051 A 
HETATM    3  C3  UNL     1       5.681  23.489   5.097  1.00  0.00     0.034 A 
HETATM    4  N1  UNL     1       5.679  24.125   6.282  1.00  0.00    -0.348 N 
HETATM    5  C4  UNL     1       6.827  24.804   6.434  1.00  0.00     0.077 A 
ATOM      6  H1  UNL     1       4.921  24.095   6.963  1.00  0.00     0.167 HD
HETATM    7  C5  UNL     1       7.272  25.655   7.584  1.00  0.00     0.089 C 
HETATM    8  N2  UNL     1       7.541  24.582   5.327  1.00  0.00    -0.347 N 
ATOM      9  H2  UNL     1       8.468  24.971   5.154  1.00  0.00     0.167 HD
BRANCH   3  10
HETATM   10  C2  UNL     1       4.640  22.621   4.483  1.00  0.00     0.055 C 
HETATM   11  C1  UNL     1       3.925  21.783   5.490  1.00  0.00     0.011 C 
ENDBRANCH   3  10
ENDBRANCH   1   2
BRANCH   1  12
HETATM   12  N3  UNL     1       8.010  24.348   2.441  1.00  0.00    -0.361 N 
ATOM     13  H3  UNL     1       7.500  25.172   2.124  1.00  0.00     0.162 HD
BRANCH  12  14
HETATM   14  C8  UNL     1       9.390  24.237   2.220  1.00  0.00     0.183 C 
HETATM   15  S1  UNL     1      10.167  22.794   2.350  1.00  0.00    -0.040 SA
BRANCH  14  16
HETATM   16  N4  UNL     1      10.163  25.375   1.898  1.00  0.00    -0.257 N 
HETATM   17  C9  UNL     1      11.617  25.362   2.124  1.00  0.00     0.172 C 
BRANCH  16  18
HETATM   18  S2  UNL     1       9.392  26.760   1.236  1.00  0.00     0.230 S 
HETATM   19  C10 UNL     1      10.521  28.059   0.867  1.00  0.00     0.186 C 
HETATM   20  O1  UNL     1       8.676  26.379  -0.031  1.00  0.00    -0.206 OA
HETATM   21  O2  UNL     1       8.344  27.301   2.183  1.00  0.00    -0.206 OA
ENDBRANCH  16  18
ENDBRANCH  14  16
ENDBRANCH  12  14
ENDBRANCH   1  12
TORSDOF 6
ENDMDL
MODEL 5
REMARK VINA RESULT: -5.984007612      2.413      3.629
REMARK  6 active torsions:
REMARK  status: ('A' for Active; 'I' for Inactive)
REMARK    1  A    between atoms: C2_2  and  C3_3 
REMARK    2  A    between atoms: C6_10  and  C7_11 
REMARK    3  A    between atoms: C7_11  and  N3_12 
REMARK    4  A    between atoms: N3_12  and  C8_14 
REMARK    5  A    between atoms: C8_14  and  N4_16 
REMARK    6  A    between atoms: N4_16  and  S2_18 
ROOT
HETATM    1  C7  UNL     1       5.450  22.103   2.699  1.00  0.00     0.181 C 
ENDROOT
BRANCH   1   2
HETATM    2  C6  UNL     1       5.101  22.361   4.129  1.00  0.00     0.051 A 
HETATM    3  C3  UNL     1       4.159  21.652   4.863  1.00  0.00     0.034 A 
HETATM    4  N1  UNL     1       4.147  22.166   6.106  1.00  0.00    -0.348 N 
HETATM    5  C4  UNL     1       5.037  23.167   6.192  1.00  0.00     0.077 A 
ATOM      6  H1  UNL     1       3.551  21.844   6.868  1.00  0.00     0.167 HD
HETATM    7  C5  UNL     1       5.372  24.030   7.369  1.00  0.00     0.089 C 
HETATM    8  N2  UNL     1       5.602  23.268   4.986  1.00  0.00    -0.347 N 
ATOM      9  H2  UNL     1       6.324  23.947   4.745  1.00  0.00     0.167 HD
BRANCH   3  10
HETATM   10  C2  UNL     1       3.355  20.542   4.286  1.00  0.00     0.055 C 
HETATM   11  C1  UNL     1       4.066  19.230   4.338  1.00  0.00     0.011 C 
ENDBRANCH   3  10
ENDBRANCH   1   2
BRANCH   1  12
HETATM   12  N3  UNL     1       6.270  23.231   2.236  1.00  0.00    -0.361 N 
ATOM     13  H3  UNL     1       5.985  24.191   2.428  1.00  0.00     0.162 HD
BRANCH  12  14
HETATM   14  C8  UNL     1       7.451  22.968   1.528  1.00  0.00     0.183 C 
HETATM   15  S1  UNL     1       7.420  22.316   0.019  1.00  0.00    -0.040 SA
BRANCH  14  16
HETATM   16  N4  UNL     1       8.713  23.236   2.103  1.00  0.00    -0.257 N 
HETATM   17  C9  UNL     1       9.933  22.700   1.480  1.00  0.00     0.172 C 
BRANCH  16  18
HETATM   18  S2  UNL     1       8.806  24.199   3.524  1.00  0.00     0.230 S 
HETATM   19  C10 UNL     1      10.367  24.990   3.712  1.00  0.00     0.186 C 
HETATM   20  O1  UNL     1       7.738  25.258   3.483  1.00  0.00    -0.206 OA
HETATM   21  O2  UNL     1       8.548  23.366   4.760  1.00  0.00    -0.206 OA
ENDBRANCH  16  18
ENDBRANCH  14  16
ENDBRANCH  12  14
ENDBRANCH   1  12
TORSDOF 6
ENDMDL
