MODEL 1
REMARK VINA RESULT: -6.054982377      0.000      0.000
REMARK  4 active torsions:
REMARK  status: ('A' for Active; 'I' for Inactive)
REMARK    1  A    between atoms: N1_2  and  C2_5 
REMARK    2  A    between atoms: C2_5  and  C3_6 
REMARK    3  A    between atoms: C3_6  and  C4_7 
REMARK    4  A    between atoms: C4_7  and  N2_8 
ROOT
HETATM    1  N2  UNL     1       9.419  23.375   3.483  1.00  0.00    -0.351 N 
HETATM    2  C5  UNL     1       9.678  22.521   2.353  1.00  0.00     0.127 C 
HETATM    3  C6  UNL     1      10.461  23.312   1.357  1.00  0.00     0.048 C 
HETATM    4  C7  UNL     1      10.501  24.723   1.916  1.00  0.00     0.113 C 
HETATM    5  C8  UNL     1      11.957  25.186   1.769  1.00  0.00     0.130 C 
HETATM    6  C9  UNL     1      12.204  25.265   0.311  1.00  0.00     0.220 C 
HETATM    7  O1  UNL     1      13.351  25.047  -0.143  1.00  0.00    -0.274 OA
HETATM    8  N3  UNL     1      11.173  25.586  -0.608  1.00  0.00    -0.345 N 
ATOM      9  H3  UNL     1      11.252  25.340  -1.595  1.00  0.00     0.163 HD
HETATM   10  C10 UNL     1      10.003  26.275  -0.099  1.00  0.00     0.087 C 
HETATM   11  C11 UNL     1       8.909  26.202  -1.140  1.00  0.00     0.046 C 
HETATM   12  C12 UNL     1      10.355  27.738   0.078  1.00  0.00     0.046 C 
HETATM   13  C13 UNL     1       9.616  25.639   1.179  1.00  0.00     0.172 C 
HETATM   14  O2  UNL     1       8.513  25.884   1.639  1.00  0.00    -0.294 OA
HETATM   15  C14 UNL     1      10.148  24.573   3.330  1.00  0.00     0.236 C 
HETATM   16  O3  UNL     1      10.469  25.408   4.226  1.00  0.00    -0.272 OA
ENDROOT
BRANCH   1  17
HETATM   17  C4  UNL     1       8.558  23.052   4.584  1.00  0.00     0.127 C 
BRANCH  17  18
HETATM   18  C3  UNL     1       7.133  23.471   4.283  1.00  0.00     0.047 C 
BRANCH  18  19
HETATM   19  C2  UNL     1       6.611  24.309   5.432  1.00  0.00     0.233 C 
BRANCH  19  20
HETATM   20  N1  UNL     1       7.700  25.059   6.029  1.00  0.00    -0.079 N 
HETATM   21  C1  UNL     1       7.549  26.472   5.872  1.00  0.00     0.266 C 
ATOM     22  H12 UNL     1       8.602  24.745   5.669  1.00  0.00     0.276 HD
ATOM     23  H11 UNL     1       7.820  24.811   7.012  1.00  0.00     0.276 HD
ENDBRANCH  19  20
ENDBRANCH  18  19
ENDBRANCH  17  18
ENDBRANCH   1  17
TORSDOF 4
ENDMDL
MODEL 2
REMARK VINA RESULT: -5.982866182      2.332      5.630
REMARK  4 active torsions:
REMARK  status: ('A' for Active; 'I' for Inactive)
REMARK    1  A    between atoms: N1_2  and  C2_5 
REMARK    2  A    between atoms: C2_5  and  C3_6 
REMARK    3  A    between atoms: C3_6  and  C4_7 
REMARK    4  A    between atoms: C4_7  and  N2_8 
ROOT
HETATM    1  N2  UNL     1      10.817  27.242   1.214  1.00  0.00    -0.351 N 
HETATM    2  C5  UNL     1       9.377  27.231   1.204  1.00  0.00     0.127 C 
HETATM    3  C6  UNL     1       8.927  26.059   2.012  1.00  0.00     0.048 C 
HETATM    4  C7  UNL     1      10.199  25.304   2.356  1.00  0.00     0.113 C 
HETATM    5  C8  UNL     1      10.088  24.965   3.849  1.00  0.00     0.130 C 
HETATM    6  C9  UNL     1       8.952  24.021   3.959  1.00  0.00     0.220 C 
HETATM    7  O1  UNL     1       8.253  24.001   4.998  1.00  0.00    -0.274 OA
HETATM    8  N3  UNL     1       8.620  23.121   2.915  1.00  0.00    -0.345 N 
ATOM      9  H3  UNL     1       7.689  22.710   2.850  1.00  0.00     0.163 HD
HETATM   10  C10 UNL     1       9.647  22.805   1.942  1.00  0.00     0.087 C 
HETATM   11  C11 UNL     1       8.997  22.133   0.754  1.00  0.00     0.046 C 
HETATM   12  C12 UNL     1      10.594  21.798   2.563  1.00  0.00     0.046 C 
HETATM   13  C13 UNL     1      10.336  24.063   1.577  1.00  0.00     0.172 C 
HETATM   14  O2  UNL     1      11.048  24.069   0.587  1.00  0.00    -0.294 OA
HETATM   15  C14 UNL     1      11.277  26.267   2.124  1.00  0.00     0.236 C 
HETATM   16  O3  UNL     1      12.415  26.194   2.675  1.00  0.00    -0.272 OA
ENDROOT
BRANCH   1  17
HETATM   17  C4  UNL     1      11.644  28.108   0.423  1.00  0.00     0.127 C 
BRANCH  17  18
HETATM   18  C3  UNL     1      11.946  29.387   1.177  1.00  0.00     0.047 C 
BRANCH  18  19
HETATM   19  C2  UNL     1      13.445  29.591   1.224  1.00  0.00     0.233 C 
BRANCH  19  20
HETATM   20  N1  UNL     1      14.046  28.629   2.130  1.00  0.00    -0.079 N 
HETATM   21  C1  UNL     1      15.279  28.100   1.637  1.00  0.00     0.266 C 
ATOM     22  H12 UNL     1      13.390  27.880   2.355  1.00  0.00     0.276 HD
ATOM     23  H11 UNL     1      14.165  29.028   3.061  1.00  0.00     0.276 HD
ENDBRANCH  19  20
ENDBRANCH  18  19
ENDBRANCH  17  18
ENDBRANCH   1  17
TORSDOF 4
ENDMDL
MODEL 3
REMARK VINA RESULT: -5.977271410      2.521      3.225
REMARK  4 active torsions:
REMARK  status: ('A' for Active; 'I' for Inactive)
REMARK    1  A    between atoms: N1_2  and  C2_5 
REMARK    2  A    between atoms: C2_5  and  C3_6 
REMARK    3  A    between atoms: C3_6  and  C4_7 
REMARK    4  A    between atoms: C4_7  and  N2_8 
ROOT
HETATM    1  N2  UNL     1       6.663  23.372   4.030  1.00  0.00    -0.351 N 
HETATM    2  C5  UNL     1       6.621  22.826   2.699  1.00  0.00     0.127 C 
HETATM    3  C6  UNL     1       7.944  23.090   2.058  1.00  0.00     0.048 C 
HETATM    4  C7  UNL     1       8.696  23.962   3.049  1.00  0.00     0.113 C 
HETATM    5  C8  UNL     1      10.107  23.366   3.137  1.00  0.00     0.130 C 
HETATM    6  C9  UNL     1      10.710  23.570   1.800  1.00  0.00     0.220 C 
HETATM    7  O1  UNL     1      11.550  22.752   1.360  1.00  0.00    -0.274 OA
HETATM    8  N3  UNL     1      10.366  24.677   0.983  1.00  0.00    -0.345 N 
ATOM      9  H3  UNL     1      10.525  24.658  -0.025  1.00  0.00     0.163 HD
HETATM   10  C10 UNL     1       9.783  25.837   1.627  1.00  0.00     0.087 C 
HETATM   11  C11 UNL     1       9.182  26.729   0.564  1.00  0.00     0.046 C 
HETATM   12  C12 UNL     1      10.897  26.621   2.291  1.00  0.00     0.046 C 
HETATM   13  C13 UNL     1       8.779  25.363   2.605  1.00  0.00     0.172 C 
HETATM   14  O2  UNL     1       7.987  26.170   3.062  1.00  0.00    -0.294 OA
HETATM   15  C14 UNL     1       7.981  23.786   4.315  1.00  0.00     0.236 C 
HETATM   16  O3  UNL     1       8.506  23.985   5.451  1.00  0.00    -0.272 OA
ENDROOT
BRANCH   1  17
HETATM   17  C4  UNL     1       5.541  23.474   4.919  1.00  0.00     0.127 C 
BRANCH  17  18
HETATM   18  C3  UNL     1       5.416  22.220   5.760  1.00  0.00     0.047 C 
BRANCH  18  19
HETATM   19  C2  UNL     1       3.958  22.001   6.108  1.00  0.00     0.233 C 
BRANCH  19  20
HETATM   20  N1  UNL     1       3.267  21.402   4.980  1.00  0.00    -0.079 N 
HETATM   21  C1  UNL     1       3.975  20.290   4.426  1.00  0.00     0.266 C 
ATOM     22  H12 UNL     1       3.063  22.100   4.264  1.00  0.00     0.276 HD
ATOM     23  H11 UNL     1       2.314  21.141   5.233  1.00  0.00     0.276 HD
ENDBRANCH  19  20
ENDBRANCH  18  19
ENDBRANCH  17  18
ENDBRANCH   1  17
TORSDOF 4
ENDMDL
MODEL 4
REMARK VINA RESULT: -5.953136213      2.273      3.128
REMARK  4 active torsions:
REMARK  status: ('A' for Active; 'I' for Inactive)
REMARK    1  A    between atoms: N1_2  and  C2_5 
REMARK    2  A    between atoms: C2_5  and  C3_6 
REMARK    3  A    between atoms: C3_6  and  C4_7 
REMARK    4  A    between atoms: C4_7  and  N2_8 
ROOT
HETATM    1  N2  UNL     1       7.828  24.104   4.842  1.00  0.00    -0.351 N 
HETATM    2  C5  UNL     1       8.787  23.032   4.904  1.00  0.00     0.127 C 
HETATM    3  C6  UNL     1       9.646  23.121   3.686  1.00  0.00     0.048 C 
HETATM    4  C7  UNL     1       9.020  24.216   2.840  1.00  0.00     0.113 C 
HETATM    5  C8  UNL     1      10.187  25.095   2.370  1.00  0.00     0.130 C 
HETATM    6  C9  UNL     1      10.998  24.236   1.478  1.00  0.00     0.220 C 
HETATM    7  O1  UNL     1      12.236  24.410   1.397  1.00  0.00    -0.274 OA
HETATM    8  N3  UNL     1      10.417  23.206   0.696  1.00  0.00    -0.345 N 
ATOM      9  H3  UNL     1      10.981  22.434   0.339  1.00  0.00     0.163 HD
HETATM   10  C10 UNL     1       8.996  23.286   0.421  1.00  0.00     0.087 C 
HETATM   11  C11 UNL     1       8.530  21.948  -0.106  1.00  0.00     0.046 C 
HETATM   12  C12 UNL     1       8.784  24.300  -0.685  1.00  0.00     0.046 C 
HETATM   13  C13 UNL     1       8.308  23.676   1.671  1.00  0.00     0.172 C 
HETATM   14  O2  UNL     1       7.097  23.543   1.733  1.00  0.00    -0.294 OA
HETATM   15  C14 UNL     1       8.158  24.954   3.766  1.00  0.00     0.236 C 
HETATM   16  O3  UNL     1       7.799  26.155   3.585  1.00  0.00    -0.272 OA
ENDROOT
BRANCH   1  17
HETATM   17  C4  UNL     1       6.718  24.274   5.735  1.00  0.00     0.127 C 
BRANCH  17  18
HETATM   18  C3  UNL     1       5.506  23.520   5.224  1.00  0.00     0.047 C 
BRANCH  18  19
HETATM   19  C2  UNL     1       5.055  22.534   6.281  1.00  0.00     0.233 C 
BRANCH  19  20
HETATM   20  N1  UNL     1       3.704  22.088   5.994  1.00  0.00    -0.079 N 
HETATM   21  C1  UNL     1       3.629  21.269   4.824  1.00  0.00     0.266 C 
ATOM     22  H12 UNL     1       3.063  22.879   5.929  1.00  0.00     0.276 HD
ATOM     23  H11 UNL     1       3.297  21.612   6.800  1.00  0.00     0.276 HD
ENDBRANCH  19  20
ENDBRANCH  18  19
ENDBRANCH  17  18
ENDBRANCH   1  17
TORSDOF 4
ENDMDL
MODEL 5
REMARK VINA RESULT: -5.882882241      1.969      2.450
REMARK  4 active torsions:
REMARK  status: ('A' for Active; 'I' for Inactive)
REMARK    1  A    between atoms: N1_2  and  C2_5 
REMARK    2  A    between atoms: C2_5  and  C3_6 
REMARK    3  A    between atoms: C3_6  and  C4_7 
REMARK    4  A    between atoms: C4_7  and  N2_8 
ROOT
HETATM    1  N2  UNL     1       7.537  24.102   4.158  1.00  0.00    -0.351 N 
HETATM    2  C5  UNL     1       7.539  23.142   3.085  1.00  0.00     0.127 C 
HETATM    3  C6  UNL     1       8.708  23.445   2.207  1.00  0.00     0.048 C 
HETATM    4  C7  UNL     1       9.288  24.738   2.754  1.00  0.00     0.113 C 
HETATM    5  C8  UNL     1      10.806  24.517   2.815  1.00  0.00     0.130 C 
HETATM    6  C9  UNL     1      11.245  24.379   1.408  1.00  0.00     0.220 C 
HETATM    7  O1  UNL     1      12.229  23.656   1.127  1.00  0.00    -0.274 OA
HETATM    8  N3  UNL     1      10.583  25.046   0.346  1.00  0.00    -0.345 N 
ATOM      9  H3  UNL     1      10.671  24.721  -0.617  1.00  0.00     0.163 HD
HETATM   10  C10 UNL     1       9.777  26.206   0.674  1.00  0.00     0.087 C 
HETATM   11  C11 UNL     1       8.903  26.538  -0.514  1.00  0.00     0.046 C 
HETATM   12  C12 UNL     1      10.706  27.383   0.888  1.00  0.00     0.046 C 
HETATM   13  C13 UNL     1       8.992  25.891   1.888  1.00  0.00     0.172 C 
HETATM   14  O2  UNL     1       8.059  26.619   2.181  1.00  0.00    -0.294 OA
HETATM   15  C14 UNL     1       8.729  24.855   4.102  1.00  0.00     0.236 C 
HETATM   16  O3  UNL     1       9.265  25.532   5.029  1.00  0.00    -0.272 OA
ENDROOT
BRANCH   1  17
HETATM   17  C4  UNL     1       6.489  24.261   5.125  1.00  0.00     0.127 C 
BRANCH  17  18
HETATM   18  C3  UNL     1       5.453  23.166   4.969  1.00  0.00     0.047 C 
BRANCH  18  19
HETATM   19  C2  UNL     1       5.008  22.706   6.341  1.00  0.00     0.233 C 
BRANCH  19  20
HETATM   20  N1  UNL     1       3.732  22.020   6.241  1.00  0.00    -0.079 N 
HETATM   21  C1  UNL     1       3.540  21.394   4.970  1.00  0.00     0.266 C 
ATOM     22  H12 UNL     1       2.960  22.650   6.459  1.00  0.00     0.276 HD
ATOM     23  H11 UNL     1       3.617  21.349   7.000  1.00  0.00     0.276 HD
ENDBRANCH  19  20
ENDBRANCH  18  19
ENDBRANCH  17  18
ENDBRANCH   1  17
TORSDOF 4
ENDMDL
