MODEL 1
REMARK VINA RESULT: -6.892596030      0.000      0.000
REMARK  5 active torsions:
REMARK  status: ('A' for Active; 'I' for Inactive)
REMARK    1  A    between atoms: C5_7  and  N2_8 
REMARK    2  A    between atoms: N2_8  and  C6_10 
REMARK    3  A    between atoms: C6_10  and  C7_11 
REMARK    4  A    between atoms: C7_11  and  C8_12 
REMARK    5  A    between atoms: C8_12  and  N3_13 
ROOT
HETATM    1  C1  UNL     1       4.368  21.216   3.894  1.00  0.00     0.050 C 
HETATM    2  C2  UNL     1       5.249  22.299   4.369  1.00  0.00    -0.038 A 
HETATM    3  C3  UNL     1       6.134  22.849   3.465  1.00  0.00     0.041 A 
HETATM    4  C4  UNL     1       6.953  23.869   3.943  1.00  0.00     0.082 A 
HETATM    5  N1  UNL     1       7.857  24.481   3.149  1.00  0.00    -0.189 N 
ATOM      6  H1  UNL     1       7.933  24.180   2.177  1.00  0.00     0.184 HD
HETATM    7  C5  UNL     1       8.664  25.469   3.578  1.00  0.00     0.681 A 
HETATM    8  N4  UNL     1       8.608  25.907   4.850  1.00  0.00    -0.154 N 
ATOM      9  H4  UNL     1       9.216  26.656   5.180  1.00  0.00     0.187 HD
HETATM   10  C12 UNL     1       7.712  25.314   5.673  1.00  0.00     0.288 A 
HETATM   11  O1  UNL     1       7.665  25.734   6.879  1.00  0.00    -0.265 OA
HETATM   12  C13 UNL     1       6.877  24.300   5.252  1.00  0.00     0.129 A 
HETATM   13  N5  UNL     1       5.983  23.721   6.105  1.00  0.00    -0.353 N 
ATOM     14  H5  UNL     1       5.927  24.041   7.072  1.00  0.00     0.166 HD
HETATM   15  C14 UNL     1       5.171  22.727   5.677  1.00  0.00     0.012 A 
HETATM   16  C15 UNL     1       4.184  22.067   6.561  1.00  0.00     0.068 C 
ENDROOT
BRANCH   7  17
HETATM   17  N2  UNL     1       9.518  26.034   2.793  1.00  0.00    -0.226 N 
ATOM     18  H2  UNL     1      10.508  26.040   3.038  1.00  0.00     0.177 HD
BRANCH  17  19
HETATM   19  C6  UNL     1       9.074  26.661   1.563  1.00  0.00     0.139 C 
BRANCH  19  20
HETATM   20  C7  UNL     1      10.111  27.722   1.172  1.00  0.00     0.048 C 
BRANCH  20  21
HETATM   21  C8  UNL     1      11.371  26.962   0.814  1.00  0.00     0.237 C 
BRANCH  21  22
HETATM   22  N3  UNL     1      12.564  27.696   1.193  1.00  0.00    -0.079 N 
HETATM   23  C9  UNL     1      13.611  27.413   0.229  1.00  0.00     0.271 C 
HETATM   24  C10 UNL     1      13.046  27.184   2.482  1.00  0.00     0.271 C 
HETATM   25  C11 UNL     1      12.253  29.097   1.275  1.00  0.00     0.271 C 
ENDBRANCH  21  22
ENDBRANCH  20  21
ENDBRANCH  19  20
ENDBRANCH  17  19
ENDBRANCH   7  17
TORSDOF 5
ENDMDL
MODEL 2
REMARK VINA RESULT: -6.854507790      0.822      1.245
REMARK  5 active torsions:
REMARK  status: ('A' for Active; 'I' for Inactive)
REMARK    1  A    between atoms: C5_7  and  N2_8 
REMARK    2  A    between atoms: N2_8  and  C6_10 
REMARK    3  A    between atoms: C6_10  and  C7_11 
REMARK    4  A    between atoms: C7_11  and  C8_12 
REMARK    5  A    between atoms: C8_12  and  N3_13 
ROOT
HETATM    1  C1  UNL     1       4.359  21.225   3.743  1.00  0.00     0.050 C 
HETATM    2  C2  UNL     1       5.245  22.291   4.246  1.00  0.00    -0.038 A 
HETATM    3  C3  UNL     1       6.177  22.815   3.374  1.00  0.00     0.041 A 
HETATM    4  C4  UNL     1       7.000  23.819   3.878  1.00  0.00     0.082 A 
HETATM    5  N1  UNL     1       7.948  24.406   3.116  1.00  0.00    -0.189 N 
ATOM      6  H1  UNL     1       8.054  24.097   2.149  1.00  0.00     0.184 HD
HETATM    7  C5  UNL     1       8.760  25.378   3.571  1.00  0.00     0.681 A 
HETATM    8  N4  UNL     1       8.665  25.825   4.837  1.00  0.00    -0.154 N 
ATOM      9  H4  UNL     1       9.277  26.562   5.187  1.00  0.00     0.187 HD
HETATM   10  C12 UNL     1       7.724  25.258   5.628  1.00  0.00     0.288 A 
HETATM   11  O1  UNL     1       7.641  25.687   6.829  1.00  0.00    -0.265 OA
HETATM   12  C13 UNL     1       6.884  24.260   5.180  1.00  0.00     0.129 A 
HETATM   13  N5  UNL     1       5.944  23.707   6.002  1.00  0.00    -0.353 N 
ATOM     14  H5  UNL     1       5.858  24.034   6.964  1.00  0.00     0.166 HD
HETATM   15  C14 UNL     1       5.126  22.729   5.548  1.00  0.00     0.012 A 
HETATM   16  C15 UNL     1       4.092  22.097   6.397  1.00  0.00     0.068 C 
ENDROOT
BRANCH   7  17
HETATM   17  N2  UNL     1       9.656  25.919   2.816  1.00  0.00    -0.226 N 
ATOM     18  H2  UNL     1       9.506  26.855   2.440  1.00  0.00     0.177 HD
BRANCH  17  19
HETATM   19  C6  UNL     1      10.874  25.199   2.502  1.00  0.00     0.139 C 
BRANCH  19  20
HETATM   20  C7  UNL     1      11.964  26.231   2.181  1.00  0.00     0.048 C 
BRANCH  20  21
HETATM   21  C8  UNL     1      11.268  27.360   1.451  1.00  0.00     0.237 C 
BRANCH  21  22
HETATM   22  N3  UNL     1      12.214  28.350   0.970  1.00  0.00    -0.079 N 
HETATM   23  C9  UNL     1      13.344  28.395   1.879  1.00  0.00     0.271 C 
HETATM   24  C10 UNL     1      11.586  29.675   1.030  1.00  0.00     0.271 C 
HETATM   25  C11 UNL     1      12.601  28.020  -0.375  1.00  0.00     0.271 C 
ENDBRANCH  21  22
ENDBRANCH  20  21
ENDBRANCH  19  20
ENDBRANCH  17  19
ENDBRANCH   7  17
TORSDOF 5
ENDMDL
MODEL 3
REMARK VINA RESULT: -6.831719702      1.895      2.831
REMARK  5 active torsions:
REMARK  status: ('A' for Active; 'I' for Inactive)
REMARK    1  A    between atoms: C5_7  and  N2_8 
REMARK    2  A    between atoms: N2_8  and  C6_10 
REMARK    3  A    between atoms: C6_10  and  C7_11 
REMARK    4  A    between atoms: C7_11  and  C8_12 
REMARK    5  A    between atoms: C8_12  and  N3_13 
ROOT
HETATM    1  C1  UNL     1       5.552  24.497   7.395  1.00  0.00     0.050 C 
HETATM    2  C2  UNL     1       6.214  24.304   6.091  1.00  0.00    -0.038 A 
HETATM    3  C3  UNL     1       7.195  25.204   5.730  1.00  0.00     0.041 A 
HETATM    4  C4  UNL     1       7.801  24.996   4.494  1.00  0.00     0.082 A 
HETATM    5  N1  UNL     1       8.773  25.813   4.036  1.00  0.00    -0.189 N 
ATOM      6  H1  UNL     1       9.062  26.599   4.619  1.00  0.00     0.184 HD
HETATM    7  C5  UNL     1       9.380  25.641   2.847  1.00  0.00     0.681 A 
HETATM    8  N4  UNL     1       9.040  24.622   2.036  1.00  0.00    -0.154 N 
ATOM      9  H4  UNL     1       9.496  24.486   1.134  1.00  0.00     0.187 HD
HETATM   10  C12 UNL     1       8.068  23.783   2.465  1.00  0.00     0.288 A 
HETATM   11  O1  UNL     1       7.750  22.818   1.690  1.00  0.00    -0.265 OA
HETATM   12  C13 UNL     1       7.434  23.943   3.680  1.00  0.00     0.129 A 
HETATM   13  N5  UNL     1       6.458  23.081   4.086  1.00  0.00    -0.353 N 
ATOM     14  H5  UNL     1       6.187  22.303   3.485  1.00  0.00     0.166 HD
HETATM   15  C14 UNL     1       5.845  23.251   5.281  1.00  0.00     0.012 A 
HETATM   16  C15 UNL     1       4.781  22.345   5.768  1.00  0.00     0.068 C 
ENDROOT
BRANCH   7  17
HETATM   17  N2  UNL     1      10.306  26.440   2.439  1.00  0.00    -0.226 N 
ATOM     18  H2  UNL     1      10.087  27.419   2.251  1.00  0.00     0.177 HD
BRANCH  17  19
HETATM   19  C6  UNL     1      11.657  25.952   2.246  1.00  0.00     0.139 C 
BRANCH  19  20
HETATM   20  C7  UNL     1      12.586  27.168   2.123  1.00  0.00     0.048 C 
BRANCH  20  21
HETATM   21  C8  UNL     1      11.796  28.225   1.384  1.00  0.00     0.237 C 
BRANCH  21  22
HETATM   22  N3  UNL     1      12.641  29.325   0.956  1.00  0.00    -0.079 N 
HETATM   23  C9  UNL     1      11.896  30.563   1.086  1.00  0.00     0.271 C 
HETATM   24  C10 UNL     1      12.933  29.170  -0.474  1.00  0.00     0.271 C 
HETATM   25  C11 UNL     1      13.849  29.324   1.735  1.00  0.00     0.271 C 
ENDBRANCH  21  22
ENDBRANCH  20  21
ENDBRANCH  19  20
ENDBRANCH  17  19
ENDBRANCH   7  17
TORSDOF 5
ENDMDL
MODEL 4
REMARK VINA RESULT: -6.808834458      1.914      2.785
REMARK  5 active torsions:
REMARK  status: ('A' for Active; 'I' for Inactive)
REMARK    1  A    between atoms: C5_7  and  N2_8 
REMARK    2  A    between atoms: N2_8  and  C6_10 
REMARK    3  A    between atoms: C6_10  and  C7_11 
REMARK    4  A    between atoms: C7_11  and  C8_12 
REMARK    5  A    between atoms: C8_12  and  N3_13 
ROOT
HETATM    1  C1  UNL     1       5.583  24.446   7.424  1.00  0.00     0.050 C 
HETATM    2  C2  UNL     1       6.233  24.259   6.113  1.00  0.00    -0.038 A 
HETATM    3  C3  UNL     1       7.184  25.183   5.731  1.00  0.00     0.041 A 
HETATM    4  C4  UNL     1       7.780  24.979   4.488  1.00  0.00     0.082 A 
HETATM    5  N1  UNL     1       8.723  25.819   4.011  1.00  0.00    -0.189 N 
ATOM      6  H1  UNL     1       8.996  26.618   4.583  1.00  0.00     0.184 HD
HETATM    7  C5  UNL     1       9.319  25.652   2.815  1.00  0.00     0.681 A 
HETATM    8  N4  UNL     1       8.997  24.616   2.019  1.00  0.00    -0.154 N 
ATOM      9  H4  UNL     1       9.446  24.484   1.112  1.00  0.00     0.187 HD
HETATM   10  C12 UNL     1       8.055  23.755   2.468  1.00  0.00     0.288 A 
HETATM   11  O1  UNL     1       7.753  22.774   1.706  1.00  0.00    -0.265 OA
HETATM   12  C13 UNL     1       7.432  23.909   3.690  1.00  0.00     0.129 A 
HETATM   13  N5  UNL     1       6.486  23.023   4.117  1.00  0.00    -0.353 N 
ATOM     14  H5  UNL     1       6.230  22.232   3.526  1.00  0.00     0.166 HD
HETATM   15  C14 UNL     1       5.884  23.188   5.317  1.00  0.00     0.012 A 
HETATM   16  C15 UNL     1       4.852  22.258   5.827  1.00  0.00     0.068 C 
ENDROOT
BRANCH   7  17
HETATM   17  N2  UNL     1      10.217  26.473   2.387  1.00  0.00    -0.226 N 
ATOM     18  H2  UNL     1      10.026  27.475   2.376  1.00  0.00     0.177 HD
BRANCH  17  19
HETATM   19  C6  UNL     1      11.497  25.976   1.924  1.00  0.00     0.139 C 
BRANCH  19  20
HETATM   20  C7  UNL     1      12.591  26.900   2.476  1.00  0.00     0.048 C 
BRANCH  20  21
HETATM   21  C8  UNL     1      13.833  26.610   1.660  1.00  0.00     0.237 C 
BRANCH  21  22
HETATM   22  N3  UNL     1      14.401  27.823   1.100  1.00  0.00    -0.079 N 
HETATM   23  C9  UNL     1      15.810  27.877   1.437  1.00  0.00     0.271 C 
HETATM   24  C10 UNL     1      13.779  28.982   1.752  1.00  0.00     0.271 C 
HETATM   25  C11 UNL     1      14.171  27.842  -0.319  1.00  0.00     0.271 C 
ENDBRANCH  21  22
ENDBRANCH  20  21
ENDBRANCH  19  20
ENDBRANCH  17  19
ENDBRANCH   7  17
TORSDOF 5
ENDMDL
MODEL 5
REMARK VINA RESULT: -6.782773506      1.927      2.724
REMARK  5 active torsions:
REMARK  status: ('A' for Active; 'I' for Inactive)
REMARK    1  A    between atoms: C5_7  and  N2_8 
REMARK    2  A    between atoms: N2_8  and  C6_10 
REMARK    3  A    between atoms: C6_10  and  C7_11 
REMARK    4  A    between atoms: C7_11  and  C8_12 
REMARK    5  A    between atoms: C8_12  and  N3_13 
ROOT
HETATM    1  C1  UNL     1       5.493  24.479   7.364  1.00  0.00     0.050 C 
HETATM    2  C2  UNL     1       6.243  24.272   6.111  1.00  0.00    -0.038 A 
HETATM    3  C3  UNL     1       7.317  25.102   5.861  1.00  0.00     0.041 A 
HETATM    4  C4  UNL     1       8.004  24.883   4.670  1.00  0.00     0.082 A 
HETATM    5  N1  UNL     1       9.070  25.634   4.321  1.00  0.00    -0.189 N 
ATOM      6  H1  UNL     1       9.370  26.376   4.954  1.00  0.00     0.184 HD
HETATM    7  C5  UNL     1       9.757  25.450   3.178  1.00  0.00     0.681 A 
HETATM    8  N4  UNL     1       9.407  24.486   2.307  1.00  0.00    -0.154 N 
ATOM      9  H4  UNL     1       9.925  24.341   1.439  1.00  0.00     0.187 HD
HETATM   10  C12 UNL     1       8.342  23.715   2.627  1.00  0.00     0.288 A 
HETATM   11  O1  UNL     1       8.015  22.802   1.793  1.00  0.00    -0.265 OA
HETATM   12  C13 UNL     1       7.625  23.888   3.792  1.00  0.00     0.129 A 
HETATM   13  N5  UNL     1       6.555  23.095   4.088  1.00  0.00    -0.353 N 
ATOM     14  H5  UNL     1       6.276  22.359   3.439  1.00  0.00     0.166 HD
HETATM   15  C14 UNL     1       5.862  23.277   5.236  1.00  0.00     0.012 A 
HETATM   16  C15 UNL     1       4.695  22.445   5.603  1.00  0.00     0.068 C 
ENDROOT
BRANCH   7  17
HETATM   17  N2  UNL     1      10.773  26.185   2.874  1.00  0.00    -0.226 N 
ATOM     18  H2  UNL     1      11.063  26.936   3.501  1.00  0.00     0.177 HD
BRANCH  17  19
HETATM   19  C6  UNL     1      11.503  25.946   1.645  1.00  0.00     0.139 C 
BRANCH  19  20
HETATM   20  C7  UNL     1      12.969  26.336   1.882  1.00  0.00     0.048 C 
BRANCH  20  21
HETATM   21  C8  UNL     1      12.973  27.833   2.101  1.00  0.00     0.237 C 
BRANCH  21  22
HETATM   22  N3  UNL     1      14.062  28.476   1.387  1.00  0.00    -0.079 N 
HETATM   23  C9  UNL     1      13.875  28.264  -0.035  1.00  0.00     0.271 C 
HETATM   24  C10 UNL     1      15.320  27.806   1.739  1.00  0.00     0.271 C 
HETATM   25  C11 UNL     1      14.101  29.869   1.738  1.00  0.00     0.271 C 
ENDBRANCH  21  22
ENDBRANCH  20  21
ENDBRANCH  19  20
ENDBRANCH  17  19
ENDBRANCH   7  17
TORSDOF 5
ENDMDL
