MODEL 1
REMARK VINA RESULT: -7.640340348      0.000      0.000
REMARK  13 active torsions:
REMARK  status: ('A' for Active; 'I' for Inactive)
REMARK    1  A    between atoms: C2_2  and  N1_3 
REMARK    2  A    between atoms: N1_3  and  C3_4 
REMARK    3  A    between atoms: C3_4  and  C4_5 
REMARK    4  A    between atoms: C4_5  and  C5_6 
REMARK    5  A    between atoms: C5_6  and  C6_7 
REMARK    6  A    between atoms: C7_8  and  C8_9 
REMARK    7  A    between atoms: C10_14  and  C11_15 
REMARK    8  A    between atoms: C11_15  and  C12_16 
REMARK    9  A    between atoms: C12_16  and  C13_17 
REMARK   10  A    between atoms: C13_17  and  C14_18 
REMARK   11  A    between atoms: C14_18  and  N3_19 
REMARK   12  A    between atoms: C16_27  and  C17_28 
REMARK   13  A    between atoms: C20_33  and  O3_34 
ROOT
HETATM    1  C8  UNL     1      21.954  37.526  15.965  1.00  0.00     0.200 C 
HETATM    2  N2  UNL     1      21.727  37.291  17.357  1.00  0.00    -0.343 N 
ATOM      3  H2  UNL     1      22.479  36.748  17.781  1.00  0.00     0.163 HD
HETATM    4  C9  UNL     1      20.750  37.614  18.264  1.00  0.00     0.241 C 
HETATM    5  O1  UNL     1      21.059  37.790  19.476  1.00  0.00    -0.271 OA
HETATM    6  C10 UNL     1      19.249  37.811  18.079  1.00  0.00     0.176 C 
HETATM    7  N4  UNL     1      18.965  38.741  17.041  1.00  0.00    -0.346 N 
ATOM      8  H4  UNL     1      18.855  38.309  16.124  1.00  0.00     0.163 HD
HETATM    9  C15 UNL     1      18.808  40.130  17.029  1.00  0.00     0.241 C 
HETATM   10  O2  UNL     1      17.679  40.564  16.562  1.00  0.00    -0.271 OA
HETATM   11  C16 UNL     1      19.726  41.220  17.459  1.00  0.00     0.179 C 
HETATM   12  N5  UNL     1      20.228  41.105  18.784  1.00  0.00    -0.359 N 
ATOM     13  H5  UNL     1      19.734  40.380  19.303  1.00  0.00     0.162 HD
HETATM   14  C20 UNL     1      21.197  41.700  19.561  1.00  0.00     0.135 C 
HETATM   15  C21 UNL     1      22.610  41.974  19.551  1.00  0.00     0.162 C 
HETATM   16  C22 UNL     1      22.888  43.129  20.522  1.00  0.00     0.035 C 
HETATM   17  C23 UNL     1      23.040  44.252  19.543  1.00  0.00     0.022 C 
HETATM   18  C24 UNL     1      23.941  43.599  18.575  1.00  0.00     0.127 C 
HETATM   19  N6  UNL     1      23.359  42.244  18.382  1.00  0.00    -0.335 N 
HETATM   20  C25 UNL     1      23.596  41.491  17.233  1.00  0.00     0.266 C 
HETATM   21  O4  UNL     1      23.277  42.106  16.137  1.00  0.00    -0.266 OA
HETATM   22  C26 UNL     1      24.135  40.140  16.983  1.00  0.00     0.076 C 
HETATM   23  C27 UNL     1      24.307  39.256  18.141  1.00  0.00     0.074 C 
HETATM   24  N7  UNL     1      23.568  39.571  15.787  1.00  0.00    -0.324 N 
ATOM     25  H7  UNL     1      24.138  39.726  14.955  1.00  0.00     0.169 HD
HETATM   26  C28 UNL     1      22.395  38.850  15.529  1.00  0.00     0.248 C 
HETATM   27  O5  UNL     1      21.553  39.467  14.760  1.00  0.00    -0.271 OA
ENDROOT
BRANCH   1  28
HETATM   28  C7  UNL     1      22.746  36.433  15.282  1.00  0.00     0.003 C 
HETATM   29  C6  UNL     1      22.676  35.154  15.514  1.00  0.00    -0.028 C 
BRANCH  29  30
HETATM   30  C5  UNL     1      23.517  34.185  14.765  1.00  0.00     0.028 C 
BRANCH  30  31
HETATM   31  C4  UNL     1      22.807  32.871  14.487  1.00  0.00     0.032 C 
BRANCH  31  32
HETATM   32  C3  UNL     1      22.215  32.417  15.793  1.00  0.00     0.237 C 
BRANCH  32  33
HETATM   33  N1  UNL     1      20.821  32.088  15.737  1.00  0.00    -0.067 N 
HETATM   34  C29 UNL     1      20.420  32.248  14.341  1.00  0.00     0.237 C 
HETATM   35  C30 UNL     1      19.052  32.871  14.353  1.00  0.00     0.029 C 
HETATM   36  C31 UNL     1      18.678  33.086  15.783  1.00  0.00     0.029 C 
HETATM   37  C32 UNL     1      20.014  32.958  16.503  1.00  0.00     0.237 C 
BRANCH  33  38
HETATM   38  C2  UNL     1      20.709  30.691  16.134  1.00  0.00     0.233 C 
HETATM   39  C1  UNL     1      20.915  29.714  15.031  1.00  0.00     0.035 C 
ENDBRANCH  33  38
ENDBRANCH  32  33
ENDBRANCH  31  32
ENDBRANCH  30  31
ENDBRANCH  29  30
ENDBRANCH   1  28
BRANCH   6  40
HETATM   40  C11 UNL     1      18.668  36.433  17.889  1.00  0.00     0.035 C 
BRANCH  40  41
HETATM   41  C12 UNL     1      17.382  36.274  17.248  1.00  0.00     0.004 C 
BRANCH  41  42
HETATM   42  C13 UNL     1      16.300  35.605  18.021  1.00  0.00     0.027 C 
BRANCH  42  43
HETATM   43  C14 UNL     1      15.352  34.909  17.002  1.00  0.00     0.229 C 
BRANCH  43  44
HETATM   44  N3  UNL     1      15.248  33.500  17.300  1.00  0.00    -0.079 N 
ATOM     45  H33 UNL     1      15.846  33.230  18.080  1.00  0.00     0.274 HD
ATOM     46  H32 UNL     1      14.346  33.263  17.714  1.00  0.00     0.274 HD
ATOM     47  H31 UNL     1      15.440  32.948  16.464  1.00  0.00     0.274 HD
ENDBRANCH  43  44
ENDBRANCH  42  43
ENDBRANCH  41  42
ENDBRANCH  40  41
ENDBRANCH   6  40
BRANCH  11  48
HETATM   48  C17 UNL     1      18.987  42.568  17.243  1.00  0.00     0.009 C 
HETATM   49  C18 UNL     1      18.161  42.944  18.424  1.00  0.00     0.012 C 
HETATM   50  C19 UNL     1      19.832  43.624  16.657  1.00  0.00     0.012 C 
ENDBRANCH  11  48
BRANCH  14  51
HETATM   51  O3  UNL     1      20.670  42.169  20.672  1.00  0.00    -0.348 OA
ATOM     52  H3  UNL     1      21.245  42.815  21.065  1.00  0.00     0.219 HD
ENDBRANCH  14  51
TORSDOF 13
ENDMDL
MODEL 2
REMARK VINA RESULT: -7.547567729      0.427      1.292
REMARK  13 active torsions:
REMARK  status: ('A' for Active; 'I' for Inactive)
REMARK    1  A    between atoms: C2_2  and  N1_3 
REMARK    2  A    between atoms: N1_3  and  C3_4 
REMARK    3  A    between atoms: C3_4  and  C4_5 
REMARK    4  A    between atoms: C4_5  and  C5_6 
REMARK    5  A    between atoms: C5_6  and  C6_7 
REMARK    6  A    between atoms: C7_8  and  C8_9 
REMARK    7  A    between atoms: C10_14  and  C11_15 
REMARK    8  A    between atoms: C11_15  and  C12_16 
REMARK    9  A    between atoms: C12_16  and  C13_17 
REMARK   10  A    between atoms: C13_17  and  C14_18 
REMARK   11  A    between atoms: C14_18  and  N3_19 
REMARK   12  A    between atoms: C16_27  and  C17_28 
REMARK   13  A    between atoms: C20_33  and  O3_34 
ROOT
HETATM    1  C8  UNL     1      21.980  37.600  15.967  1.00  0.00     0.200 C 
HETATM    2  N2  UNL     1      21.729  37.360  17.354  1.00  0.00    -0.343 N 
ATOM      3  H2  UNL     1      22.477  36.822  17.791  1.00  0.00     0.163 HD
HETATM    4  C9  UNL     1      20.732  37.674  18.243  1.00  0.00     0.241 C 
HETATM    5  O1  UNL     1      21.017  37.849  19.460  1.00  0.00    -0.271 OA
HETATM    6  C10 UNL     1      19.234  37.860  18.031  1.00  0.00     0.176 C 
HETATM    7  N4  UNL     1      18.963  38.790  16.989  1.00  0.00    -0.346 N 
ATOM      8  H4  UNL     1      18.873  38.359  16.070  1.00  0.00     0.163 HD
HETATM    9  C15 UNL     1      18.796  40.178  16.977  1.00  0.00     0.241 C 
HETATM   10  O2  UNL     1      17.671  40.605  16.490  1.00  0.00    -0.271 OA
HETATM   11  C16 UNL     1      19.697  41.274  17.427  1.00  0.00     0.179 C 
HETATM   12  N5  UNL     1      20.175  41.159  18.760  1.00  0.00    -0.359 N 
ATOM     13  H5  UNL     1      19.676  40.429  19.268  1.00  0.00     0.162 HD
HETATM   14  C20 UNL     1      21.124  41.760  19.557  1.00  0.00     0.135 C 
HETATM   15  C21 UNL     1      22.535  42.045  19.574  1.00  0.00     0.162 C 
HETATM   16  C22 UNL     1      22.786  43.200  20.552  1.00  0.00     0.035 C 
HETATM   17  C23 UNL     1      22.949  44.326  19.578  1.00  0.00     0.022 C 
HETATM   18  C24 UNL     1      23.872  43.681  18.627  1.00  0.00     0.127 C 
HETATM   19  N6  UNL     1      23.303  42.323  18.419  1.00  0.00    -0.335 N 
HETATM   20  C25 UNL     1      23.568  41.574  17.274  1.00  0.00     0.266 C 
HETATM   21  O4  UNL     1      23.265  42.189  16.174  1.00  0.00    -0.266 OA
HETATM   22  C26 UNL     1      24.122  40.228  17.031  1.00  0.00     0.076 C 
HETATM   23  C27 UNL     1      24.279  39.343  18.190  1.00  0.00     0.074 C 
HETATM   24  N7  UNL     1      23.581  39.658  15.823  1.00  0.00    -0.324 N 
ATOM     25  H7  UNL     1      24.166  39.818  15.003  1.00  0.00     0.169 HD
HETATM   26  C28 UNL     1      22.419  38.928  15.542  1.00  0.00     0.248 C 
HETATM   27  O5  UNL     1      21.587  39.541  14.759  1.00  0.00    -0.271 OA
ENDROOT
BRANCH   1  28
HETATM   28  C7  UNL     1      22.793  36.514  15.297  1.00  0.00     0.003 C 
HETATM   29  C6  UNL     1      22.708  35.232  15.504  1.00  0.00    -0.028 C 
BRANCH  29  30
HETATM   30  C5  UNL     1      23.573  34.271  14.772  1.00  0.00     0.028 C 
BRANCH  30  31
HETATM   31  C4  UNL     1      22.888  32.943  14.498  1.00  0.00     0.032 C 
BRANCH  31  32
HETATM   32  C3  UNL     1      21.414  33.229  14.411  1.00  0.00     0.237 C 
BRANCH  32  33
HETATM   33  N1  UNL     1      20.569  32.148  14.829  1.00  0.00    -0.067 N 
HETATM   34  C29 UNL     1      20.523  32.206  16.288  1.00  0.00     0.237 C 
HETATM   35  C30 UNL     1      20.567  30.786  16.778  1.00  0.00     0.029 C 
HETATM   36  C31 UNL     1      20.660  29.907  15.575  1.00  0.00     0.029 C 
HETATM   37  C32 UNL     1      21.079  30.879  14.479  1.00  0.00     0.237 C 
BRANCH  33  38
HETATM   38  C2  UNL     1      19.249  32.418  14.274  1.00  0.00     0.233 C 
HETATM   39  C1  UNL     1      18.545  33.578  14.882  1.00  0.00     0.035 C 
ENDBRANCH  33  38
ENDBRANCH  32  33
ENDBRANCH  31  32
ENDBRANCH  30  31
ENDBRANCH  29  30
ENDBRANCH   1  28
BRANCH   6  40
HETATM   40  C11 UNL     1      18.667  36.478  17.826  1.00  0.00     0.035 C 
BRANCH  40  41
HETATM   41  C12 UNL     1      17.348  36.316  17.257  1.00  0.00     0.004 C 
BRANCH  41  42
HETATM   42  C13 UNL     1      16.343  35.548  18.044  1.00  0.00     0.027 C 
BRANCH  42  43
HETATM   43  C14 UNL     1      15.341  34.913  17.037  1.00  0.00     0.229 C 
BRANCH  43  44
HETATM   44  N3  UNL     1      15.250  33.489  17.256  1.00  0.00    -0.079 N 
ATOM     45  H33 UNL     1      16.170  33.054  17.323  1.00  0.00     0.274 HD
ATOM     46  H32 UNL     1      14.910  33.267  18.192  1.00  0.00     0.274 HD
ATOM     47  H31 UNL     1      14.676  33.057  16.531  1.00  0.00     0.274 HD
ENDBRANCH  43  44
ENDBRANCH  42  43
ENDBRANCH  41  42
ENDBRANCH  40  41
ENDBRANCH   6  40
BRANCH  11  48
HETATM   48  C17 UNL     1      18.952  42.617  17.200  1.00  0.00     0.009 C 
HETATM   49  C18 UNL     1      18.106  42.987  18.368  1.00  0.00     0.012 C 
HETATM   50  C19 UNL     1      19.798  43.679  16.626  1.00  0.00     0.012 C 
ENDBRANCH  11  48
BRANCH  14  51
HETATM   51  O3  UNL     1      20.573  42.222  20.659  1.00  0.00    -0.348 OA
ATOM     52  H3  UNL     1      20.350  43.140  20.558  1.00  0.00     0.219 HD
ENDBRANCH  14  51
TORSDOF 13
ENDMDL
MODEL 3
REMARK VINA RESULT: -7.492112150      0.598      1.156
REMARK  13 active torsions:
REMARK  status: ('A' for Active; 'I' for Inactive)
REMARK    1  A    between atoms: C2_2  and  N1_3 
REMARK    2  A    between atoms: N1_3  and  C3_4 
REMARK    3  A    between atoms: C3_4  and  C4_5 
REMARK    4  A    between atoms: C4_5  and  C5_6 
REMARK    5  A    between atoms: C5_6  and  C6_7 
REMARK    6  A    between atoms: C7_8  and  C8_9 
REMARK    7  A    between atoms: C10_14  and  C11_15 
REMARK    8  A    between atoms: C11_15  and  C12_16 
REMARK    9  A    between atoms: C12_16  and  C13_17 
REMARK   10  A    between atoms: C13_17  and  C14_18 
REMARK   11  A    between atoms: C14_18  and  N3_19 
REMARK   12  A    between atoms: C16_27  and  C17_28 
REMARK   13  A    between atoms: C20_33  and  O3_34 
ROOT
HETATM    1  C8  UNL     1      21.998  37.305  16.011  1.00  0.00     0.200 C 
HETATM    2  N2  UNL     1      21.735  37.043  17.391  1.00  0.00    -0.343 N 
ATOM      3  H2  UNL     1      22.488  36.514  17.831  1.00  0.00     0.163 HD
HETATM    4  C9  UNL     1      20.722  37.326  18.271  1.00  0.00     0.241 C 
HETATM    5  O1  UNL     1      20.989  37.492  19.495  1.00  0.00    -0.271 OA
HETATM    6  C10 UNL     1      19.222  37.485  18.043  1.00  0.00     0.176 C 
HETATM    7  N4  UNL     1      18.946  38.423  17.010  1.00  0.00    -0.346 N 
ATOM      8  H4  UNL     1      18.876  38.002  16.084  1.00  0.00     0.163 HD
HETATM    9  C15 UNL     1      18.751  39.808  17.012  1.00  0.00     0.241 C 
HETATM   10  O2  UNL     1      17.625  40.218  16.517  1.00  0.00    -0.271 OA
HETATM   11  C16 UNL     1      19.625  40.915  17.487  1.00  0.00     0.179 C 
HETATM   12  N5  UNL     1      20.089  40.794  18.825  1.00  0.00    -0.359 N 
ATOM     13  H5  UNL     1      19.599  40.047  19.318  1.00  0.00     0.162 HD
HETATM   14  C20 UNL     1      21.016  41.403  19.640  1.00  0.00     0.135 C 
HETATM   15  C21 UNL     1      22.421  41.715  19.679  1.00  0.00     0.162 C 
HETATM   16  C22 UNL     1      22.637  42.862  20.675  1.00  0.00     0.035 C 
HETATM   17  C23 UNL     1      22.789  44.004  19.716  1.00  0.00     0.022 C 
HETATM   18  C24 UNL     1      23.737  43.389  18.769  1.00  0.00     0.127 C 
HETATM   19  N6  UNL     1      23.198  42.023  18.537  1.00  0.00    -0.335 N 
HETATM   20  C25 UNL     1      23.491  41.293  17.386  1.00  0.00     0.266 C 
HETATM   21  O4  UNL     1      23.190  41.916  16.290  1.00  0.00    -0.266 OA
HETATM   22  C26 UNL     1      24.074  39.962  17.133  1.00  0.00     0.076 C 
HETATM   23  C27 UNL     1      24.235  39.066  18.284  1.00  0.00     0.074 C 
HETATM   24  N7  UNL     1      23.560  39.396  15.912  1.00  0.00    -0.324 N 
ATOM     25  H7  UNL     1      24.152  39.579  15.101  1.00  0.00     0.169 HD
HETATM   26  C28 UNL     1      22.416  38.647  15.607  1.00  0.00     0.248 C 
HETATM   27  O5  UNL     1      21.582  39.254  14.822  1.00  0.00    -0.271 OA
ENDROOT
BRANCH   1  28
HETATM   28  C7  UNL     1      22.841  36.245  15.337  1.00  0.00     0.003 C 
HETATM   29  C6  UNL     1      22.716  34.955  15.455  1.00  0.00    -0.028 C 
BRANCH  29  30
HETATM   30  C5  UNL     1      23.617  34.021  14.732  1.00  0.00     0.028 C 
BRANCH  30  31
HETATM   31  C4  UNL     1      22.904  32.782  14.219  1.00  0.00     0.032 C 
BRANCH  31  32
HETATM   32  C3  UNL     1      22.248  32.139  15.411  1.00  0.00     0.237 C 
BRANCH  32  33
HETATM   33  N1  UNL     1      20.985  31.518  15.136  1.00  0.00    -0.067 N 
HETATM   34  C29 UNL     1      21.286  30.155  14.706  1.00  0.00     0.237 C 
HETATM   35  C30 UNL     1      20.338  29.837  13.583  1.00  0.00     0.029 C 
HETATM   36  C31 UNL     1      19.497  31.050  13.360  1.00  0.00     0.029 C 
HETATM   37  C32 UNL     1      20.278  32.140  14.084  1.00  0.00     0.237 C 
BRANCH  33  38
HETATM   38  C2  UNL     1      20.253  31.497  16.395  1.00  0.00     0.233 C 
HETATM   39  C1  UNL     1      19.551  32.765  16.727  1.00  0.00     0.035 C 
ENDBRANCH  33  38
ENDBRANCH  32  33
ENDBRANCH  31  32
ENDBRANCH  30  31
ENDBRANCH  29  30
ENDBRANCH   1  28
BRANCH   6  40
HETATM   40  C11 UNL     1      18.686  36.095  17.815  1.00  0.00     0.035 C 
BRANCH  40  41
HETATM   41  C12 UNL     1      17.271  35.895  17.593  1.00  0.00     0.004 C 
BRANCH  41  42
HETATM   42  C13 UNL     1      16.836  35.473  16.233  1.00  0.00     0.027 C 
BRANCH  42  43
HETATM   43  C14 UNL     1      16.107  34.105  16.375  1.00  0.00     0.229 C 
BRANCH  43  44
HETATM   44  N3  UNL     1      15.342  34.073  17.599  1.00  0.00    -0.079 N 
ATOM     45  H33 UNL     1      14.879  33.175  17.736  1.00  0.00     0.274 HD
ATOM     46  H32 UNL     1      15.942  34.060  18.424  1.00  0.00     0.274 HD
ATOM     47  H31 UNL     1      14.681  34.850  17.621  1.00  0.00     0.274 HD
ENDBRANCH  43  44
ENDBRANCH  42  43
ENDBRANCH  41  42
ENDBRANCH  40  41
ENDBRANCH   6  40
BRANCH  11  48
HETATM   48  C17 UNL     1      18.856  42.246  17.268  1.00  0.00     0.009 C 
HETATM   49  C18 UNL     1      17.973  42.574  18.421  1.00  0.00     0.012 C 
HETATM   50  C19 UNL     1      19.693  43.337  16.736  1.00  0.00     0.012 C 
ENDBRANCH  11  48
BRANCH  14  51
HETATM   51  O3  UNL     1      20.442  41.840  20.742  1.00  0.00    -0.348 OA
ATOM     52  H3  UNL     1      20.627  42.763  20.867  1.00  0.00     0.219 HD
ENDBRANCH  14  51
TORSDOF 13
ENDMDL
MODEL 4
REMARK VINA RESULT: -7.490990877      1.838      5.268
REMARK  13 active torsions:
REMARK  status: ('A' for Active; 'I' for Inactive)
REMARK    1  A    between atoms: C2_2  and  N1_3 
REMARK    2  A    between atoms: N1_3  and  C3_4 
REMARK    3  A    between atoms: C3_4  and  C4_5 
REMARK    4  A    between atoms: C4_5  and  C5_6 
REMARK    5  A    between atoms: C5_6  and  C6_7 
REMARK    6  A    between atoms: C7_8  and  C8_9 
REMARK    7  A    between atoms: C10_14  and  C11_15 
REMARK    8  A    between atoms: C11_15  and  C12_16 
REMARK    9  A    between atoms: C12_16  and  C13_17 
REMARK   10  A    between atoms: C13_17  and  C14_18 
REMARK   11  A    between atoms: C14_18  and  N3_19 
REMARK   12  A    between atoms: C16_27  and  C17_28 
REMARK   13  A    between atoms: C20_33  and  O3_34 
ROOT
HETATM    1  C8  UNL     1      20.374  37.896  18.008  1.00  0.00     0.200 C 
HETATM    2  N2  UNL     1      20.801  37.873  16.644  1.00  0.00    -0.343 N 
ATOM      3  H2  UNL     1      20.017  37.782  15.999  1.00  0.00     0.163 HD
HETATM    4  C9  UNL     1      22.004  37.944  15.987  1.00  0.00     0.241 C 
HETATM    5  O1  UNL     1      22.056  38.470  14.840  1.00  0.00    -0.271 OA
HETATM    6  C10 UNL     1      23.392  37.469  16.403  1.00  0.00     0.176 C 
HETATM    7  N4  UNL     1      23.758  37.973  17.681  1.00  0.00    -0.346 N 
ATOM      8  H4  UNL     1      23.497  37.359  18.452  1.00  0.00     0.163 HD
HETATM    9  C15 UNL     1      24.404  39.143  18.091  1.00  0.00     0.241 C 
HETATM   10  O2  UNL     1      25.481  38.975  18.793  1.00  0.00    -0.271 OA
HETATM   11  C16 UNL     1      24.067  40.575  17.862  1.00  0.00     0.179 C 
HETATM   12  N5  UNL     1      23.864  40.943  16.504  1.00  0.00    -0.359 N 
ATOM     13  H5  UNL     1      24.162  40.200  15.873  1.00  0.00     0.162 HD
HETATM   14  C20 UNL     1      23.378  42.025  15.805  1.00  0.00     0.135 C 
HETATM   15  C21 UNL     1      22.198  42.844  15.713  1.00  0.00     0.162 C 
HETATM   16  C22 UNL     1      22.583  44.181  15.067  1.00  0.00     0.035 C 
HETATM   17  C23 UNL     1      22.638  45.047  16.288  1.00  0.00     0.022 C 
HETATM   18  C24 UNL     1      21.371  44.639  16.922  1.00  0.00     0.127 C 
HETATM   19  N6  UNL     1      21.361  43.156  16.811  1.00  0.00    -0.335 N 
HETATM   20  C25 UNL     1      20.617  42.351  17.673  1.00  0.00     0.266 C 
HETATM   21  O4  UNL     1      20.887  42.549  18.924  1.00  0.00    -0.266 OA
HETATM   22  C26 UNL     1      19.581  41.319  17.477  1.00  0.00     0.076 C 
HETATM   23  C27 UNL     1      19.359  40.835  16.110  1.00  0.00     0.074 C 
HETATM   24  N7  UNL     1      19.621  40.341  18.534  1.00  0.00    -0.324 N 
ATOM     25  H7  UNL     1      18.978  40.545  19.299  1.00  0.00     0.169 HD
HETATM   26  C28 UNL     1      20.361  39.168  18.730  1.00  0.00     0.248 C 
HETATM   27  O5  UNL     1      21.178  39.219  19.735  1.00  0.00    -0.271 OA
ENDROOT
BRANCH   1  28
HETATM   28  C7  UNL     1      19.107  37.110  18.264  1.00  0.00     0.003 C 
HETATM   29  C6  UNL     1      17.945  37.296  17.710  1.00  0.00    -0.028 C 
BRANCH  29  30
HETATM   30  C5  UNL     1      16.777  36.445  18.056  1.00  0.00     0.028 C 
BRANCH  30  31
HETATM   31  C4  UNL     1      17.086  34.958  18.002  1.00  0.00     0.032 C 
BRANCH  31  32
HETATM   32  C3  UNL     1      16.293  34.396  16.853  1.00  0.00     0.237 C 
BRANCH  32  33
HETATM   33  N1  UNL     1      17.075  33.713  15.864  1.00  0.00    -0.067 N 
HETATM   34  C29 UNL     1      16.522  32.364  15.768  1.00  0.00     0.237 C 
HETATM   35  C30 UNL     1      17.690  31.429  15.615  1.00  0.00     0.029 C 
HETATM   36  C31 UNL     1      18.928  32.262  15.646  1.00  0.00     0.029 C 
HETATM   37  C32 UNL     1      18.434  33.581  16.226  1.00  0.00     0.237 C 
BRANCH  33  38
HETATM   38  C2  UNL     1      16.873  34.428  14.611  1.00  0.00     0.233 C 
HETATM   39  C1  UNL     1      15.459  34.499  14.158  1.00  0.00     0.035 C 
ENDBRANCH  33  38
ENDBRANCH  32  33
ENDBRANCH  31  32
ENDBRANCH  30  31
ENDBRANCH  29  30
ENDBRANCH   1  28
BRANCH   6  40
HETATM   40  C11 UNL     1      23.372  35.967  16.282  1.00  0.00     0.035 C 
BRANCH  40  41
HETATM   41  C12 UNL     1      23.566  35.344  14.991  1.00  0.00     0.004 C 
BRANCH  41  42
HETATM   42  C13 UNL     1      23.215  33.903  14.857  1.00  0.00     0.027 C 
BRANCH  42  43
HETATM   43  C14 UNL     1      22.401  33.497  16.120  1.00  0.00     0.229 C 
BRANCH  43  44
HETATM   44  N3  UNL     1      22.998  32.342  16.748  1.00  0.00    -0.079 N 
ATOM     45  H33 UNL     1      23.695  31.899  16.148  1.00  0.00     0.274 HD
ATOM     46  H32 UNL     1      23.611  32.601  17.522  1.00  0.00     0.274 HD
ATOM     47  H31 UNL     1      22.274  31.685  17.040  1.00  0.00     0.274 HD
ENDBRANCH  43  44
ENDBRANCH  42  43
ENDBRANCH  41  42
ENDBRANCH  40  41
ENDBRANCH   6  40
BRANCH  11  48
HETATM   48  C17 UNL     1      25.180  41.430  18.526  1.00  0.00     0.009 C 
HETATM   49  C18 UNL     1      26.292  41.727  17.581  1.00  0.00     0.012 C 
HETATM   50  C19 UNL     1      24.668  42.557  19.328  1.00  0.00     0.012 C 
ENDBRANCH  11  48
BRANCH  14  51
HETATM   51  O3  UNL     1      24.272  42.450  14.937  1.00  0.00    -0.348 OA
ATOM     52  H3  UNL     1      24.939  42.965  15.374  1.00  0.00     0.219 HD
ENDBRANCH  14  51
TORSDOF 13
ENDMDL
MODEL 5
REMARK VINA RESULT: -7.427837732      1.923      5.297
REMARK  13 active torsions:
REMARK  status: ('A' for Active; 'I' for Inactive)
REMARK    1  A    between atoms: C2_2  and  N1_3 
REMARK    2  A    between atoms: N1_3  and  C3_4 
REMARK    3  A    between atoms: C3_4  and  C4_5 
REMARK    4  A    between atoms: C4_5  and  C5_6 
REMARK    5  A    between atoms: C5_6  and  C6_7 
REMARK    6  A    between atoms: C7_8  and  C8_9 
REMARK    7  A    between atoms: C10_14  and  C11_15 
REMARK    8  A    between atoms: C11_15  and  C12_16 
REMARK    9  A    between atoms: C12_16  and  C13_17 
REMARK   10  A    between atoms: C13_17  and  C14_18 
REMARK   11  A    between atoms: C14_18  and  N3_19 
REMARK   12  A    between atoms: C16_27  and  C17_28 
REMARK   13  A    between atoms: C20_33  and  O3_34 
ROOT
HETATM    1  C8  UNL     1      20.476  38.009  18.180  1.00  0.00     0.200 C 
HETATM    2  N2  UNL     1      20.770  37.889  16.787  1.00  0.00    -0.343 N 
ATOM      3  H2  UNL     1      19.926  37.773  16.226  1.00  0.00     0.163 HD
HETATM    4  C9  UNL     1      21.905  37.891  16.016  1.00  0.00     0.241 C 
HETATM    5  O1  UNL     1      21.856  38.342  14.837  1.00  0.00    -0.271 OA
HETATM    6  C10 UNL     1      23.320  37.415  16.328  1.00  0.00     0.176 C 
HETATM    7  N4  UNL     1      23.814  37.992  17.530  1.00  0.00    -0.346 N 
ATOM      8  H4  UNL     1      23.619  37.435  18.362  1.00  0.00     0.163 HD
HETATM    9  C15 UNL     1      24.514  39.172  17.798  1.00  0.00     0.241 C 
HETATM   10  O2  UNL     1      25.651  39.026  18.406  1.00  0.00    -0.271 OA
HETATM   11  C16 UNL     1      24.179  40.593  17.509  1.00  0.00     0.179 C 
HETATM   12  N5  UNL     1      23.852  40.878  16.155  1.00  0.00    -0.359 N 
ATOM     13  H5  UNL     1      24.076  40.089  15.549  1.00  0.00     0.162 HD
HETATM   14  C20 UNL     1      23.318  41.922  15.435  1.00  0.00     0.135 C 
HETATM   15  C21 UNL     1      22.147  42.759  15.402  1.00  0.00     0.162 C 
HETATM   16  C22 UNL     1      22.488  44.043  14.634  1.00  0.00     0.035 C 
HETATM   17  C23 UNL     1      22.674  44.984  15.785  1.00  0.00     0.022 C 
HETATM   18  C24 UNL     1      21.467  44.645  16.562  1.00  0.00     0.127 C 
HETATM   19  N6  UNL     1      21.423  43.159  16.550  1.00  0.00    -0.335 N 
HETATM   20  C25 UNL     1      20.754  42.427  17.530  1.00  0.00     0.266 C 
HETATM   21  O4  UNL     1      21.145  42.699  18.735  1.00  0.00    -0.266 OA
HETATM   22  C26 UNL     1      19.688  41.407  17.502  1.00  0.00     0.076 C 
HETATM   23  C27 UNL     1      19.329  40.840  16.197  1.00  0.00     0.074 C 
HETATM   24  N7  UNL     1      19.815  40.498  18.613  1.00  0.00    -0.324 N 
ATOM     25  H7  UNL     1      19.251  40.764  19.420  1.00  0.00     0.169 HD
HETATM   26  C28 UNL     1      20.552  39.324  18.814  1.00  0.00     0.248 C 
HETATM   27  O5  UNL     1      21.462  39.423  19.733  1.00  0.00    -0.271 OA
ENDROOT
BRANCH   1  28
HETATM   28  C7  UNL     1      19.228  37.268  18.607  1.00  0.00     0.003 C 
HETATM   29  C6  UNL     1      18.064  37.296  18.026  1.00  0.00    -0.028 C 
BRANCH  29  30
HETATM   30  C5  UNL     1      16.916  36.515  18.554  1.00  0.00     0.028 C 
BRANCH  30  31
HETATM   31  C4  UNL     1      16.300  35.588  17.520  1.00  0.00     0.032 C 
BRANCH  31  32
HETATM   32  C3  UNL     1      17.365  34.592  17.147  1.00  0.00     0.237 C 
BRANCH  32  33
HETATM   33  N1  UNL     1      17.178  33.966  15.870  1.00  0.00    -0.067 N 
HETATM   34  C29 UNL     1      16.558  34.971  15.010  1.00  0.00     0.237 C 
HETATM   35  C30 UNL     1      15.531  34.253  14.178  1.00  0.00     0.029 C 
HETATM   36  C31 UNL     1      15.556  32.818  14.589  1.00  0.00     0.029 C 
HETATM   37  C32 UNL     1      16.301  32.861  15.918  1.00  0.00     0.237 C 
BRANCH  33  38
HETATM   38  C2  UNL     1      18.507  33.633  15.375  1.00  0.00     0.233 C 
HETATM   39  C1  UNL     1      19.620  34.350  16.053  1.00  0.00     0.035 C 
ENDBRANCH  33  38
ENDBRANCH  32  33
ENDBRANCH  31  32
ENDBRANCH  30  31
ENDBRANCH  29  30
ENDBRANCH   1  28
BRANCH   6  40
HETATM   40  C11 UNL     1      23.265  35.909  16.310  1.00  0.00     0.035 C 
BRANCH  40  41
HETATM   41  C12 UNL     1      23.291  35.201  15.049  1.00  0.00     0.004 C 
BRANCH  41  42
HETATM   42  C13 UNL     1      23.203  33.715  15.086  1.00  0.00     0.027 C 
BRANCH  42  43
HETATM   43  C14 UNL     1      23.260  33.277  16.578  1.00  0.00     0.229 C 
BRANCH  43  44
HETATM   44  N3  UNL     1      22.348  32.182  16.811  1.00  0.00    -0.079 N 
ATOM     45  H33 UNL     1      21.792  31.967  15.983  1.00  0.00     0.274 HD
ATOM     46  H32 UNL     1      22.836  31.290  16.900  1.00  0.00     0.274 HD
ATOM     47  H31 UNL     1      21.763  32.378  17.623  1.00  0.00     0.274 HD
ENDBRANCH  43  44
ENDBRANCH  42  43
ENDBRANCH  41  42
ENDBRANCH  40  41
ENDBRANCH   6  40
BRANCH  11  48
HETATM   48  C17 UNL     1      25.363  41.465  18.006  1.00  0.00     0.009 C 
HETATM   49  C18 UNL     1      26.287  41.832  16.898  1.00  0.00     0.012 C 
HETATM   50  C19 UNL     1      24.963  42.546  18.926  1.00  0.00     0.012 C 
ENDBRANCH  11  48
BRANCH  14  51
HETATM   51  O3  UNL     1      24.130  42.271  14.460  1.00  0.00    -0.348 OA
ATOM     52  H3  UNL     1      23.752  42.978  13.951  1.00  0.00     0.219 HD
ENDBRANCH  14  51
TORSDOF 13
ENDMDL
