MODEL 1
REMARK VINA RESULT: -9.184774210      0.000      0.000
REMARK  15 active torsions:
REMARK  status: ('A' for Active; 'I' for Inactive)
REMARK    1  A    between atoms: N1_8  and  C8_9 
REMARK    2  A    between atoms: C8_9  and  C9_10 
REMARK       I    between atoms: C9_10  and  N2_12 
REMARK    3  A    between atoms: C13_16  and  C14_17 
REMARK    4  A    between atoms: C14_17  and  O2_18 
REMARK    5  A    between atoms: C14_17  and  N3_20 
REMARK    6  A    between atoms: N3_20  and  C16_22 
REMARK    7  A    between atoms: C16_22  and  O3_23 
REMARK    8  A    between atoms: C16_22  and  N4_25 
REMARK    9  A    between atoms: N4_25  and  C17_27 
REMARK   10  A    between atoms: C17_27  and  C18_28 
REMARK   11  A    between atoms: C17_27  and  C19_31 
REMARK   12  A    between atoms: C26_38  and  N6_39 
REMARK       I    between atoms: N6_39  and  C27_41 
REMARK   13  A    between atoms: C27_41  and  C28_43 
REMARK   14  A    between atoms: C28_43  and  C29_44 
REMARK   15  A    between atoms: C29_44  and  N7_45 
REMARK       I    between atoms: N7_45  and  C30_47 
ROOT
HETATM    1  C9  UNL     1      19.122  33.170  16.056  1.00  0.00     0.267 C 
HETATM    2  O1  UNL     1      19.533  32.619  17.085  1.00  0.00    -0.267 OA
HETATM    3  N2  UNL     1      17.945  33.945  16.134  1.00  0.00    -0.335 N 
HETATM    4  C10 UNL     1      17.254  34.672  15.036  1.00  0.00     0.127 C 
HETATM    5  C11 UNL     1      15.795  34.612  15.353  1.00  0.00     0.022 C 
HETATM    6  C12 UNL     1      15.701  33.866  16.661  1.00  0.00     0.035 C 
HETATM    7  C13 UNL     1      17.111  34.149  17.278  1.00  0.00     0.162 C 
ENDROOT
BRANCH   1   8
HETATM    8  C8  UNL     1      19.787  33.060  14.782  1.00  0.00     0.276 C 
BRANCH   8   9
HETATM    9  N1  UNL     1      20.371  31.844  14.354  1.00  0.00    -0.036 N 
HETATM   10  C2  UNL     1      21.562  32.077  13.544  1.00  0.00     0.192 C 
HETATM   11  C1  UNL     1      22.789  32.402  14.314  1.00  0.00     0.041 C 
HETATM   12  C3  UNL     1      21.833  30.909  12.637  1.00  0.00     0.045 C 
HETATM   13  C4  UNL     1      21.285  29.671  13.352  1.00  0.00    -0.018 C 
HETATM   14  C5  UNL     1      21.803  28.414  12.739  1.00  0.00     0.017 C 
HETATM   15  C6  UNL     1      21.542  29.775  14.843  1.00  0.00     0.039 C 
HETATM   16  C26 UNL     1      19.760  29.777  13.183  1.00  0.00     0.119 C 
HETATM   17  C7  UNL     1      20.608  30.848  15.371  1.00  0.00     0.244 C 
HETATM   18  C25 UNL     1      19.405  31.211  13.433  1.00  0.00     0.269 C 
BRANCH  16  19
HETATM   19  N6  UNL     1      19.413  29.370  11.836  1.00  0.00    -0.354 N 
HETATM   20  C27 UNL     1      18.128  28.874  11.486  1.00  0.00     0.219 C 
HETATM   21  O5  UNL     1      17.258  28.781  12.374  1.00  0.00    -0.274 OA
ATOM     22  H6  UNL     1      20.123  29.443  11.108  1.00  0.00     0.162 HD
BRANCH  20  23
HETATM   23  C28 UNL     1      17.809  28.471  10.112  1.00  0.00     0.122 C 
BRANCH  23  24
HETATM   24  C29 UNL     1      17.982  26.985   9.929  1.00  0.00     0.131 C 
BRANCH  24  25
HETATM   25  N7  UNL     1      17.910  26.312  11.221  1.00  0.00    -0.364 N 
HETATM   26  C30 UNL     1      18.753  25.231  11.569  1.00  0.00     0.181 C 
HETATM   27  N8  UNL     1      20.022  25.370  11.591  1.00  0.00    -0.374 N 
HETATM   28  N9  UNL     1      18.173  23.984  11.897  1.00  0.00    -0.064 NA
ATOM     29  H82 UNL     1      20.440  26.269  11.355  1.00  0.00     0.158 HD
ATOM     30  H81 UNL     1      20.630  24.590  11.842  1.00  0.00     0.158 HD
ATOM     31  H7  UNL     1      17.222  26.634  11.902  1.00  0.00     0.162 HD
ENDBRANCH  24  25
ENDBRANCH  23  24
ENDBRANCH  20  23
ENDBRANCH  16  19
ENDBRANCH   8   9
ENDBRANCH   1   8
BRANCH   7  32
HETATM   32  C14 UNL     1      17.100  35.512  17.798  1.00  0.00     0.144 C 
BRANCH  32  33
HETATM   33  O2  UNL     1      15.914  35.906  18.193  1.00  0.00    -0.348 OA
ATOM     34  H2  UNL     1      15.935  36.705  18.706  1.00  0.00     0.219 HD
ENDBRANCH  32  33
BRANCH  32  35
HETATM   35  N3  UNL     1      18.113  36.464  17.951  1.00  0.00    -0.300 N 
HETATM   36  C15 UNL     1      17.898  37.879  17.574  1.00  0.00     0.161 C 
BRANCH  35  37
HETATM   37  C16 UNL     1      19.379  36.173  18.473  1.00  0.00     0.221 C 
BRANCH  37  38
HETATM   38  O3  UNL     1      19.488  35.027  19.088  1.00  0.00    -0.332 OA
ATOM     39  H3  UNL     1      20.312  34.877  19.537  1.00  0.00     0.220 HD
ENDBRANCH  37  38
BRANCH  37  40
HETATM   40  N4  UNL     1      20.533  36.913  18.434  1.00  0.00    -0.343 N 
ATOM     41  H4  UNL     1      20.910  37.292  19.302  1.00  0.00     0.164 HD
BRANCH  40  42
HETATM   42  C17 UNL     1      21.257  37.179  17.142  1.00  0.00     0.178 C 
BRANCH  42  43
HETATM   43  C18 UNL     1      21.921  35.915  16.796  1.00  0.00     0.254 C 
HETATM   44  N5  UNL     1      22.473  35.115  17.817  1.00  0.00    -0.060 NA
HETATM   45  O4  UNL     1      22.005  35.540  15.614  1.00  0.00    -0.275 OA
ENDBRANCH  42  43
BRANCH  42  46
HETATM   46  C19 UNL     1      22.162  38.329  17.394  1.00  0.00     0.017 C 
HETATM   47  C20 UNL     1      22.845  38.920  16.213  1.00  0.00     0.007 C 
HETATM   48  C21 UNL     1      21.901  39.537  15.219  1.00  0.00     0.000 C 
HETATM   49  C22 UNL     1      20.663  40.093  15.827  1.00  0.00     0.000 C 
HETATM   50  C23 UNL     1      20.700  40.378  17.285  1.00  0.00     0.000 C 
HETATM   51  C24 UNL     1      21.441  39.421  18.143  1.00  0.00     0.007 C 
ENDBRANCH  42  46
ENDBRANCH  40  42
ENDBRANCH  37  40
ENDBRANCH  35  37
ENDBRANCH  32  35
ENDBRANCH   7  32
TORSDOF 15
ENDMDL
MODEL 2
REMARK VINA RESULT: -9.055624111      0.973      1.150
REMARK  15 active torsions:
REMARK  status: ('A' for Active; 'I' for Inactive)
REMARK    1  A    between atoms: N1_8  and  C8_9 
REMARK    2  A    between atoms: C8_9  and  C9_10 
REMARK       I    between atoms: C9_10  and  N2_12 
REMARK    3  A    between atoms: C13_16  and  C14_17 
REMARK    4  A    between atoms: C14_17  and  O2_18 
REMARK    5  A    between atoms: C14_17  and  N3_20 
REMARK    6  A    between atoms: N3_20  and  C16_22 
REMARK    7  A    between atoms: C16_22  and  O3_23 
REMARK    8  A    between atoms: C16_22  and  N4_25 
REMARK    9  A    between atoms: N4_25  and  C17_27 
REMARK   10  A    between atoms: C17_27  and  C18_28 
REMARK   11  A    between atoms: C17_27  and  C19_31 
REMARK   12  A    between atoms: C26_38  and  N6_39 
REMARK       I    between atoms: N6_39  and  C27_41 
REMARK   13  A    between atoms: C27_41  and  C28_43 
REMARK   14  A    between atoms: C28_43  and  C29_44 
REMARK   15  A    between atoms: C29_44  and  N7_45 
REMARK       I    between atoms: N7_45  and  C30_47 
ROOT
HETATM    1  C9  UNL     1      19.185  32.999  16.119  1.00  0.00     0.267 C 
HETATM    2  O1  UNL     1      19.478  32.343  17.126  1.00  0.00    -0.267 OA
HETATM    3  N2  UNL     1      18.045  33.830  16.169  1.00  0.00    -0.335 N 
HETATM    4  C10 UNL     1      17.487  34.684  15.086  1.00  0.00     0.127 C 
HETATM    5  C11 UNL     1      16.005  34.680  15.278  1.00  0.00     0.022 C 
HETATM    6  C12 UNL     1      15.763  33.835  16.503  1.00  0.00     0.035 C 
HETATM    7  C13 UNL     1      17.127  33.986  17.256  1.00  0.00     0.162 C 
ENDROOT
BRANCH   1   8
HETATM    8  C8  UNL     1      19.949  32.957  14.899  1.00  0.00     0.276 C 
BRANCH   8   9
HETATM    9  N1  UNL     1      20.414  31.735  14.358  1.00  0.00    -0.036 N 
HETATM   10  C2  UNL     1      21.520  31.945  13.428  1.00  0.00     0.192 C 
HETATM   11  C1  UNL     1      22.840  32.172  14.067  1.00  0.00     0.041 C 
HETATM   12  C3  UNL     1      21.622  30.810  12.449  1.00  0.00     0.045 C 
HETATM   13  C4  UNL     1      21.091  29.568  13.170  1.00  0.00    -0.018 C 
HETATM   14  C5  UNL     1      21.467  28.317  12.450  1.00  0.00     0.017 C 
HETATM   15  C6  UNL     1      21.517  29.589  14.625  1.00  0.00     0.039 C 
HETATM   16  C26 UNL     1      19.564  29.758  13.180  1.00  0.00     0.119 C 
HETATM   17  C7  UNL     1      20.707  30.681  15.299  1.00  0.00     0.244 C 
HETATM   18  C25 UNL     1      19.318  31.195  13.527  1.00  0.00     0.269 C 
BRANCH  16  19
HETATM   19  N6  UNL     1      19.048  29.434  11.865  1.00  0.00    -0.354 N 
HETATM   20  C27 UNL     1      17.992  28.504  11.658  1.00  0.00     0.219 C 
HETATM   21  O5  UNL     1      17.487  27.940  12.648  1.00  0.00    -0.274 OA
ATOM     22  H6  UNL     1      19.460  29.892  11.053  1.00  0.00     0.162 HD
BRANCH  20  23
HETATM   23  C28 UNL     1      17.493  28.198  10.313  1.00  0.00     0.122 C 
BRANCH  23  24
HETATM   24  C29 UNL     1      17.740  26.754   9.959  1.00  0.00     0.131 C 
BRANCH  24  25
HETATM   25  N7  UNL     1      19.154  26.547   9.664  1.00  0.00    -0.364 N 
HETATM   26  C30 UNL     1      19.620  26.149   8.389  1.00  0.00     0.181 C 
HETATM   27  N8  UNL     1      19.398  26.865   7.357  1.00  0.00    -0.374 N 
HETATM   28  N9  UNL     1      20.341  24.939   8.269  1.00  0.00    -0.064 NA
ATOM     29  H82 UNL     1      18.878  27.738   7.444  1.00  0.00     0.158 HD
ATOM     30  H81 UNL     1      19.734  26.578   6.437  1.00  0.00     0.158 HD
ATOM     31  H7  UNL     1      19.835  26.697  10.409  1.00  0.00     0.162 HD
ENDBRANCH  24  25
ENDBRANCH  23  24
ENDBRANCH  20  23
ENDBRANCH  16  19
ENDBRANCH   8   9
ENDBRANCH   1   8
BRANCH   7  32
HETATM   32  C14 UNL     1      17.139  35.299  17.890  1.00  0.00     0.144 C 
BRANCH  32  33
HETATM   33  O2  UNL     1      16.000  35.610  18.459  1.00  0.00    -0.348 OA
ATOM     34  H2  UNL     1      15.512  36.274  17.986  1.00  0.00     0.219 HD
ENDBRANCH  32  33
BRANCH  32  35
HETATM   35  N3  UNL     1      18.133  36.277  18.000  1.00  0.00    -0.300 N 
HETATM   36  C15 UNL     1      17.881  37.677  17.589  1.00  0.00     0.161 C 
BRANCH  35  37
HETATM   37  C16 UNL     1      19.413  36.028  18.508  1.00  0.00     0.221 C 
BRANCH  37  38
HETATM   38  O3  UNL     1      19.571  34.879  19.107  1.00  0.00    -0.332 OA
ATOM     39  H3  UNL     1      20.061  34.902  19.921  1.00  0.00     0.220 HD
ENDBRANCH  37  38
BRANCH  37  40
HETATM   40  N4  UNL     1      20.538  36.811  18.470  1.00  0.00    -0.343 N 
ATOM     41  H4  UNL     1      20.885  37.224  19.335  1.00  0.00     0.164 HD
BRANCH  40  42
HETATM   42  C17 UNL     1      21.272  37.077  17.184  1.00  0.00     0.178 C 
BRANCH  42  43
HETATM   43  C18 UNL     1      21.976  35.827  16.868  1.00  0.00     0.254 C 
HETATM   44  N5  UNL     1      22.554  35.069  17.907  1.00  0.00    -0.060 NA
HETATM   45  O4  UNL     1      22.072  35.426  15.695  1.00  0.00    -0.275 OA
ENDBRANCH  42  43
BRANCH  42  46
HETATM   46  C19 UNL     1      22.141  38.255  17.429  1.00  0.00     0.017 C 
HETATM   47  C20 UNL     1      22.781  38.878  16.241  1.00  0.00     0.007 C 
HETATM   48  C21 UNL     1      21.799  39.470  15.269  1.00  0.00     0.000 C 
HETATM   49  C22 UNL     1      20.554  39.978  15.903  1.00  0.00     0.000 C 
HETATM   50  C23 UNL     1      20.606  40.252  17.362  1.00  0.00     0.000 C 
HETATM   51  C24 UNL     1      21.396  39.317  18.200  1.00  0.00     0.007 C 
ENDBRANCH  42  46
ENDBRANCH  40  42
ENDBRANCH  37  40
ENDBRANCH  35  37
ENDBRANCH  32  35
ENDBRANCH   7  32
TORSDOF 15
ENDMDL
MODEL 3
REMARK VINA RESULT: -8.960650943      2.191      3.298
REMARK  15 active torsions:
REMARK  status: ('A' for Active; 'I' for Inactive)
REMARK    1  A    between atoms: N1_8  and  C8_9 
REMARK    2  A    between atoms: C8_9  and  C9_10 
REMARK       I    between atoms: C9_10  and  N2_12 
REMARK    3  A    between atoms: C13_16  and  C14_17 
REMARK    4  A    between atoms: C14_17  and  O2_18 
REMARK    5  A    between atoms: C14_17  and  N3_20 
REMARK    6  A    between atoms: N3_20  and  C16_22 
REMARK    7  A    between atoms: C16_22  and  O3_23 
REMARK    8  A    between atoms: C16_22  and  N4_25 
REMARK    9  A    between atoms: N4_25  and  C17_27 
REMARK   10  A    between atoms: C17_27  and  C18_28 
REMARK   11  A    between atoms: C17_27  and  C19_31 
REMARK   12  A    between atoms: C26_38  and  N6_39 
REMARK       I    between atoms: N6_39  and  C27_41 
REMARK   13  A    between atoms: C27_41  and  C28_43 
REMARK   14  A    between atoms: C28_43  and  C29_44 
REMARK   15  A    between atoms: C29_44  and  N7_45 
REMARK       I    between atoms: N7_45  and  C30_47 
ROOT
HETATM    1  C9  UNL     1      19.334  33.254  16.084  1.00  0.00     0.267 C 
HETATM    2  O1  UNL     1      19.796  32.752  17.116  1.00  0.00    -0.267 OA
HETATM    3  N2  UNL     1      18.116  33.961  16.171  1.00  0.00    -0.335 N 
HETATM    4  C10 UNL     1      17.361  34.621  15.071  1.00  0.00     0.127 C 
HETATM    5  C11 UNL     1      15.915  34.484  15.422  1.00  0.00     0.022 C 
HETATM    6  C12 UNL     1      15.891  33.766  16.748  1.00  0.00     0.035 C 
HETATM    7  C13 UNL     1      17.295  34.145  17.328  1.00  0.00     0.162 C 
ENDROOT
BRANCH   1   8
HETATM    8  C8  UNL     1      19.977  33.152  14.799  1.00  0.00     0.276 C 
BRANCH   8   9
HETATM    9  N1  UNL     1      20.193  31.900  14.176  1.00  0.00    -0.036 N 
HETATM   10  C2  UNL     1      19.729  30.797  15.012  1.00  0.00     0.192 C 
HETATM   11  C1  UNL     1      18.263  30.565  14.984  1.00  0.00     0.041 C 
HETATM   12  C3  UNL     1      20.446  29.522  14.668  1.00  0.00     0.045 C 
HETATM   13  C4  UNL     1      20.816  29.620  13.185  1.00  0.00    -0.018 C 
HETATM   14  C5  UNL     1      21.204  28.291  12.631  1.00  0.00     0.017 C 
HETATM   15  C6  UNL     1      19.701  30.302  12.416  1.00  0.00     0.039 C 
HETATM   16  C26 UNL     1      22.003  30.598  13.153  1.00  0.00     0.119 C 
HETATM   17  C7  UNL     1      19.728  31.765  12.816  1.00  0.00     0.244 C 
HETATM   18  C25 UNL     1      21.656  31.717  14.088  1.00  0.00     0.269 C 
BRANCH  16  19
HETATM   19  N6  UNL     1      23.194  29.894  13.585  1.00  0.00    -0.354 N 
HETATM   20  C27 UNL     1      24.182  29.419  12.680  1.00  0.00     0.219 C 
HETATM   21  O5  UNL     1      24.019  29.612  11.459  1.00  0.00    -0.274 OA
ATOM     22  H6  UNL     1      23.330  29.733  14.583  1.00  0.00     0.162 HD
BRANCH  20  23
HETATM   23  C28 UNL     1      25.377  28.711  13.151  1.00  0.00     0.122 C 
BRANCH  23  24
HETATM   24  C29 UNL     1      26.032  27.948  12.028  1.00  0.00     0.131 C 
BRANCH  24  25
HETATM   25  N7  UNL     1      25.461  26.610  11.933  1.00  0.00    -0.364 N 
HETATM   26  C30 UNL     1      24.728  26.168  10.806  1.00  0.00     0.181 C 
HETATM   27  N8  UNL     1      25.261  26.140   9.647  1.00  0.00    -0.374 N 
HETATM   28  N9  UNL     1      23.387  25.753  10.978  1.00  0.00    -0.064 NA
ATOM     29  H82 UNL     1      26.228  26.439   9.523  1.00  0.00     0.158 HD
ATOM     30  H81 UNL     1      24.733  25.821   8.834  1.00  0.00     0.158 HD
ATOM     31  H7  UNL     1      25.596  25.965  12.712  1.00  0.00     0.162 HD
ENDBRANCH  24  25
ENDBRANCH  23  24
ENDBRANCH  20  23
ENDBRANCH  16  19
ENDBRANCH   8   9
ENDBRANCH   1   8
BRANCH   7  32
HETATM   32  C14 UNL     1      17.215  35.516  17.817  1.00  0.00     0.144 C 
BRANCH  32  33
HETATM   33  O2  UNL     1      16.009  35.863  18.195  1.00  0.00    -0.348 OA
ATOM     34  H2  UNL     1      15.358  35.187  18.042  1.00  0.00     0.219 HD
ENDBRANCH  32  33
BRANCH  32  35
HETATM   35  N3  UNL     1      18.181  36.519  17.955  1.00  0.00    -0.300 N 
HETATM   36  C15 UNL     1      17.898  37.916  17.557  1.00  0.00     0.161 C 
BRANCH  35  37
HETATM   37  C16 UNL     1      19.459  36.297  18.480  1.00  0.00     0.221 C 
BRANCH  37  38
HETATM   38  O3  UNL     1      19.622  35.171  19.119  1.00  0.00    -0.332 OA
ATOM     39  H3  UNL     1      20.499  35.003  19.443  1.00  0.00     0.220 HD
ENDBRANCH  37  38
BRANCH  37  40
HETATM   40  N4  UNL     1      20.578  37.088  18.423  1.00  0.00    -0.343 N 
ATOM     41  H4  UNL     1      20.925  37.521  19.278  1.00  0.00     0.164 HD
BRANCH  40  42
HETATM   42  C17 UNL     1      21.306  37.333  17.129  1.00  0.00     0.178 C 
BRANCH  42  43
HETATM   43  C18 UNL     1      22.039  36.091  16.849  1.00  0.00     0.254 C 
HETATM   44  N5  UNL     1      22.283  35.712  15.513  1.00  0.00    -0.060 NA
HETATM   45  O4  UNL     1      22.448  35.367  17.773  1.00  0.00    -0.275 OA
ENDBRANCH  42  43
BRANCH  42  46
HETATM   46  C19 UNL     1      22.148  38.538  17.340  1.00  0.00     0.017 C 
HETATM   47  C20 UNL     1      22.718  39.182  16.128  1.00  0.00     0.007 C 
HETATM   48  C21 UNL     1      21.678  39.743  15.199  1.00  0.00     0.000 C 
HETATM   49  C22 UNL     1      20.445  40.212  15.886  1.00  0.00     0.000 C 
HETATM   50  C23 UNL     1      20.551  40.487  17.342  1.00  0.00     0.000 C 
HETATM   51  C24 UNL     1      21.404  39.575  18.144  1.00  0.00     0.007 C 
ENDBRANCH  42  46
ENDBRANCH  40  42
ENDBRANCH  37  40
ENDBRANCH  35  37
ENDBRANCH  32  35
ENDBRANCH   7  32
TORSDOF 15
ENDMDL
MODEL 4
REMARK VINA RESULT: -8.959047596      2.612      9.948
REMARK  15 active torsions:
REMARK  status: ('A' for Active; 'I' for Inactive)
REMARK    1  A    between atoms: N1_8  and  C8_9 
REMARK    2  A    between atoms: C8_9  and  C9_10 
REMARK       I    between atoms: C9_10  and  N2_12 
REMARK    3  A    between atoms: C13_16  and  C14_17 
REMARK    4  A    between atoms: C14_17  and  O2_18 
REMARK    5  A    between atoms: C14_17  and  N3_20 
REMARK    6  A    between atoms: N3_20  and  C16_22 
REMARK    7  A    between atoms: C16_22  and  O3_23 
REMARK    8  A    between atoms: C16_22  and  N4_25 
REMARK    9  A    between atoms: N4_25  and  C17_27 
REMARK   10  A    between atoms: C17_27  and  C18_28 
REMARK   11  A    between atoms: C17_27  and  C19_31 
REMARK   12  A    between atoms: C26_38  and  N6_39 
REMARK       I    between atoms: N6_39  and  C27_41 
REMARK   13  A    between atoms: C27_41  and  C28_43 
REMARK   14  A    between atoms: C28_43  and  C29_44 
REMARK   15  A    between atoms: C29_44  and  N7_45 
REMARK       I    between atoms: N7_45  and  C30_47 
ROOT
HETATM    1  C9  UNL     1      19.819  30.431  12.982  1.00  0.00     0.267 C 
HETATM    2  O1  UNL     1      20.201  31.250  12.137  1.00  0.00    -0.267 OA
HETATM    3  N2  UNL     1      19.116  29.290  12.539  1.00  0.00    -0.335 N 
HETATM    4  C10 UNL     1      18.542  28.192  13.363  1.00  0.00     0.127 C 
HETATM    5  C11 UNL     1      17.307  27.742  12.652  1.00  0.00     0.022 C 
HETATM    6  C12 UNL     1      17.231  28.592  11.408  1.00  0.00     0.035 C 
HETATM    7  C13 UNL     1      18.737  28.965  11.198  1.00  0.00     0.162 C 
ENDROOT
BRANCH   1   8
HETATM    8  C8  UNL     1      20.057  30.584  14.394  1.00  0.00     0.276 C 
BRANCH   8   9
HETATM    9  N1  UNL     1      19.645  31.744  15.093  1.00  0.00    -0.036 N 
HETATM   10  C2  UNL     1      18.445  32.328  14.504  1.00  0.00     0.192 C 
HETATM   11  C1  UNL     1      17.175  31.651  14.867  1.00  0.00     0.041 C 
HETATM   12  C3  UNL     1      18.345  33.793  14.828  1.00  0.00     0.045 C 
HETATM   13  C4  UNL     1      19.041  33.985  16.178  1.00  0.00    -0.018 C 
HETATM   14  C5  UNL     1      18.703  35.306  16.782  1.00  0.00     0.017 C 
HETATM   15  C6  UNL     1      18.751  32.805  17.085  1.00  0.00     0.039 C 
HETATM   16  C26 UNL     1      20.541  33.899  15.848  1.00  0.00     0.119 C 
HETATM   17  C7  UNL     1      19.527  31.627  16.527  1.00  0.00     0.244 C 
HETATM   18  C25 UNL     1      20.699  32.758  14.889  1.00  0.00     0.269 C 
BRANCH  16  19
HETATM   19  N6  UNL     1      20.958  35.153  15.255  1.00  0.00    -0.354 N 
HETATM   20  C27 UNL     1      22.100  35.876  15.698  1.00  0.00     0.219 C 
HETATM   21  O5  UNL     1      22.774  35.414  16.639  1.00  0.00    -0.274 OA
ATOM     22  H6  UNL     1      20.408  35.535  14.485  1.00  0.00     0.162 HD
BRANCH  20  23
HETATM   23  C28 UNL     1      22.495  37.144  15.074  1.00  0.00     0.122 C 
BRANCH  23  24
HETATM   24  C29 UNL     1      22.282  38.300  16.017  1.00  0.00     0.131 C 
BRANCH  24  25
HETATM   25  N7  UNL     1      21.143  38.031  16.888  1.00  0.00    -0.364 N 
HETATM   26  C30 UNL     1      21.206  38.166  18.294  1.00  0.00     0.181 C 
HETATM   27  N8  UNL     1      21.492  39.286  18.834  1.00  0.00    -0.374 N 
HETATM   28  N9  UNL     1      20.947  37.037  19.105  1.00  0.00    -0.064 NA
ATOM     29  H82 UNL     1      21.679  40.100  18.249  1.00  0.00     0.158 HD
ATOM     30  H81 UNL     1      21.538  39.384  19.848  1.00  0.00     0.158 HD
ATOM     31  H7  UNL     1      20.264  37.734  16.464  1.00  0.00     0.162 HD
ENDBRANCH  24  25
ENDBRANCH  23  24
ENDBRANCH  20  23
ENDBRANCH  16  19
ENDBRANCH   8   9
ENDBRANCH   1   8
BRANCH   7  32
HETATM   32  C14 UNL     1      19.407  27.800  10.632  1.00  0.00     0.144 C 
BRANCH  32  33
HETATM   33  O2  UNL     1      19.206  27.663   9.343  1.00  0.00    -0.348 OA
ATOM     34  H2  UNL     1      18.737  26.868   9.119  1.00  0.00     0.219 HD
ENDBRANCH  32  33
BRANCH  32  35
HETATM   35  N3  UNL     1      20.215  26.814  11.206  1.00  0.00    -0.300 N 
HETATM   36  C15 UNL     1      19.700  25.447  11.451  1.00  0.00     0.161 C 
BRANCH  35  37
HETATM   37  C16 UNL     1      21.548  27.022  11.575  1.00  0.00     0.221 C 
BRANCH  37  38
HETATM   38  O3  UNL     1      22.186  25.970  12.014  1.00  0.00    -0.332 OA
ATOM     39  H3  UNL     1      23.004  26.142  12.465  1.00  0.00     0.220 HD
ENDBRANCH  37  38
BRANCH  37  40
HETATM   40  N4  UNL     1      22.296  28.171  11.545  1.00  0.00    -0.343 N 
ATOM     41  H4  UNL     1      22.015  28.931  10.926  1.00  0.00     0.164 HD
BRANCH  40  42
HETATM   42  C17 UNL     1      23.521  28.339  12.401  1.00  0.00     0.178 C 
BRANCH  42  43
HETATM   43  C18 UNL     1      23.124  29.251  13.482  1.00  0.00     0.254 C 
HETATM   44  N5  UNL     1      23.466  30.617  13.403  1.00  0.00    -0.060 NA
HETATM   45  O4  UNL     1      22.490  28.837  14.468  1.00  0.00    -0.275 OA
ENDBRANCH  42  43
BRANCH  42  46
HETATM   46  C19 UNL     1      24.597  28.837  11.508  1.00  0.00     0.017 C 
HETATM   47  C20 UNL     1      25.991  28.453  11.852  1.00  0.00     0.007 C 
HETATM   48  C21 UNL     1      26.244  26.973  11.773  1.00  0.00     0.000 C 
HETATM   49  C22 UNL     1      25.417  26.273  10.754  1.00  0.00     0.000 C 
HETATM   50  C23 UNL     1      24.816  27.112   9.685  1.00  0.00     0.000 C 
HETATM   51  C24 UNL     1      24.321  28.455  10.075  1.00  0.00     0.007 C 
ENDBRANCH  42  46
ENDBRANCH  40  42
ENDBRANCH  37  40
ENDBRANCH  35  37
ENDBRANCH  32  35
ENDBRANCH   7  32
TORSDOF 15
ENDMDL
MODEL 5
REMARK VINA RESULT: -8.918191088      2.439      3.450
REMARK  15 active torsions:
REMARK  status: ('A' for Active; 'I' for Inactive)
REMARK    1  A    between atoms: N1_8  and  C8_9 
REMARK    2  A    between atoms: C8_9  and  C9_10 
REMARK       I    between atoms: C9_10  and  N2_12 
REMARK    3  A    between atoms: C13_16  and  C14_17 
REMARK    4  A    between atoms: C14_17  and  O2_18 
REMARK    5  A    between atoms: C14_17  and  N3_20 
REMARK    6  A    between atoms: N3_20  and  C16_22 
REMARK    7  A    between atoms: C16_22  and  O3_23 
REMARK    8  A    between atoms: C16_22  and  N4_25 
REMARK    9  A    between atoms: N4_25  and  C17_27 
REMARK   10  A    between atoms: C17_27  and  C18_28 
REMARK   11  A    between atoms: C17_27  and  C19_31 
REMARK   12  A    between atoms: C26_38  and  N6_39 
REMARK       I    between atoms: N6_39  and  C27_41 
REMARK   13  A    between atoms: C27_41  and  C28_43 
REMARK   14  A    between atoms: C28_43  and  C29_44 
REMARK   15  A    between atoms: C29_44  and  N7_45 
REMARK       I    between atoms: N7_45  and  C30_47 
ROOT
HETATM    1  C9  UNL     1      19.909  31.372  16.083  1.00  0.00     0.267 C 
HETATM    2  O1  UNL     1      20.497  30.989  17.102  1.00  0.00    -0.267 OA
HETATM    3  N2  UNL     1      19.429  32.698  16.046  1.00  0.00    -0.335 N 
HETATM    4  C10 UNL     1      18.677  33.368  14.951  1.00  0.00     0.127 C 
HETATM    5  C11 UNL     1      17.743  34.327  15.615  1.00  0.00     0.022 C 
HETATM    6  C12 UNL     1      18.018  34.193  17.092  1.00  0.00     0.035 C 
HETATM    7  C13 UNL     1      19.496  33.679  17.085  1.00  0.00     0.162 C 
ENDROOT
BRANCH   1   8
HETATM    8  C8  UNL     1      19.692  30.531  14.934  1.00  0.00     0.276 C 
BRANCH   8   9
HETATM    9  N1  UNL     1      20.761  30.132  14.096  1.00  0.00    -0.036 N 
HETATM   10  C2  UNL     1      21.123  31.183  13.150  1.00  0.00     0.192 C 
HETATM   11  C1  UNL     1      21.961  32.270  13.712  1.00  0.00     0.041 C 
HETATM   12  C3  UNL     1      21.795  30.605  11.936  1.00  0.00     0.045 C 
HETATM   13  C4  UNL     1      22.508  29.333  12.401  1.00  0.00    -0.018 C 
HETATM   14  C5  UNL     1      23.500  28.864  11.391  1.00  0.00     0.017 C 
HETATM   15  C6  UNL     1      23.095  29.542  13.784  1.00  0.00     0.039 C 
HETATM   16  C26 UNL     1      21.377  28.306  12.578  1.00  0.00     0.119 C 
HETATM   17  C7  UNL     1      21.925  29.585  14.750  1.00  0.00     0.244 C 
HETATM   18  C25 UNL     1      20.252  29.027  13.257  1.00  0.00     0.269 C 
BRANCH  16  19
HETATM   19  N6  UNL     1      20.983  27.819  11.271  1.00  0.00    -0.354 N 
HETATM   20  C27 UNL     1      21.006  26.442  10.921  1.00  0.00     0.219 C 
HETATM   21  O5  UNL     1      21.382  25.612  11.772  1.00  0.00    -0.274 OA
ATOM     22  H6  UNL     1      20.677  28.495  10.572  1.00  0.00     0.162 HD
BRANCH  20  23
HETATM   23  C28 UNL     1      20.601  25.983   9.588  1.00  0.00     0.122 C 
BRANCH  23  24
HETATM   24  C29 UNL     1      21.741  25.294   8.882  1.00  0.00     0.131 C 
BRANCH  24  25
HETATM   25  N7  UNL     1      23.000  25.954   9.207  1.00  0.00    -0.364 N 
HETATM   26  C30 UNL     1      24.158  25.242   9.601  1.00  0.00     0.181 C 
HETATM   27  N8  UNL     1      24.687  24.373   8.831  1.00  0.00    -0.374 N 
HETATM   28  N9  UNL     1      24.729  25.507  10.867  1.00  0.00    -0.064 NA
ATOM     29  H82 UNL     1      24.275  24.183   7.918  1.00  0.00     0.158 HD
ATOM     30  H81 UNL     1      25.522  23.860   9.115  1.00  0.00     0.158 HD
ATOM     31  H7  UNL     1      23.048  26.971   9.147  1.00  0.00     0.162 HD
ENDBRANCH  24  25
ENDBRANCH  23  24
ENDBRANCH  20  23
ENDBRANCH  16  19
ENDBRANCH   8   9
ENDBRANCH   1   8
BRANCH   7  32
HETATM   32  C14 UNL     1      20.359  34.820  16.801  1.00  0.00     0.144 C 
BRANCH  32  33
HETATM   33  O2  UNL     1      19.764  35.976  16.972  1.00  0.00    -0.348 OA
ATOM     34  H2  UNL     1      20.273  36.587  17.492  1.00  0.00     0.219 HD
ENDBRANCH  32  33
BRANCH  32  35
HETATM   35  N3  UNL     1      21.691  34.906  16.382  1.00  0.00    -0.300 N 
HETATM   36  C15 UNL     1      22.692  33.896  16.796  1.00  0.00     0.161 C 
BRANCH  35  37
HETATM   37  C16 UNL     1      22.178  35.918  15.547  1.00  0.00     0.221 C 
BRANCH  37  38
HETATM   38  O3  UNL     1      23.211  35.600  14.815  1.00  0.00    -0.332 OA
ATOM     39  H3  UNL     1      24.040  35.535  15.275  1.00  0.00     0.220 HD
ENDBRANCH  37  38
BRANCH  37  40
HETATM   40  N4  UNL     1      21.731  37.203  15.377  1.00  0.00    -0.343 N 
ATOM     41  H4  UNL     1      20.871  37.365  14.854  1.00  0.00     0.164 HD
BRANCH  40  42
HETATM   42  C17 UNL     1      22.478  38.380  15.943  1.00  0.00     0.178 C 
BRANCH  42  43
HETATM   43  C18 UNL     1      22.732  38.045  17.351  1.00  0.00     0.254 C 
HETATM   44  N5  UNL     1      24.058  37.972  17.823  1.00  0.00    -0.060 NA
HETATM   45  O4  UNL     1      21.793  37.822  18.134  1.00  0.00    -0.275 OA
ENDBRANCH  42  43
BRANCH  42  46
HETATM   46  C19 UNL     1      21.624  39.572  15.714  1.00  0.00     0.017 C 
HETATM   47  C20 UNL     1      21.879  40.759  16.572  1.00  0.00     0.007 C 
HETATM   48  C21 UNL     1      23.241  41.365  16.371  1.00  0.00     0.000 C 
HETATM   49  C22 UNL     1      23.774  41.207  14.992  1.00  0.00     0.000 C 
HETATM   50  C23 UNL     1      22.789  40.905  13.921  1.00  0.00     0.000 C 
HETATM   51  C24 UNL     1      21.671  39.993  14.266  1.00  0.00     0.007 C 
ENDBRANCH  42  46
ENDBRANCH  40  42
ENDBRANCH  37  40
ENDBRANCH  35  37
ENDBRANCH  32  35
ENDBRANCH   7  32
TORSDOF 15
ENDMDL
