MODEL 1
REMARK VINA RESULT: -7.305077698      0.000      0.000
REMARK  15 active torsions:
REMARK  status: ('A' for Active; 'I' for Inactive)
REMARK    1  A    between atoms: N1_2  and  C3_4 
REMARK    2  A    between atoms: C3_4  and  O1_5 
REMARK    3  A    between atoms: C3_4  and  C4_7 
REMARK    4  A    between atoms: C10_13  and  C11_14 
REMARK       I    between atoms: C11_14  and  N2_16 
REMARK       I    between atoms: N2_16  and  C12_18 
REMARK    5  A    between atoms: C12_18  and  C13_20 
REMARK    6  A    between atoms: C13_20  and  C14_21 
REMARK    7  A    between atoms: C14_21  and  C15_22 
REMARK    8  A    between atoms: C15_22  and  C16_23 
REMARK    9  A    between atoms: C16_23  and  C17_24 
REMARK   10  A    between atoms: C17_24  and  C18_25 
REMARK   11  A    between atoms: C18_25  and  C19_26 
REMARK   12  A    between atoms: C19_26  and  N3_27 
REMARK       I    between atoms: N3_27  and  C20_29 
REMARK   13  A    between atoms: C21_35  and  O4_36 
REMARK   14  A    between atoms: C21_35  and  N7_38 
REMARK   15  A    between atoms: C27_44  and  C28_45 
REMARK       I    between atoms: C28_45  and  N8_47 
ROOT
HETATM    1  C4  UNL     1      23.049  40.075  18.074  1.00  0.00     0.043 C 
HETATM    2  C5  UNL     1      22.546  41.110  18.861  1.00  0.00    -0.008 C 
HETATM    3  C6  UNL     1      21.195  41.503  19.198  1.00  0.00     0.036 C 
HETATM    4  C7  UNL     1      20.105  40.475  19.065  1.00  0.00     0.027 C 
HETATM    5  C8  UNL     1      18.765  41.258  19.103  1.00  0.00     0.011 C 
HETATM    6  C9  UNL     1      18.992  41.398  17.577  1.00  0.00     0.042 C 
HETATM    7  C10 UNL     1      19.749  40.147  17.660  1.00  0.00     0.126 C 
HETATM    8  N6  UNL     1      21.003  40.010  16.840  1.00  0.00    -0.288 N 
HETATM    9  C21 UNL     1      21.000  40.588  15.605  1.00  0.00     0.223 C 
HETATM   10  C27 UNL     1      22.050  39.195  17.486  1.00  0.00     0.121 C 
ENDROOT
BRANCH   7  11
HETATM   11  C11 UNL     1      18.936  38.921  17.512  1.00  0.00     0.253 C 
HETATM   12  O2  UNL     1      17.957  39.005  16.692  1.00  0.00    -0.270 OA
HETATM   13  N2  UNL     1      19.163  37.712  18.189  1.00  0.00    -0.295 N 
HETATM   14  C12 UNL     1      18.354  36.568  18.028  1.00  0.00     0.224 C 
ATOM     15  H2  UNL     1      19.954  37.659  18.831  1.00  0.00     0.171 HD
HETATM   16  O3  UNL     1      18.738  35.505  18.647  1.00  0.00    -0.273 OA
BRANCH  14  17
HETATM   17  C13 UNL     1      17.141  36.577  17.210  1.00  0.00     0.103 C 
BRANCH  17  18
HETATM   18  C14 UNL     1      16.045  35.675  17.713  1.00  0.00     0.009 C 
BRANCH  18  19
HETATM   19  C15 UNL     1      15.650  34.601  16.768  1.00  0.00     0.000 C 
BRANCH  19  20
HETATM   20  C16 UNL     1      16.197  34.851  15.363  1.00  0.00     0.000 C 
BRANCH  20  21
HETATM   21  C17 UNL     1      16.782  33.556  14.869  1.00  0.00     0.002 C 
BRANCH  21  22
HETATM   22  C18 UNL     1      17.676  32.898  15.888  1.00  0.00     0.020 C 
BRANCH  22  23
HETATM   23  C19 UNL     1      19.066  33.432  15.725  1.00  0.00     0.122 C 
BRANCH  23  24
HETATM   24  N3  UNL     1      19.955  32.988  16.764  1.00  0.00    -0.365 N 
HETATM   25  C20 UNL     1      20.843  31.910  16.566  1.00  0.00     0.181 C 
HETATM   26  N4  UNL     1      22.112  32.075  16.436  1.00  0.00    -0.374 N 
HETATM   27  N5  UNL     1      20.382  30.557  16.488  1.00  0.00    -0.064 NA
ATOM     28  H42 UNL     1      22.441  33.039  16.492  1.00  0.00     0.158 HD
ATOM     29  H41 UNL     1      22.754  31.296  16.293  1.00  0.00     0.158 HD
ATOM     30  H3  UNL     1      19.942  33.463  17.667  1.00  0.00     0.162 HD
ENDBRANCH  23  24
ENDBRANCH  22  23
ENDBRANCH  21  22
ENDBRANCH  20  21
ENDBRANCH  19  20
ENDBRANCH  18  19
ENDBRANCH  17  18
ENDBRANCH  14  17
ENDBRANCH   7  11
BRANCH   9  31
HETATM   31  O4  UNL     1      19.766  41.042  15.296  1.00  0.00    -0.332 OA
ATOM     32  H4  UNL     1      19.402  40.552  14.568  1.00  0.00     0.221 HD
ENDBRANCH   9  31
BRANCH   9  33
HETATM   33  N7  UNL     1      21.879  40.857  14.569  1.00  0.00    -0.347 N 
HETATM   34  C22 UNL     1      22.988  41.824  14.854  1.00  0.00     0.126 C 
HETATM   35  C23 UNL     1      22.923  42.848  13.745  1.00  0.00     0.020 C 
HETATM   36  C24 UNL     1      23.438  42.241  12.458  1.00  0.00     0.003 C 
HETATM   37  C25 UNL     1      23.281  40.764  12.546  1.00  0.00     0.020 C 
HETATM   38  C26 UNL     1      21.977  40.356  13.230  1.00  0.00     0.126 C 
ENDBRANCH   9  33
BRANCH  10  39
HETATM   39  C28 UNL     1      22.258  37.890  16.962  1.00  0.00     0.275 C 
HETATM   40  O5  UNL     1      22.254  37.711  15.697  1.00  0.00    -0.266 OA
HETATM   41  N8  UNL     1      22.478  36.750  17.753  1.00  0.00    -0.298 N 
HETATM   42  C29 UNL     1      22.395  35.556  17.308  1.00  0.00     0.203 C 
ATOM     43  H8  UNL     1      22.715  36.883  18.736  1.00  0.00     0.171 HD
HETATM   44  N9  UNL     1      22.070  35.226  15.949  1.00  0.00    -0.066 NA
HETATM   45  N10 UNL     1      22.648  34.495  18.236  1.00  0.00    -0.066 NA
ENDBRANCH  10  39
BRANCH   1  46
HETATM   46  C3  UNL     1      24.459  40.071  18.026  1.00  0.00     0.149 C 
BRANCH  46  47
HETATM   47  N1  UNL     1      25.534  40.909  17.799  1.00  0.00    -0.370 N 
HETATM   48  C1  UNL     1      25.910  41.808  16.757  1.00  0.00     0.151 C 
HETATM   49  C2  UNL     1      26.583  40.876  18.905  1.00  0.00     0.151 C 
ENDBRANCH  46  47
BRANCH  46  50
HETATM   50  O1  UNL     1      24.953  38.829  18.294  1.00  0.00    -0.346 OA
ATOM     51  H1  UNL     1      24.766  38.277  17.545  1.00  0.00     0.219 HD
ENDBRANCH  46  50
ENDBRANCH   1  46
TORSDOF 15
ENDMDL
MODEL 2
REMARK VINA RESULT: -7.098369175      0.885      1.054
REMARK  15 active torsions:
REMARK  status: ('A' for Active; 'I' for Inactive)
REMARK    1  A    between atoms: N1_2  and  C3_4 
REMARK    2  A    between atoms: C3_4  and  O1_5 
REMARK    3  A    between atoms: C3_4  and  C4_7 
REMARK    4  A    between atoms: C10_13  and  C11_14 
REMARK       I    between atoms: C11_14  and  N2_16 
REMARK       I    between atoms: N2_16  and  C12_18 
REMARK    5  A    between atoms: C12_18  and  C13_20 
REMARK    6  A    between atoms: C13_20  and  C14_21 
REMARK    7  A    between atoms: C14_21  and  C15_22 
REMARK    8  A    between atoms: C15_22  and  C16_23 
REMARK    9  A    between atoms: C16_23  and  C17_24 
REMARK   10  A    between atoms: C17_24  and  C18_25 
REMARK   11  A    between atoms: C18_25  and  C19_26 
REMARK   12  A    between atoms: C19_26  and  N3_27 
REMARK       I    between atoms: N3_27  and  C20_29 
REMARK   13  A    between atoms: C21_35  and  O4_36 
REMARK   14  A    between atoms: C21_35  and  N7_38 
REMARK   15  A    between atoms: C27_44  and  C28_45 
REMARK       I    between atoms: C28_45  and  N8_47 
ROOT
HETATM    1  C4  UNL     1      22.676  39.859  18.102  1.00  0.00     0.043 C 
HETATM    2  C5  UNL     1      22.288  41.002  18.799  1.00  0.00    -0.008 C 
HETATM    3  C6  UNL     1      20.989  41.583  19.061  1.00  0.00     0.036 C 
HETATM    4  C7  UNL     1      19.781  40.692  18.959  1.00  0.00     0.027 C 
HETATM    5  C8  UNL     1      18.551  41.637  18.897  1.00  0.00     0.011 C 
HETATM    6  C9  UNL     1      18.834  41.639  17.374  1.00  0.00     0.042 C 
HETATM    7  C10 UNL     1      19.424  40.312  17.568  1.00  0.00     0.126 C 
HETATM    8  N6  UNL     1      20.673  39.962  16.804  1.00  0.00    -0.288 N 
HETATM    9  C21 UNL     1      20.776  40.447  15.533  1.00  0.00     0.223 C 
HETATM   10  C27 UNL     1      21.589  39.071  17.540  1.00  0.00     0.121 C 
ENDROOT
BRANCH   7  11
HETATM   11  C11 UNL     1      18.467  39.190  17.474  1.00  0.00     0.253 C 
HETATM   12  O2  UNL     1      17.490  39.366  16.664  1.00  0.00    -0.270 OA
HETATM   13  N2  UNL     1      18.558  37.985  18.189  1.00  0.00    -0.295 N 
HETATM   14  C12 UNL     1      17.614  36.944  18.078  1.00  0.00     0.224 C 
ATOM     15  H2  UNL     1      19.348  37.857  18.821  1.00  0.00     0.171 HD
HETATM   16  O3  UNL     1      17.878  35.863  18.728  1.00  0.00    -0.273 OA
BRANCH  14  17
HETATM   17  C13 UNL     1      16.396  37.072  17.277  1.00  0.00     0.103 C 
BRANCH  17  18
HETATM   18  C14 UNL     1      16.323  36.135  16.101  1.00  0.00     0.009 C 
BRANCH  18  19
HETATM   19  C15 UNL     1      15.472  34.939  16.319  1.00  0.00     0.000 C 
BRANCH  19  20
HETATM   20  C16 UNL     1      15.803  33.817  15.335  1.00  0.00     0.000 C 
BRANCH  20  21
HETATM   21  C17 UNL     1      16.998  33.080  15.877  1.00  0.00     0.002 C 
BRANCH  21  22
HETATM   22  C18 UNL     1      18.130  33.004  14.886  1.00  0.00     0.020 C 
BRANCH  22  23
HETATM   23  C19 UNL     1      19.372  33.537  15.532  1.00  0.00     0.122 C 
BRANCH  23  24
HETATM   24  N3  UNL     1      19.793  32.746  16.658  1.00  0.00    -0.365 N 
HETATM   25  C20 UNL     1      20.790  31.757  16.535  1.00  0.00     0.181 C 
HETATM   26  N4  UNL     1      21.975  31.905  17.013  1.00  0.00    -0.374 N 
HETATM   27  N5  UNL     1      20.545  30.520  15.856  1.00  0.00    -0.064 NA
ATOM     28  H42 UNL     1      22.149  32.786  17.497  1.00  0.00     0.158 HD
ATOM     29  H41 UNL     1      22.695  31.189  16.924  1.00  0.00     0.158 HD
ATOM     30  H3  UNL     1      19.359  32.905  17.567  1.00  0.00     0.162 HD
ENDBRANCH  23  24
ENDBRANCH  22  23
ENDBRANCH  21  22
ENDBRANCH  20  21
ENDBRANCH  19  20
ENDBRANCH  18  19
ENDBRANCH  17  18
ENDBRANCH  14  17
ENDBRANCH   7  11
BRANCH   9  31
HETATM   31  O4  UNL     1      19.618  41.028  15.151  1.00  0.00    -0.332 OA
ATOM     32  H4  UNL     1      19.227  40.551  14.428  1.00  0.00     0.221 HD
ENDBRANCH   9  31
BRANCH   9  33
HETATM   33  N7  UNL     1      21.709  40.530  14.513  1.00  0.00    -0.347 N 
HETATM   34  C22 UNL     1      23.008  41.204  14.835  1.00  0.00     0.126 C 
HETATM   35  C23 UNL     1      23.200  42.244  13.755  1.00  0.00     0.020 C 
HETATM   36  C24 UNL     1      23.579  41.566  12.456  1.00  0.00     0.003 C 
HETATM   37  C25 UNL     1      23.082  40.164  12.502  1.00  0.00     0.020 C 
HETATM   38  C26 UNL     1      21.709  40.054  13.162  1.00  0.00     0.126 C 
ENDBRANCH   9  33
BRANCH  10  39
HETATM   39  C28 UNL     1      21.645  37.717  17.112  1.00  0.00     0.275 C 
HETATM   40  O5  UNL     1      21.125  36.805  17.840  1.00  0.00    -0.266 OA
HETATM   41  N8  UNL     1      22.242  37.293  15.913  1.00  0.00    -0.298 N 
HETATM   42  C29 UNL     1      22.529  36.075  15.660  1.00  0.00     0.203 C 
ATOM     43  H8  UNL     1      22.457  37.997  15.206  1.00  0.00     0.171 HD
HETATM   44  N9  UNL     1      22.281  34.987  16.562  1.00  0.00    -0.066 NA
HETATM   45  N10 UNL     1      23.135  35.798  14.392  1.00  0.00    -0.066 NA
ENDBRANCH  10  39
BRANCH   1  46
HETATM   46  C3  UNL     1      24.075  39.675  18.105  1.00  0.00     0.149 C 
BRANCH  46  47
HETATM   47  N1  UNL     1      25.258  40.391  18.092  1.00  0.00    -0.370 N 
HETATM   48  C1  UNL     1      25.763  41.492  17.340  1.00  0.00     0.151 C 
HETATM   49  C2  UNL     1      26.283  39.899  19.108  1.00  0.00     0.151 C 
ENDBRANCH  46  47
BRANCH  46  50
HETATM   50  O1  UNL     1      24.393  38.351  18.130  1.00  0.00    -0.346 OA
ATOM     51  H1  UNL     1      23.776  37.917  18.707  1.00  0.00     0.219 HD
ENDBRANCH  46  50
ENDBRANCH   1  46
TORSDOF 15
ENDMDL
MODEL 3
REMARK VINA RESULT: -7.017127720     11.098     16.469
REMARK  15 active torsions:
REMARK  status: ('A' for Active; 'I' for Inactive)
REMARK    1  A    between atoms: N1_2  and  C3_4 
REMARK    2  A    between atoms: C3_4  and  O1_5 
REMARK    3  A    between atoms: C3_4  and  C4_7 
REMARK    4  A    between atoms: C10_13  and  C11_14 
REMARK       I    between atoms: C11_14  and  N2_16 
REMARK       I    between atoms: N2_16  and  C12_18 
REMARK    5  A    between atoms: C12_18  and  C13_20 
REMARK    6  A    between atoms: C13_20  and  C14_21 
REMARK    7  A    between atoms: C14_21  and  C15_22 
REMARK    8  A    between atoms: C15_22  and  C16_23 
REMARK    9  A    between atoms: C16_23  and  C17_24 
REMARK   10  A    between atoms: C17_24  and  C18_25 
REMARK   11  A    between atoms: C18_25  and  C19_26 
REMARK   12  A    between atoms: C19_26  and  N3_27 
REMARK       I    between atoms: N3_27  and  C20_29 
REMARK   13  A    between atoms: C21_35  and  O4_36 
REMARK   14  A    between atoms: C21_35  and  N7_38 
REMARK   15  A    between atoms: C27_44  and  C28_45 
REMARK       I    between atoms: C28_45  and  N8_47 
ROOT
HETATM    1  C4  UNL     1      18.371  24.298   6.818  1.00  0.00     0.043 C 
HETATM    2  C5  UNL     1      18.774  23.333   5.896  1.00  0.00    -0.008 C 
HETATM    3  C6  UNL     1      20.073  22.985   5.363  1.00  0.00     0.036 C 
HETATM    4  C7  UNL     1      21.291  23.386   6.148  1.00  0.00     0.027 C 
HETATM    5  C8  UNL     1      22.496  23.245   5.179  1.00  0.00     0.011 C 
HETATM    6  C9  UNL     1      22.128  24.694   4.772  1.00  0.00     0.042 C 
HETATM    7  C10 UNL     1      21.577  24.843   6.121  1.00  0.00     0.126 C 
HETATM    8  N6  UNL     1      20.296  25.613   6.293  1.00  0.00    -0.288 N 
HETATM    9  C21 UNL     1      20.112  26.695   5.484  1.00  0.00     0.223 C 
HETATM   10  C27 UNL     1      19.441  25.107   7.383  1.00  0.00     0.121 C 
ENDROOT
BRANCH   7  11
HETATM   11  C11 UNL     1      22.552  25.288   7.140  1.00  0.00     0.253 C 
HETATM   12  O2  UNL     1      23.572  25.916   6.689  1.00  0.00    -0.270 OA
HETATM   13  N2  UNL     1      22.432  25.074   8.522  1.00  0.00    -0.295 N 
HETATM   14  C12 UNL     1      23.392  25.505   9.461  1.00  0.00     0.224 C 
ATOM     15  H2  UNL     1      21.607  24.582   8.866  1.00  0.00     0.171 HD
HETATM   16  O3  UNL     1      23.103  25.317  10.702  1.00  0.00    -0.273 OA
BRANCH  14  17
HETATM   17  C13 UNL     1      24.654  26.129   9.059  1.00  0.00     0.103 C 
BRANCH  17  18
HETATM   18  C14 UNL     1      25.027  27.350   9.859  1.00  0.00     0.009 C 
BRANCH  18  19
HETATM   19  C15 UNL     1      26.060  27.112  10.897  1.00  0.00     0.000 C 
BRANCH  19  20
HETATM   20  C16 UNL     1      25.818  27.961  12.146  1.00  0.00     0.000 C 
BRANCH  20  21
HETATM   21  C17 UNL     1      24.765  28.979  11.802  1.00  0.00     0.002 C 
BRANCH  21  22
HETATM   22  C18 UNL     1      23.680  29.065  12.845  1.00  0.00     0.020 C 
BRANCH  22  23
HETATM   23  C19 UNL     1      22.352  29.139  12.154  1.00  0.00     0.122 C 
BRANCH  23  24
HETATM   24  N3  UNL     1      21.305  29.614  13.017  1.00  0.00    -0.365 N 
HETATM   25  C20 UNL     1      20.265  30.436  12.534  1.00  0.00     0.181 C 
HETATM   26  N4  UNL     1      19.063  30.008  12.376  1.00  0.00    -0.374 N 
HETATM   27  N5  UNL     1      20.489  31.805  12.180  1.00  0.00    -0.064 NA
ATOM     28  H42 UNL     1      18.904  29.032  12.629  1.00  0.00     0.158 HD
ATOM     29  H41 UNL     1      18.311  30.602  12.027  1.00  0.00     0.158 HD
ATOM     30  H3  UNL     1      21.315  29.351  14.003  1.00  0.00     0.162 HD
ENDBRANCH  23  24
ENDBRANCH  22  23
ENDBRANCH  21  22
ENDBRANCH  20  21
ENDBRANCH  19  20
ENDBRANCH  18  19
ENDBRANCH  17  18
ENDBRANCH  14  17
ENDBRANCH   7  11
BRANCH   9  31
HETATM   31  O4  UNL     1      21.234  26.958   4.780  1.00  0.00    -0.332 OA
ATOM     32  H4  UNL     1      21.030  27.466   4.002  1.00  0.00     0.221 HD
ENDBRANCH   9  31
BRANCH   9  33
HETATM   33  N7  UNL     1      19.122  27.607   5.159  1.00  0.00    -0.347 N 
HETATM   34  C22 UNL     1      17.929  27.079   4.420  1.00  0.00     0.126 C 
HETATM   35  C23 UNL     1      17.772  27.979   3.215  1.00  0.00     0.020 C 
HETATM   36  C24 UNL     1      17.229  29.323   3.649  1.00  0.00     0.003 C 
HETATM   37  C25 UNL     1      17.575  29.522   5.083  1.00  0.00     0.020 C 
HETATM   38  C26 UNL     1      18.972  29.007   5.422  1.00  0.00     0.126 C 
ENDBRANCH   9  33
BRANCH  10  39
HETATM   39  C28 UNL     1      19.390  25.887   8.571  1.00  0.00     0.275 C 
HETATM   40  O5  UNL     1      19.999  25.480   9.617  1.00  0.00    -0.266 OA
HETATM   41  N8  UNL     1      18.703  27.108   8.682  1.00  0.00    -0.298 N 
HETATM   42  C29 UNL     1      18.432  27.665   9.798  1.00  0.00     0.203 C 
ATOM     43  H8  UNL     1      18.405  27.573   7.825  1.00  0.00     0.171 HD
HETATM   44  N9  UNL     1      18.792  27.120  11.077  1.00  0.00    -0.066 NA
HETATM   45  N10 UNL     1      17.727  28.910   9.751  1.00  0.00    -0.066 NA
ENDBRANCH  10  39
BRANCH   1  46
HETATM   46  C3  UNL     1      16.978  24.279   7.045  1.00  0.00     0.149 C 
BRANCH  46  47
HETATM   47  N1  UNL     1      15.777  24.129   6.376  1.00  0.00    -0.370 N 
HETATM   48  C1  UNL     1      15.134  24.801   5.295  1.00  0.00     0.151 C 
HETATM   49  C2  UNL     1      14.918  22.988   6.909  1.00  0.00     0.151 C 
ENDBRANCH  46  47
BRANCH  46  50
HETATM   50  O1  UNL     1      16.696  24.467   8.364  1.00  0.00    -0.346 OA
ATOM     51  H1  UNL     1      16.685  23.614   8.781  1.00  0.00     0.219 HD
ENDBRANCH  46  50
ENDBRANCH   1  46
TORSDOF 15
ENDMDL
MODEL 4
REMARK VINA RESULT: -6.855465786      2.609      6.342
REMARK  15 active torsions:
REMARK  status: ('A' for Active; 'I' for Inactive)
REMARK    1  A    between atoms: N1_2  and  C3_4 
REMARK    2  A    between atoms: C3_4  and  O1_5 
REMARK    3  A    between atoms: C3_4  and  C4_7 
REMARK    4  A    between atoms: C10_13  and  C11_14 
REMARK       I    between atoms: C11_14  and  N2_16 
REMARK       I    between atoms: N2_16  and  C12_18 
REMARK    5  A    between atoms: C12_18  and  C13_20 
REMARK    6  A    between atoms: C13_20  and  C14_21 
REMARK    7  A    between atoms: C14_21  and  C15_22 
REMARK    8  A    between atoms: C15_22  and  C16_23 
REMARK    9  A    between atoms: C16_23  and  C17_24 
REMARK   10  A    between atoms: C17_24  and  C18_25 
REMARK   11  A    between atoms: C18_25  and  C19_26 
REMARK   12  A    between atoms: C19_26  and  N3_27 
REMARK       I    between atoms: N3_27  and  C20_29 
REMARK   13  A    between atoms: C21_35  and  O4_36 
REMARK   14  A    between atoms: C21_35  and  N7_38 
REMARK   15  A    between atoms: C27_44  and  C28_45 
REMARK       I    between atoms: C28_45  and  N8_47 
ROOT
HETATM    1  C4  UNL     1      18.106  41.779  17.034  1.00  0.00     0.043 C 
HETATM    2  C5  UNL     1      18.864  42.883  16.646  1.00  0.00    -0.008 C 
HETATM    3  C6  UNL     1      20.288  43.065  16.462  1.00  0.00     0.036 C 
HETATM    4  C7  UNL     1      21.134  41.842  16.236  1.00  0.00     0.027 C 
HETATM    5  C8  UNL     1      22.604  42.285  16.466  1.00  0.00     0.011 C 
HETATM    6  C9  UNL     1      22.300  41.954  17.949  1.00  0.00     0.042 C 
HETATM    7  C10 UNL     1      21.312  40.996  17.445  1.00  0.00     0.126 C 
HETATM    8  N6  UNL     1      20.000  40.868  18.170  1.00  0.00    -0.288 N 
HETATM    9  C21 UNL     1      20.031  40.988  19.528  1.00  0.00     0.223 C 
HETATM   10  C27 UNL     1      18.860  40.561  17.286  1.00  0.00     0.121 C 
ENDROOT
BRANCH   7  11
HETATM   11  C11 UNL     1      21.847  39.647  17.166  1.00  0.00     0.253 C 
HETATM   12  O2  UNL     1      22.316  39.020  18.178  1.00  0.00    -0.270 OA
HETATM   13  N2  UNL     1      21.869  39.029  15.905  1.00  0.00    -0.295 N 
HETATM   14  C12 UNL     1      22.401  37.742  15.680  1.00  0.00     0.224 C 
ATOM     15  H2  UNL     1      21.481  39.538  15.110  1.00  0.00     0.171 HD
HETATM   16  O3  UNL     1      22.270  37.271  14.488  1.00  0.00    -0.273 OA
BRANCH  14  17
HETATM   17  C13 UNL     1      23.069  36.976  16.732  1.00  0.00     0.103 C 
BRANCH  17  18
HETATM   18  C14 UNL     1      22.414  35.659  17.055  1.00  0.00     0.009 C 
BRANCH  18  19
HETATM   19  C15 UNL     1      22.962  34.501  16.305  1.00  0.00     0.000 C 
BRANCH  19  20
HETATM   20  C16 UNL     1      21.925  33.894  15.360  1.00  0.00     0.000 C 
BRANCH  20  21
HETATM   21  C17 UNL     1      20.569  34.349  15.825  1.00  0.00     0.002 C 
BRANCH  21  22
HETATM   22  C18 UNL     1      19.736  33.220  16.377  1.00  0.00     0.020 C 
BRANCH  22  23
HETATM   23  C19 UNL     1      18.288  33.586  16.255  1.00  0.00     0.122 C 
BRANCH  23  24
HETATM   24  N3  UNL     1      18.037  34.493  15.168  1.00  0.00    -0.365 N 
HETATM   25  C20 UNL     1      16.742  34.983  14.899  1.00  0.00     0.181 C 
HETATM   26  N4  UNL     1      16.397  36.197  15.146  1.00  0.00    -0.374 N 
HETATM   27  N5  UNL     1      15.721  34.150  14.338  1.00  0.00    -0.064 NA
ATOM     28  H42 UNL     1      17.124  36.791  15.546  1.00  0.00     0.158 HD
ATOM     29  H41 UNL     1      15.460  36.552  14.952  1.00  0.00     0.158 HD
ATOM     30  H3  UNL     1      18.813  34.788  14.577  1.00  0.00     0.162 HD
ENDBRANCH  23  24
ENDBRANCH  22  23
ENDBRANCH  21  22
ENDBRANCH  20  21
ENDBRANCH  19  20
ENDBRANCH  18  19
ENDBRANCH  17  18
ENDBRANCH  14  17
ENDBRANCH   7  11
BRANCH   9  31
HETATM   31  O4  UNL     1      21.306  41.035  19.972  1.00  0.00    -0.332 OA
ATOM     32  H4  UNL     1      21.329  41.070  20.922  1.00  0.00     0.221 HD
ENDBRANCH   9  31
BRANCH   9  33
HETATM   33  N7  UNL     1      19.152  41.079  20.595  1.00  0.00    -0.347 N 
HETATM   34  C22 UNL     1      19.664  41.737  21.841  1.00  0.00     0.126 C 
HETATM   35  C23 UNL     1      19.365  40.765  22.960  1.00  0.00     0.020 C 
HETATM   36  C24 UNL     1      17.882  40.771  23.259  1.00  0.00     0.003 C 
HETATM   37  C25 UNL     1      17.165  41.237  22.040  1.00  0.00     0.020 C 
HETATM   38  C26 UNL     1      17.783  40.690  20.755  1.00  0.00     0.126 C 
ENDBRANCH   9  33
BRANCH  10  39
HETATM   39  C28 UNL     1      18.354  39.233  17.334  1.00  0.00     0.275 C 
HETATM   40  O5  UNL     1      17.213  38.976  16.821  1.00  0.00    -0.266 OA
HETATM   41  N8  UNL     1      19.034  38.152  17.918  1.00  0.00    -0.298 N 
HETATM   42  C29 UNL     1      18.478  37.038  18.201  1.00  0.00     0.203 C 
ATOM     43  H8  UNL     1      20.026  38.262  18.127  1.00  0.00     0.171 HD
HETATM   44  N9  UNL     1      17.092  36.748  17.960  1.00  0.00    -0.066 NA
HETATM   45  N10 UNL     1      19.303  36.028  18.792  1.00  0.00    -0.066 NA
ENDBRANCH  10  39
BRANCH   1  46
HETATM   46  C3  UNL     1      16.724  42.064  17.079  1.00  0.00     0.149 C 
BRANCH  46  47
HETATM   47  N1  UNL     1      15.754  42.577  17.919  1.00  0.00    -0.370 N 
HETATM   48  C1  UNL     1      15.349  43.888  18.309  1.00  0.00     0.151 C 
HETATM   49  C2  UNL     1      14.914  41.509  18.609  1.00  0.00     0.151 C 
ENDBRANCH  46  47
BRANCH  46  50
HETATM   50  O1  UNL     1      16.119  41.729  15.905  1.00  0.00    -0.346 OA
ATOM     51  H1  UNL     1      16.555  40.957  15.566  1.00  0.00     0.219 HD
ENDBRANCH  46  50
ENDBRANCH   1  46
TORSDOF 15
ENDMDL
MODEL 5
REMARK VINA RESULT: -6.696588662      2.666      6.243
REMARK  15 active torsions:
REMARK  status: ('A' for Active; 'I' for Inactive)
REMARK    1  A    between atoms: N1_2  and  C3_4 
REMARK    2  A    between atoms: C3_4  and  O1_5 
REMARK    3  A    between atoms: C3_4  and  C4_7 
REMARK    4  A    between atoms: C10_13  and  C11_14 
REMARK       I    between atoms: C11_14  and  N2_16 
REMARK       I    between atoms: N2_16  and  C12_18 
REMARK    5  A    between atoms: C12_18  and  C13_20 
REMARK    6  A    between atoms: C13_20  and  C14_21 
REMARK    7  A    between atoms: C14_21  and  C15_22 
REMARK    8  A    between atoms: C15_22  and  C16_23 
REMARK    9  A    between atoms: C16_23  and  C17_24 
REMARK   10  A    between atoms: C17_24  and  C18_25 
REMARK   11  A    between atoms: C18_25  and  C19_26 
REMARK   12  A    between atoms: C19_26  and  N3_27 
REMARK       I    between atoms: N3_27  and  C20_29 
REMARK   13  A    between atoms: C21_35  and  O4_36 
REMARK   14  A    between atoms: C21_35  and  N7_38 
REMARK   15  A    between atoms: C27_44  and  C28_45 
REMARK       I    between atoms: C28_45  and  N8_47 
ROOT
HETATM    1  C4  UNL     1      18.161  42.268  17.018  1.00  0.00     0.043 C 
HETATM    2  C5  UNL     1      18.998  43.315  16.636  1.00  0.00    -0.008 C 
HETATM    3  C6  UNL     1      20.420  43.374  16.374  1.00  0.00     0.036 C 
HETATM    4  C7  UNL     1      21.131  42.091  16.042  1.00  0.00     0.027 C 
HETATM    5  C8  UNL     1      22.648  42.384  16.202  1.00  0.00     0.011 C 
HETATM    6  C9  UNL     1      22.397  42.007  17.683  1.00  0.00     0.042 C 
HETATM    7  C10 UNL     1      21.296  41.172  17.197  1.00  0.00     0.126 C 
HETATM    8  N6  UNL     1      20.021  41.129  17.994  1.00  0.00    -0.288 N 
HETATM    9  C21 UNL     1      20.139  41.175  19.352  1.00  0.00     0.223 C 
HETATM   10  C27 UNL     1      18.809  40.974  17.168  1.00  0.00     0.121 C 
ENDROOT
BRANCH   7  11
HETATM   11  C11 UNL     1      21.683  39.795  16.825  1.00  0.00     0.253 C 
HETATM   12  O2  UNL     1      21.309  39.413  15.662  1.00  0.00    -0.270 OA
HETATM   13  N2  UNL     1      22.412  38.911  17.637  1.00  0.00    -0.295 N 
HETATM   14  C12 UNL     1      22.750  37.599  17.247  1.00  0.00     0.224 C 
ATOM     15  H2  UNL     1      22.712  39.235  18.556  1.00  0.00     0.171 HD
HETATM   16  O3  UNL     1      23.498  36.936  18.060  1.00  0.00    -0.273 OA
BRANCH  14  17
HETATM   17  C13 UNL     1      22.280  37.009  15.993  1.00  0.00     0.103 C 
BRANCH  17  18
HETATM   18  C14 UNL     1      23.197  35.962  15.416  1.00  0.00     0.009 C 
BRANCH  18  19
HETATM   19  C15 UNL     1      22.622  34.594  15.381  1.00  0.00     0.000 C 
BRANCH  19  20
HETATM   20  C16 UNL     1      22.833  33.854  16.702  1.00  0.00     0.000 C 
BRANCH  20  21
HETATM   21  C17 UNL     1      22.441  32.418  16.482  1.00  0.00     0.002 C 
BRANCH  21  22
HETATM   22  C18 UNL     1      21.193  32.278  15.649  1.00  0.00     0.020 C 
BRANCH  22  23
HETATM   23  C19 UNL     1      20.242  31.361  16.356  1.00  0.00     0.122 C 
BRANCH  23  24
HETATM   24  N3  UNL     1      20.658  29.986  16.302  1.00  0.00    -0.365 N 
HETATM   25  C20 UNL     1      20.886  29.330  15.074  1.00  0.00     0.181 C 
HETATM   26  N4  UNL     1      22.066  29.035  14.657  1.00  0.00    -0.374 N 
HETATM   27  N5  UNL     1      19.810  28.959  14.206  1.00  0.00    -0.064 NA
ATOM     28  H42 UNL     1      22.833  29.300  15.276  1.00  0.00     0.158 HD
ATOM     29  H41 UNL     1      22.231  28.561  13.769  1.00  0.00     0.158 HD
ATOM     30  H3  UNL     1      20.790  29.471  17.173  1.00  0.00     0.162 HD
ENDBRANCH  23  24
ENDBRANCH  22  23
ENDBRANCH  21  22
ENDBRANCH  20  21
ENDBRANCH  19  20
ENDBRANCH  18  19
ENDBRANCH  17  18
ENDBRANCH  14  17
ENDBRANCH   7  11
BRANCH   9  31
HETATM   31  O4  UNL     1      21.436  41.082  19.720  1.00  0.00    -0.332 OA
ATOM     32  H4  UNL     1      21.858  41.932  19.675  1.00  0.00     0.221 HD
ENDBRANCH   9  31
BRANCH   9  33
HETATM   33  N7  UNL     1      19.334  41.293  20.473  1.00  0.00    -0.347 N 
HETATM   34  C22 UNL     1      19.965  41.871  21.703  1.00  0.00     0.126 C 
HETATM   35  C23 UNL     1      19.665  40.887  22.810  1.00  0.00     0.020 C 
HETATM   36  C24 UNL     1      18.206  40.987  23.201  1.00  0.00     0.003 C 
HETATM   37  C25 UNL     1      17.453  41.542  22.043  1.00  0.00     0.020 C 
HETATM   38  C26 UNL     1      17.952  40.996  20.707  1.00  0.00     0.126 C 
ENDBRANCH   9  33
BRANCH  10  39
HETATM   39  C28 UNL     1      18.181  39.698  17.187  1.00  0.00     0.275 C 
HETATM   40  O5  UNL     1      16.944  39.601  16.886  1.00  0.00    -0.266 OA
HETATM   41  N8  UNL     1      18.840  38.502  17.518  1.00  0.00    -0.298 N 
HETATM   42  C29 UNL     1      18.230  37.415  17.795  1.00  0.00     0.203 C 
ATOM     43  H8  UNL     1      19.860  38.502  17.537  1.00  0.00     0.171 HD
HETATM   44  N9  UNL     1      16.801  37.275  17.805  1.00  0.00    -0.066 NA
HETATM   45  N10 UNL     1      19.039  36.276  18.113  1.00  0.00    -0.066 NA
ENDBRANCH  10  39
BRANCH   1  46
HETATM   46  C3  UNL     1      16.817  42.677  17.160  1.00  0.00     0.149 C 
BRANCH  46  47
HETATM   47  N1  UNL     1      15.965  43.294  18.056  1.00  0.00    -0.370 N 
HETATM   48  C1  UNL     1      15.752  44.638  18.483  1.00  0.00     0.151 C 
HETATM   49  C2  UNL     1      15.030  42.330  18.777  1.00  0.00     0.151 C 
ENDBRANCH  46  47
BRANCH  46  50
HETATM   50  O1  UNL     1      16.095  42.371  16.046  1.00  0.00    -0.346 OA
ATOM     51  H1  UNL     1      15.192  42.617  16.211  1.00  0.00     0.219 HD
ENDBRANCH  46  50
ENDBRANCH   1  46
TORSDOF 15
ENDMDL
