MODEL 1
REMARK VINA RESULT: -8.297592804      0.000      0.000
REMARK  12 active torsions:
REMARK  status: ('A' for Active; 'I' for Inactive)
REMARK    1  A    between atoms: C2_2  and  C3_3 
REMARK    2  A    between atoms: C3_3  and  C4_4 
REMARK    3  A    between atoms: C4_4  and  C5_5 
REMARK    4  A    between atoms: C5_5  and  N1_6 
REMARK    5  A    between atoms: C5_5  and  C8_15 
REMARK    6  A    between atoms: N1_6  and  S1_8 
REMARK    7  A    between atoms: S1_8  and  C6_11 
REMARK    8  A    between atoms: C6_11  and  C7_12 
REMARK    9  A    between atoms: C8_15  and  N3_16 
REMARK   10  A    between atoms: C8_15  and  C10_21 
REMARK       I    between atoms: C10_21  and  N6_23 
REMARK       I    between atoms: N6_23  and  C11_24 
REMARK       I    between atoms: C11_24  and  N7_25 
REMARK       I    between atoms: C11_24  and  N10_41 
REMARK       I    between atoms: C12_27  and  N9_29 
REMARK   11  A    between atoms: N9_29  and  C14_31 
REMARK   12  A    between atoms: N10_41  and  N11_43 
ROOT
HETATM    1  C10 UNL     1      19.329  35.733  17.933  1.00  0.00     0.319 C 
HETATM    2  O4  UNL     1      19.173  35.414  19.128  1.00  0.00    -0.255 OA
HETATM    3  N6  UNL     1      19.478  37.057  17.636  1.00  0.00    -0.332 NA
HETATM    4  C11 UNL     1      19.392  38.225  17.677  1.00  0.00     0.285 C 
HETATM    5  N7  UNL     1      20.074  39.026  16.667  1.00  0.00    -0.289 N 
ATOM      6  H7  UNL     1      19.540  39.373  15.869  1.00  0.00     0.172 HD
HETATM    7  C12 UNL     1      21.315  39.307  16.748  1.00  0.00     0.194 C 
HETATM    8  N8  UNL     1      22.033  38.808  17.879  1.00  0.00    -0.063 NA
HETATM    9  N9  UNL     1      21.934  40.068  15.714  1.00  0.00    -0.350 N 
HETATM   10  C13 UNL     1      22.010  39.364  14.422  1.00  0.00     0.153 C 
HETATM   11  N10 UNL     1      18.685  38.986  18.643  1.00  0.00    -0.175 N 
ATOM     12  H10 UNL     1      19.164  39.150  19.528  1.00  0.00     0.198 HD
ENDROOT
BRANCH   1  13
HETATM   13  C8  UNL     1      19.370  34.766  16.853  1.00  0.00     0.214 C 
BRANCH  13  14
HETATM   14  C5  UNL     1      20.487  33.719  16.781  1.00  0.00     0.126 C 
BRANCH  14  15
HETATM   15  C4  UNL     1      21.811  34.387  16.829  1.00  0.00     0.028 C 
BRANCH  15  16
HETATM   16  C3  UNL     1      22.879  33.756  16.002  1.00  0.00     0.002 C 
BRANCH  16  17
HETATM   17  C2  UNL     1      23.499  34.752  15.024  1.00  0.00    -0.004 C 
HETATM   18  C1  UNL     1      22.783  36.063  15.023  1.00  0.00     0.005 C 
ENDBRANCH  16  17
ENDBRANCH  15  16
ENDBRANCH  14  15
BRANCH  14  19
HETATM   19  N1  UNL     1      20.278  33.032  15.525  1.00  0.00    -0.312 N 
ATOM     20  H1  UNL     1      20.406  33.543  14.652  1.00  0.00     0.172 HD
BRANCH  19  21
HETATM   21  S1  UNL     1      19.837  31.437  15.471  1.00  0.00     0.235 S 
HETATM   22  O1  UNL     1      18.336  31.205  15.541  1.00  0.00    -0.205 OA
HETATM   23  O2  UNL     1      20.453  30.648  16.666  1.00  0.00    -0.205 OA
BRANCH  21  24
HETATM   24  C6  UNL     1      20.398  30.555  14.054  1.00  0.00     0.262 C 
BRANCH  24  25
HETATM   25  C7  UNL     1      19.889  30.948  12.754  1.00  0.00     0.246 C 
HETATM   26  N2  UNL     1      20.246  32.245  12.243  1.00  0.00    -0.061 NA
HETATM   27  O3  UNL     1      19.147  30.194  12.055  1.00  0.00    -0.276 OA
ENDBRANCH  24  25
ENDBRANCH  21  24
ENDBRANCH  19  21
ENDBRANCH  14  19
ENDBRANCH  13  14
BRANCH  13  28
HETATM   28  N3  UNL     1      18.097  34.114  16.756  1.00  0.00    -0.351 N 
HETATM   29  C9  UNL     1      17.008  34.496  16.280  1.00  0.00     0.197 C 
HETATM   30  N4  UNL     1      15.912  33.549  16.355  1.00  0.00    -0.067 NA
HETATM   31  N5  UNL     1      16.690  35.737  15.697  1.00  0.00    -0.067 NA
ATOM     32  H3  UNL     1      18.078  33.171  17.143  1.00  0.00     0.162 HD
ENDBRANCH  13  28
ENDBRANCH   1  13
BRANCH  11  33
HETATM   33  N11 UNL     1      17.429  39.527  18.524  1.00  0.00     0.004 N 
HETATM   34  C24 UNL     1      16.583  38.877  17.573  1.00  0.00     0.301 C 
HETATM   35  C25 UNL     1      17.494  40.941  18.099  1.00  0.00     0.301 C 
HETATM   36  C26 UNL     1      16.798  39.500  19.819  1.00  0.00     0.301 C 
ENDBRANCH  11  33
BRANCH   9  37
HETATM   37  C14 UNL     1      22.446  41.384  15.804  1.00  0.00     0.038 C 
HETATM   38  C15 UNL     1      21.347  42.344  16.289  1.00  0.00     0.032 C 
HETATM   39  C16 UNL     1      21.580  43.653  15.550  1.00  0.00     0.011 C 
HETATM   40  C17 UNL     1      22.933  43.470  14.902  1.00  0.00    -0.042 C 
HETATM   41  C18 UNL     1      23.068  44.314  13.681  1.00  0.00     0.015 C 
HETATM   42  C19 UNL     1      23.987  43.803  15.927  1.00  0.00     0.010 C 
HETATM   43  C23 UNL     1      22.906  42.001  14.534  1.00  0.00     0.040 C 
HETATM   44  C20 UNL     1      23.924  42.920  17.134  1.00  0.00     0.007 C 
HETATM   45  C21 UNL     1      23.542  41.502  16.838  1.00  0.00     0.010 C 
HETATM   46  C22 UNL     1      24.747  40.688  16.440  1.00  0.00     0.012 C 
ENDBRANCH   9  37
TORSDOF 12
ENDMDL
MODEL 2
REMARK VINA RESULT: -8.184575029      1.381      2.907
REMARK  12 active torsions:
REMARK  status: ('A' for Active; 'I' for Inactive)
REMARK    1  A    between atoms: C2_2  and  C3_3 
REMARK    2  A    between atoms: C3_3  and  C4_4 
REMARK    3  A    between atoms: C4_4  and  C5_5 
REMARK    4  A    between atoms: C5_5  and  N1_6 
REMARK    5  A    between atoms: C5_5  and  C8_15 
REMARK    6  A    between atoms: N1_6  and  S1_8 
REMARK    7  A    between atoms: S1_8  and  C6_11 
REMARK    8  A    between atoms: C6_11  and  C7_12 
REMARK    9  A    between atoms: C8_15  and  N3_16 
REMARK   10  A    between atoms: C8_15  and  C10_21 
REMARK       I    between atoms: C10_21  and  N6_23 
REMARK       I    between atoms: N6_23  and  C11_24 
REMARK       I    between atoms: C11_24  and  N7_25 
REMARK       I    between atoms: C11_24  and  N10_41 
REMARK       I    between atoms: C12_27  and  N9_29 
REMARK   11  A    between atoms: N9_29  and  C14_31 
REMARK   12  A    between atoms: N10_41  and  N11_43 
ROOT
HETATM    1  C10 UNL     1      19.670  35.777  17.970  1.00  0.00     0.319 C 
HETATM    2  O4  UNL     1      19.496  35.477  19.167  1.00  0.00    -0.255 OA
HETATM    3  N6  UNL     1      19.729  37.101  17.642  1.00  0.00    -0.332 NA
HETATM    4  C11 UNL     1      19.553  38.259  17.648  1.00  0.00     0.285 C 
HETATM    5  N7  UNL     1      20.208  39.085  16.639  1.00  0.00    -0.289 N 
ATOM      6  H7  UNL     1      19.679  39.370  15.815  1.00  0.00     0.172 HD
HETATM    7  C12 UNL     1      21.421  39.463  16.755  1.00  0.00     0.194 C 
HETATM    8  N8  UNL     1      22.133  39.048  17.923  1.00  0.00    -0.063 NA
HETATM    9  N9  UNL     1      22.017  40.243  15.722  1.00  0.00    -0.350 N 
HETATM   10  C13 UNL     1      22.192  39.514  14.453  1.00  0.00     0.153 C 
HETATM   11  N10 UNL     1      18.756  38.988  18.568  1.00  0.00    -0.175 N 
ATOM     12  H10 UNL     1      19.189  39.211  19.464  1.00  0.00     0.198 HD
ENDROOT
BRANCH   1  13
HETATM   13  C8  UNL     1      19.823  34.790  16.920  1.00  0.00     0.214 C 
BRANCH  13  14
HETATM   14  C5  UNL     1      18.599  34.234  16.184  1.00  0.00     0.126 C 
BRANCH  14  15
HETATM   15  C4  UNL     1      17.355  34.706  16.841  1.00  0.00     0.028 C 
BRANCH  15  16
HETATM   16  C3  UNL     1      16.364  35.362  15.942  1.00  0.00     0.002 C 
BRANCH  16  17
HETATM   17  C2  UNL     1      16.374  34.746  14.544  1.00  0.00    -0.004 C 
HETATM   18  C1  UNL     1      15.490  33.545  14.449  1.00  0.00     0.005 C 
ENDBRANCH  16  17
ENDBRANCH  15  16
ENDBRANCH  14  15
BRANCH  14  19
HETATM   19  N1  UNL     1      18.734  32.795  16.261  1.00  0.00    -0.312 N 
ATOM     20  H1  UNL     1      18.412  32.310  17.098  1.00  0.00     0.172 HD
BRANCH  19  21
HETATM   21  S1  UNL     1      19.399  31.919  15.024  1.00  0.00     0.235 S 
HETATM   22  O1  UNL     1      20.567  31.040  15.443  1.00  0.00    -0.205 OA
HETATM   23  O2  UNL     1      19.945  32.858  13.905  1.00  0.00    -0.205 OA
BRANCH  21  24
HETATM   24  C6  UNL     1      18.278  30.862  14.171  1.00  0.00     0.262 C 
BRANCH  24  25
HETATM   25  C7  UNL     1      18.820  29.903  13.228  1.00  0.00     0.246 C 
HETATM   26  N2  UNL     1      18.860  28.516  13.609  1.00  0.00    -0.061 NA
HETATM   27  O3  UNL     1      19.255  30.240  12.085  1.00  0.00    -0.276 OA
ENDBRANCH  24  25
ENDBRANCH  21  24
ENDBRANCH  19  21
ENDBRANCH  14  19
ENDBRANCH  13  14
BRANCH  13  28
HETATM   28  N3  UNL     1      20.781  35.261  15.964  1.00  0.00    -0.351 N 
HETATM   29  C9  UNL     1      21.953  34.904  15.725  1.00  0.00     0.197 C 
HETATM   30  N4  UNL     1      22.634  35.621  14.663  1.00  0.00    -0.067 NA
HETATM   31  N5  UNL     1      22.717  33.908  16.362  1.00  0.00    -0.067 NA
ATOM     32  H3  UNL     1      20.446  36.024  15.376  1.00  0.00     0.162 HD
ENDBRANCH  13  28
ENDBRANCH   1  13
BRANCH  11  33
HETATM   33  N11 UNL     1      17.467  39.427  18.391  1.00  0.00     0.004 N 
HETATM   34  C24 UNL     1      16.665  38.610  17.536  1.00  0.00     0.301 C 
HETATM   35  C25 UNL     1      17.442  40.778  17.790  1.00  0.00     0.301 C 
HETATM   36  C26 UNL     1      16.839  39.525  19.684  1.00  0.00     0.301 C 
ENDBRANCH  11  33
BRANCH   9  37
HETATM   37  C14 UNL     1      22.424  41.596  15.792  1.00  0.00     0.038 C 
HETATM   38  C15 UNL     1      21.286  42.458  16.363  1.00  0.00     0.032 C 
HETATM   39  C16 UNL     1      21.359  43.787  15.626  1.00  0.00     0.011 C 
HETATM   40  C17 UNL     1      22.674  43.721  14.884  1.00  0.00    -0.042 C 
HETATM   41  C18 UNL     1      22.655  44.581  13.668  1.00  0.00     0.015 C 
HETATM   42  C19 UNL     1      23.765  44.133  15.840  1.00  0.00     0.010 C 
HETATM   43  C23 UNL     1      22.742  42.257  14.502  1.00  0.00     0.040 C 
HETATM   44  C20 UNL     1      23.860  43.241  17.037  1.00  0.00     0.007 C 
HETATM   45  C21 UNL     1      23.575  41.797  16.750  1.00  0.00     0.010 C 
HETATM   46  C22 UNL     1      24.813  41.088  16.261  1.00  0.00     0.012 C 
ENDBRANCH   9  37
TORSDOF 12
ENDMDL
MODEL 3
REMARK VINA RESULT: -8.071246527      0.524      1.448
REMARK  12 active torsions:
REMARK  status: ('A' for Active; 'I' for Inactive)
REMARK    1  A    between atoms: C2_2  and  C3_3 
REMARK    2  A    between atoms: C3_3  and  C4_4 
REMARK    3  A    between atoms: C4_4  and  C5_5 
REMARK    4  A    between atoms: C5_5  and  N1_6 
REMARK    5  A    between atoms: C5_5  and  C8_15 
REMARK    6  A    between atoms: N1_6  and  S1_8 
REMARK    7  A    between atoms: S1_8  and  C6_11 
REMARK    8  A    between atoms: C6_11  and  C7_12 
REMARK    9  A    between atoms: C8_15  and  N3_16 
REMARK   10  A    between atoms: C8_15  and  C10_21 
REMARK       I    between atoms: C10_21  and  N6_23 
REMARK       I    between atoms: N6_23  and  C11_24 
REMARK       I    between atoms: C11_24  and  N7_25 
REMARK       I    between atoms: C11_24  and  N10_41 
REMARK       I    between atoms: C12_27  and  N9_29 
REMARK   11  A    between atoms: N9_29  and  C14_31 
REMARK   12  A    between atoms: N10_41  and  N11_43 
ROOT
HETATM    1  C10 UNL     1      19.257  35.724  17.941  1.00  0.00     0.319 C 
HETATM    2  O4  UNL     1      19.096  35.426  19.141  1.00  0.00    -0.255 OA
HETATM    3  N6  UNL     1      19.457  37.038  17.628  1.00  0.00    -0.332 NA
HETATM    4  C11 UNL     1      19.419  38.209  17.656  1.00  0.00     0.285 C 
HETATM    5  N7  UNL     1      20.126  38.970  16.632  1.00  0.00    -0.289 N 
ATOM      6  H7  UNL     1      19.601  39.329  15.834  1.00  0.00     0.172 HD
HETATM    7  C12 UNL     1      21.378  39.201  16.702  1.00  0.00     0.194 C 
HETATM    8  N8  UNL     1      22.082  38.686  17.834  1.00  0.00    -0.063 NA
HETATM    9  N9  UNL     1      22.020  39.925  15.656  1.00  0.00    -0.350 N 
HETATM   10  C13 UNL     1      22.058  39.203  14.372  1.00  0.00     0.153 C 
HETATM   11  N10 UNL     1      18.750  39.009  18.618  1.00  0.00    -0.175 N 
ATOM     12  H10 UNL     1      19.242  39.164  19.497  1.00  0.00     0.198 HD
ENDROOT
BRANCH   1  13
HETATM   13  C8  UNL     1      19.251  34.745  16.873  1.00  0.00     0.214 C 
BRANCH  13  14
HETATM   14  C5  UNL     1      20.352  33.682  16.778  1.00  0.00     0.126 C 
BRANCH  14  15
HETATM   15  C4  UNL     1      21.686  34.333  16.794  1.00  0.00     0.028 C 
BRANCH  15  16
HETATM   16  C3  UNL     1      22.782  33.562  16.141  1.00  0.00     0.002 C 
BRANCH  16  17
HETATM   17  C2  UNL     1      23.535  34.408  15.117  1.00  0.00    -0.004 C 
HETATM   18  C1  UNL     1      22.986  35.794  15.014  1.00  0.00     0.005 C 
ENDBRANCH  16  17
ENDBRANCH  15  16
ENDBRANCH  14  15
BRANCH  14  19
HETATM   19  N1  UNL     1      20.104  32.994  15.530  1.00  0.00    -0.312 N 
ATOM     20  H1  UNL     1      20.192  33.508  14.653  1.00  0.00     0.172 HD
BRANCH  19  21
HETATM   21  S1  UNL     1      19.683  31.394  15.489  1.00  0.00     0.235 S 
HETATM   22  O1  UNL     1      18.184  31.145  15.554  1.00  0.00    -0.205 OA
HETATM   23  O2  UNL     1      20.303  30.624  16.695  1.00  0.00    -0.205 OA
BRANCH  21  24
HETATM   24  C6  UNL     1      20.261  30.506  14.083  1.00  0.00     0.262 C 
BRANCH  24  25
HETATM   25  C7  UNL     1      19.826  30.939  12.769  1.00  0.00     0.246 C 
HETATM   26  N2  UNL     1      20.251  32.230  12.299  1.00  0.00    -0.061 NA
HETATM   27  O3  UNL     1      19.089  30.224  12.024  1.00  0.00    -0.276 OA
ENDBRANCH  24  25
ENDBRANCH  21  24
ENDBRANCH  19  21
ENDBRANCH  14  19
ENDBRANCH  13  14
BRANCH  13  28
HETATM   28  N3  UNL     1      17.968  34.108  16.824  1.00  0.00    -0.351 N 
HETATM   29  C9  UNL     1      16.876  34.486  16.350  1.00  0.00     0.197 C 
HETATM   30  N4  UNL     1      15.768  33.559  16.483  1.00  0.00    -0.067 NA
HETATM   31  N5  UNL     1      16.565  35.706  15.721  1.00  0.00    -0.067 NA
ATOM     32  H3  UNL     1      17.942  33.182  17.251  1.00  0.00     0.162 HD
ENDBRANCH  13  28
ENDBRANCH   1  13
BRANCH  11  33
HETATM   33  N11 UNL     1      17.516  39.599  18.500  1.00  0.00     0.004 N 
HETATM   34  C24 UNL     1      16.645  38.986  17.547  1.00  0.00     0.301 C 
HETATM   35  C25 UNL     1      17.637  41.011  18.079  1.00  0.00     0.301 C 
HETATM   36  C26 UNL     1      16.884  39.594  19.795  1.00  0.00     0.301 C 
ENDBRANCH  11  33
BRANCH   9  37
HETATM   37  C14 UNL     1      22.586  41.219  15.726  1.00  0.00     0.038 C 
HETATM   38  C15 UNL     1      23.623  41.402  14.607  1.00  0.00     0.032 C 
HETATM   39  C16 UNL     1      24.733  42.256  15.201  1.00  0.00     0.011 C 
HETATM   40  C17 UNL     1      24.158  42.740  16.512  1.00  0.00    -0.042 C 
HETATM   41  C18 UNL     1      25.234  43.043  17.498  1.00  0.00     0.015 C 
HETATM   42  C19 UNL     1      23.308  43.952  16.226  1.00  0.00     0.010 C 
HETATM   43  C23 UNL     1      23.349  41.540  16.958  1.00  0.00     0.040 C 
HETATM   44  C20 UNL     1      22.172  43.661  15.297  1.00  0.00     0.007 C 
HETATM   45  C21 UNL     1      21.562  42.304  15.481  1.00  0.00     0.010 C 
HETATM   46  C22 UNL     1      20.523  42.320  16.573  1.00  0.00     0.012 C 
ENDBRANCH   9  37
TORSDOF 12
ENDMDL
MODEL 4
REMARK VINA RESULT: -7.989210882      1.827      3.372
REMARK  12 active torsions:
REMARK  status: ('A' for Active; 'I' for Inactive)
REMARK    1  A    between atoms: C2_2  and  C3_3 
REMARK    2  A    between atoms: C3_3  and  C4_4 
REMARK    3  A    between atoms: C4_4  and  C5_5 
REMARK    4  A    between atoms: C5_5  and  N1_6 
REMARK    5  A    between atoms: C5_5  and  C8_15 
REMARK    6  A    between atoms: N1_6  and  S1_8 
REMARK    7  A    between atoms: S1_8  and  C6_11 
REMARK    8  A    between atoms: C6_11  and  C7_12 
REMARK    9  A    between atoms: C8_15  and  N3_16 
REMARK   10  A    between atoms: C8_15  and  C10_21 
REMARK       I    between atoms: C10_21  and  N6_23 
REMARK       I    between atoms: N6_23  and  C11_24 
REMARK       I    between atoms: C11_24  and  N7_25 
REMARK       I    between atoms: C11_24  and  N10_41 
REMARK       I    between atoms: C12_27  and  N9_29 
REMARK   11  A    between atoms: N9_29  and  C14_31 
REMARK   12  A    between atoms: N10_41  and  N11_43 
ROOT
HETATM    1  C10 UNL     1      19.817  35.989  18.047  1.00  0.00     0.319 C 
HETATM    2  O4  UNL     1      19.666  35.716  19.253  1.00  0.00    -0.255 OA
HETATM    3  N6  UNL     1      19.872  37.305  17.688  1.00  0.00    -0.332 NA
HETATM    4  C11 UNL     1      19.700  38.464  17.673  1.00  0.00     0.285 C 
HETATM    5  N7  UNL     1      20.336  39.266  16.633  1.00  0.00    -0.289 N 
ATOM      6  H7  UNL     1      19.791  39.534  15.813  1.00  0.00     0.172 HD
HETATM    7  C12 UNL     1      21.552  39.642  16.716  1.00  0.00     0.194 C 
HETATM    8  N8  UNL     1      22.286  39.251  17.878  1.00  0.00    -0.063 NA
HETATM    9  N9  UNL     1      22.128  40.398  15.654  1.00  0.00    -0.350 N 
HETATM   10  C13 UNL     1      22.276  39.641  14.398  1.00  0.00     0.153 C 
HETATM   11  N10 UNL     1      18.923  39.215  18.592  1.00  0.00    -0.175 N 
ATOM     12  H10 UNL     1      19.376  39.456  19.474  1.00  0.00     0.198 HD
ENDROOT
BRANCH   1  13
HETATM   13  C8  UNL     1      19.945  34.978  17.015  1.00  0.00     0.214 C 
BRANCH  13  14
HETATM   14  C5  UNL     1      18.703  34.385  16.341  1.00  0.00     0.126 C 
BRANCH  14  15
HETATM   15  C4  UNL     1      19.030  33.970  14.954  1.00  0.00     0.028 C 
BRANCH  15  16
HETATM   16  C3  UNL     1      19.437  32.545  14.791  1.00  0.00     0.002 C 
BRANCH  16  17
HETATM   17  C2  UNL     1      19.861  32.239  13.356  1.00  0.00    -0.004 C 
HETATM   18  C1  UNL     1      19.508  30.846  12.946  1.00  0.00     0.005 C 
ENDBRANCH  16  17
ENDBRANCH  15  16
ENDBRANCH  14  15
BRANCH  14  19
HETATM   19  N1  UNL     1      17.718  35.445  16.367  1.00  0.00    -0.312 N 
ATOM     20  H1  UNL     1      17.937  36.337  15.924  1.00  0.00     0.172 HD
BRANCH  19  21
HETATM   21  S1  UNL     1      16.246  35.245  17.096  1.00  0.00     0.235 S 
HETATM   22  O1  UNL     1      15.201  36.267  16.678  1.00  0.00    -0.205 OA
HETATM   23  O2  UNL     1      16.372  35.363  18.646  1.00  0.00    -0.205 OA
BRANCH  21  24
HETATM   24  C6  UNL     1      15.504  33.666  16.857  1.00  0.00     0.262 C 
BRANCH  24  25
HETATM   25  C7  UNL     1      15.737  32.980  15.601  1.00  0.00     0.246 C 
HETATM   26  N2  UNL     1      15.483  33.692  14.376  1.00  0.00    -0.061 NA
HETATM   27  O3  UNL     1      16.155  31.785  15.542  1.00  0.00    -0.276 OA
ENDBRANCH  24  25
ENDBRANCH  21  24
ENDBRANCH  19  21
ENDBRANCH  14  19
ENDBRANCH  13  14
BRANCH  13  28
HETATM   28  N3  UNL     1      20.858  35.442  16.012  1.00  0.00    -0.351 N 
HETATM   29  C9  UNL     1      22.053  35.158  15.788  1.00  0.00     0.197 C 
HETATM   30  N4  UNL     1      22.669  35.834  14.662  1.00  0.00    -0.067 NA
HETATM   31  N5  UNL     1      22.897  34.283  16.498  1.00  0.00    -0.067 NA
ATOM     32  H3  UNL     1      20.460  36.123  15.366  1.00  0.00     0.162 HD
ENDBRANCH  13  28
ENDBRANCH   1  13
BRANCH  11  33
HETATM   33  N11 UNL     1      17.633  39.654  18.432  1.00  0.00     0.004 N 
HETATM   34  C24 UNL     1      16.886  38.972  17.423  1.00  0.00     0.301 C 
HETATM   35  C25 UNL     1      17.598  41.084  18.056  1.00  0.00     0.301 C 
HETATM   36  C26 UNL     1      16.950  39.530  19.695  1.00  0.00     0.301 C 
ENDBRANCH  11  33
BRANCH   9  37
HETATM   37  C14 UNL     1      22.540  41.750  15.686  1.00  0.00     0.038 C 
HETATM   38  C15 UNL     1      21.444  42.619  16.324  1.00  0.00     0.032 C 
HETATM   39  C16 UNL     1      21.469  43.942  15.572  1.00  0.00     0.011 C 
HETATM   40  C17 UNL     1      22.732  43.868  14.746  1.00  0.00    -0.042 C 
HETATM   41  C18 UNL     1      22.633  44.718  13.527  1.00  0.00     0.015 C 
HETATM   42  C19 UNL     1      23.884  44.286  15.624  1.00  0.00     0.010 C 
HETATM   43  C23 UNL     1      22.774  42.400  14.372  1.00  0.00     0.040 C 
HETATM   44  C20 UNL     1      24.057  43.403  16.820  1.00  0.00     0.007 C 
HETATM   45  C21 UNL     1      23.753  41.958  16.564  1.00  0.00     0.010 C 
HETATM   46  C22 UNL     1      24.955  41.243  16.000  1.00  0.00     0.012 C 
ENDBRANCH   9  37
TORSDOF 12
ENDMDL
MODEL 5
REMARK VINA RESULT: -7.952043104      1.848      3.574
REMARK  12 active torsions:
REMARK  status: ('A' for Active; 'I' for Inactive)
REMARK    1  A    between atoms: C2_2  and  C3_3 
REMARK    2  A    between atoms: C3_3  and  C4_4 
REMARK    3  A    between atoms: C4_4  and  C5_5 
REMARK    4  A    between atoms: C5_5  and  N1_6 
REMARK    5  A    between atoms: C5_5  and  C8_15 
REMARK    6  A    between atoms: N1_6  and  S1_8 
REMARK    7  A    between atoms: S1_8  and  C6_11 
REMARK    8  A    between atoms: C6_11  and  C7_12 
REMARK    9  A    between atoms: C8_15  and  N3_16 
REMARK   10  A    between atoms: C8_15  and  C10_21 
REMARK       I    between atoms: C10_21  and  N6_23 
REMARK       I    between atoms: N6_23  and  C11_24 
REMARK       I    between atoms: C11_24  and  N7_25 
REMARK       I    between atoms: C11_24  and  N10_41 
REMARK       I    between atoms: C12_27  and  N9_29 
REMARK   11  A    between atoms: N9_29  and  C14_31 
REMARK   12  A    between atoms: N10_41  and  N11_43 
ROOT
HETATM    1  C10 UNL     1      20.034  35.873  18.161  1.00  0.00     0.319 C 
HETATM    2  O4  UNL     1      19.801  35.622  19.359  1.00  0.00    -0.255 OA
HETATM    3  N6  UNL     1      20.021  37.179  17.764  1.00  0.00    -0.332 NA
HETATM    4  C11 UNL     1      19.764  38.320  17.694  1.00  0.00     0.285 C 
HETATM    5  N7  UNL     1      20.425  39.139  16.684  1.00  0.00    -0.289 N 
ATOM      6  H7  UNL     1      19.934  39.342  15.813  1.00  0.00     0.172 HD
HETATM    7  C12 UNL     1      21.598  39.610  16.854  1.00  0.00     0.194 C 
HETATM    8  N8  UNL     1      22.258  39.309  18.086  1.00  0.00    -0.063 NA
HETATM    9  N9  UNL     1      22.206  40.379  15.819  1.00  0.00    -0.350 N 
HETATM   10  C13 UNL     1      22.516  39.601  14.607  1.00  0.00     0.153 C 
HETATM   11  N10 UNL     1      18.858  39.034  18.520  1.00  0.00    -0.175 N 
ATOM     12  H10 UNL     1      19.215  39.333  19.427  1.00  0.00     0.198 HD
ENDROOT
BRANCH   1  13
HETATM   13  C8  UNL     1      20.325  34.847  17.179  1.00  0.00     0.214 C 
BRANCH  13  14
HETATM   14  C5  UNL     1      19.206  33.969  16.607  1.00  0.00     0.126 C 
BRANCH  14  15
HETATM   15  C4  UNL     1      19.789  32.842  15.838  1.00  0.00     0.028 C 
BRANCH  15  16
HETATM   16  C3  UNL     1      19.555  31.486  16.411  1.00  0.00     0.002 C 
BRANCH  16  17
HETATM   17  C2  UNL     1      20.592  30.478  15.920  1.00  0.00    -0.004 C 
HETATM   18  C1  UNL     1      21.481  31.051  14.865  1.00  0.00     0.005 C 
ENDBRANCH  16  17
ENDBRANCH  15  16
ENDBRANCH  14  15
BRANCH  14  19
HETATM   19  N1  UNL     1      18.430  34.851  15.763  1.00  0.00    -0.312 N 
ATOM     20  H1  UNL     1      18.754  35.806  15.610  1.00  0.00     0.172 HD
BRANCH  19  21
HETATM   21  S1  UNL     1      17.028  34.350  15.039  1.00  0.00     0.235 S 
HETATM   22  O1  UNL     1      17.181  33.098  14.189  1.00  0.00    -0.205 OA
HETATM   23  O2  UNL     1      16.466  35.451  14.090  1.00  0.00    -0.205 OA
BRANCH  21  24
HETATM   24  C6  UNL     1      15.694  34.026  16.142  1.00  0.00     0.262 C 
BRANCH  24  25
HETATM   25  C7  UNL     1      15.379  35.020  17.150  1.00  0.00     0.246 C 
HETATM   26  N2  UNL     1      16.188  35.068  18.339  1.00  0.00    -0.061 NA
HETATM   27  O3  UNL     1      14.424  35.845  17.021  1.00  0.00    -0.276 OA
ENDBRANCH  24  25
ENDBRANCH  21  24
ENDBRANCH  19  21
ENDBRANCH  14  19
ENDBRANCH  13  14
BRANCH  13  28
HETATM   28  N3  UNL     1      21.076  35.423  16.103  1.00  0.00    -0.351 N 
HETATM   29  C9  UNL     1      22.211  35.159  15.653  1.00  0.00     0.197 C 
HETATM   30  N4  UNL     1      22.656  35.965  14.532  1.00  0.00    -0.067 NA
HETATM   31  N5  UNL     1      23.132  34.194  16.102  1.00  0.00    -0.067 NA
ATOM     32  H3  UNL     1      20.599  36.184  15.619  1.00  0.00     0.162 HD
ENDBRANCH  13  28
ENDBRANCH   1  13
BRANCH  11  33
HETATM   33  N11 UNL     1      17.557  39.368  18.238  1.00  0.00     0.004 N 
HETATM   34  C24 UNL     1      16.886  38.473  17.349  1.00  0.00     0.301 C 
HETATM   35  C25 UNL     1      17.473  40.699  17.602  1.00  0.00     0.301 C 
HETATM   36  C26 UNL     1      16.828  39.442  19.479  1.00  0.00     0.301 C 
ENDBRANCH  11  33
BRANCH   9  37
HETATM   37  C14 UNL     1      22.511  41.759  15.839  1.00  0.00     0.038 C 
HETATM   38  C15 UNL     1      21.328  42.552  16.419  1.00  0.00     0.032 C 
HETATM   39  C16 UNL     1      21.280  43.859  15.642  1.00  0.00     0.011 C 
HETATM   40  C17 UNL     1      22.576  43.869  14.865  1.00  0.00    -0.042 C 
HETATM   41  C18 UNL     1      22.459  44.688  13.625  1.00  0.00     0.015 C 
HETATM   42  C19 UNL     1      23.658  44.390  15.776  1.00  0.00     0.010 C 
HETATM   43  C23 UNL     1      22.744  42.403  14.522  1.00  0.00     0.040 C 
HETATM   44  C20 UNL     1      23.852  43.544  16.995  1.00  0.00     0.007 C 
HETATM   45  C21 UNL     1      23.670  42.075  16.757  1.00  0.00     0.010 C 
HETATM   46  C22 UNL     1      24.944  41.446  16.252  1.00  0.00     0.012 C 
ENDBRANCH   9  37
TORSDOF 12
ENDMDL
