MODEL 1
REMARK VINA RESULT: -9.115900824      0.000      0.000
REMARK  14 active torsions:
REMARK  status: ('A' for Active; 'I' for Inactive)
REMARK    1  A    between atoms: C8_8  and  C9_9 
REMARK    2  A    between atoms: C9_9  and  C10_10 
REMARK    3  A    between atoms: C10_10  and  N1_11 
REMARK    4  A    between atoms: C14_15  and  C15_16 
REMARK    5  A    between atoms: C15_16  and  C16_17 
REMARK    6  A    between atoms: C16_17  and  C17_18 
REMARK    7  A    between atoms: C17_18  and  C18_19 
REMARK    8  A    between atoms: C20_21  and  N2_22 
REMARK       I    between atoms: N2_22  and  C21_24 
REMARK    9  A    between atoms: C21_24  and  C22_26 
REMARK   10  A    between atoms: C22_26  and  C23_27 
REMARK   11  A    between atoms: N3_29  and  N4_31 
REMARK   12  A    between atoms: C25_42  and  N9_43 
REMARK       I    between atoms: N9_43  and  C26_45 
REMARK   13  A    between atoms: C26_45  and  C27_47 
REMARK   14  A    between atoms: C27_47  and  S1_55 
REMARK       I    between atoms: N10_48  and  C28_50 
ROOT
HETATM    1  C1  UNL     1      16.327  39.521  17.508  1.00  0.00     0.027 C 
HETATM    2  C2  UNL     1      17.604  39.744  17.268  1.00  0.00    -0.001 A 
HETATM    3  C3  UNL     1      18.025  40.906  16.654  1.00  0.00     0.017 A 
HETATM    4  C4  UNL     1      19.371  41.065  16.442  1.00  0.00     0.031 A 
HETATM    5  C5  UNL     1      20.348  40.123  16.807  1.00  0.00     0.044 A 
HETATM    6  C6  UNL     1      21.608  40.366  16.470  1.00  0.00    -0.003 A 
HETATM    7  C7  UNL     1      22.035  41.576  15.707  1.00  0.00     0.021 A 
HETATM    8  C8  UNL     1      23.338  41.542  15.508  1.00  0.00    -0.055 A 
HETATM    9  C13 UNL     1      23.836  40.345  16.114  1.00  0.00     0.015 A 
HETATM   10  C14 UNL     1      22.823  39.632  16.696  1.00  0.00    -0.045 A 
HETATM   11  N8  UNL     1      19.864  39.034  17.389  1.00  0.00    -0.341 N 
ATOM     12  H8  UNL     1      20.529  38.315  17.673  1.00  0.00     0.167 HD
HETATM   13  C25 UNL     1      18.534  38.803  17.636  1.00  0.00     0.118 A 
ENDROOT
BRANCH  10  14
HETATM   14  C15 UNL     1      23.073  38.349  17.384  1.00  0.00     0.040 C 
BRANCH  14  15
HETATM   15  C16 UNL     1      23.356  37.175  16.498  1.00  0.00     0.011 C 
BRANCH  15  16
HETATM   16  C17 UNL     1      22.064  36.463  16.187  1.00  0.00     0.059 C 
BRANCH  16  17
HETATM   17  C18 UNL     1      22.111  35.000  16.358  1.00  0.00     0.029 A 
HETATM   18  C19 UNL     1      22.342  34.048  15.396  1.00  0.00     0.076 A 
HETATM   19  C20 UNL     1      22.282  32.813  16.001  1.00  0.00     0.124 A 
HETATM   20  N6  UNL     1      22.015  33.068  17.313  1.00  0.00    -0.285 N 
HETATM   21  N7  UNL     1      21.914  34.344  17.528  1.00  0.00    -0.303 N 
ATOM     22  H6  UNL     1      21.910  32.351  18.031  1.00  0.00     0.188 HD
ATOM     23  H7  UNL     1      21.720  34.781  18.429  1.00  0.00     0.186 HD
BRANCH  19  24
HETATM   24  N2  UNL     1      22.436  31.634  15.552  1.00  0.00    -0.307 N 
HETATM   25  C21 UNL     1      21.623  30.938  14.657  1.00  0.00     0.271 C 
HETATM   26  O1  UNL     1      20.566  31.433  14.225  1.00  0.00    -0.266 OA
ATOM     27  H2  UNL     1      23.260  31.133  15.888  1.00  0.00     0.170 HD
BRANCH  25  28
HETATM   28  C22 UNL     1      21.963  29.589  14.176  1.00  0.00     0.094 C 
HETATM   29  N3  UNL     1      21.152  28.607  14.239  1.00  0.00    -0.285 N 
ATOM     30  H3  UNL     1      21.479  27.710  13.880  1.00  0.00     0.188 HD
BRANCH  28  31
HETATM   31  C23 UNL     1      23.311  29.384  13.606  1.00  0.00     0.060 C 
HETATM   32  C24 UNL     1      23.299  28.640  12.291  1.00  0.00     0.011 C 
ENDBRANCH  28  31
BRANCH  29  33
HETATM   33  N4  UNL     1      19.872  28.653  14.749  1.00  0.00    -0.249 N 
HETATM   34  N5  UNL     1      18.965  27.949  14.223  1.00  0.00    -0.331 N 
ATOM     35  H52 UNL     1      19.194  27.356  13.426  1.00  0.00     0.178 HD
ATOM     36  H51 UNL     1      18.017  27.983  14.601  1.00  0.00     0.178 HD
ATOM     37  H4  UNL     1      19.659  29.251  15.547  1.00  0.00     0.207 HD
ENDBRANCH  29  33
ENDBRANCH  25  28
ENDBRANCH  19  24
ENDBRANCH  16  17
ENDBRANCH  15  16
ENDBRANCH  14  15
ENDBRANCH  10  14
BRANCH   8  38
HETATM   38  C9  UNL     1      24.181  42.545  14.794  1.00  0.00     0.068 C 
BRANCH  38  39
HETATM   39  C10 UNL     1      23.733  42.527  13.350  1.00  0.00     0.276 C 
BRANCH  39  40
HETATM   40  N1  UNL     1      24.143  41.364  12.623  1.00  0.00     0.080 N 
HETATM   41  C11 UNL     1      23.152  40.853  11.724  1.00  0.00     0.309 C 
HETATM   42  C12 UNL     1      25.448  41.466  12.050  1.00  0.00     0.309 C 
ENDBRANCH  39  40
ENDBRANCH  38  39
ENDBRANCH   8  38
BRANCH  13  43
HETATM   43  N9  UNL     1      18.136  37.737  18.220  1.00  0.00    -0.306 N 
HETATM   44  C26 UNL     1      18.669  36.466  18.198  1.00  0.00     0.280 C 
HETATM   45  O2  UNL     1      19.732  36.186  18.780  1.00  0.00    -0.265 OA
ATOM     46  H9  UNL     1      17.295  37.843  18.787  1.00  0.00     0.170 HD
BRANCH  44  47
HETATM   47  C27 UNL     1      17.980  35.373  17.469  1.00  0.00     0.140 C 
HETATM   48  N10 UNL     1      18.640  34.780  16.595  1.00  0.00    -0.321 N 
HETATM   49  C28 UNL     1      18.453  33.757  15.700  1.00  0.00     0.186 C 
ATOM     50  H10 UNL     1      19.584  35.161  16.526  1.00  0.00     0.169 HD
HETATM   51  N11 UNL     1      18.501  32.523  16.141  1.00  0.00    -0.373 N 
HETATM   52  N12 UNL     1      18.221  33.966  14.294  1.00  0.00    -0.064 NA
ATOM     53 2H11 UNL     1      18.664  32.375  17.137  1.00  0.00     0.158 HD
ATOM     54 1H11 UNL     1      18.361  31.763  15.476  1.00  0.00     0.158 HD
BRANCH  47  55
HETATM   55  S1  UNL     1      16.301  34.980  17.867  1.00  0.00    -0.111 SA
HETATM   56  C29 UNL     1      15.055  35.734  16.853  1.00  0.00     0.097 C 
ENDBRANCH  47  55
ENDBRANCH  44  47
ENDBRANCH  13  43
TORSDOF 14
ENDMDL
MODEL 2
REMARK VINA RESULT: -8.815360799      3.472      7.816
REMARK  14 active torsions:
REMARK  status: ('A' for Active; 'I' for Inactive)
REMARK    1  A    between atoms: C8_8  and  C9_9 
REMARK    2  A    between atoms: C9_9  and  C10_10 
REMARK    3  A    between atoms: C10_10  and  N1_11 
REMARK    4  A    between atoms: C14_15  and  C15_16 
REMARK    5  A    between atoms: C15_16  and  C16_17 
REMARK    6  A    between atoms: C16_17  and  C17_18 
REMARK    7  A    between atoms: C17_18  and  C18_19 
REMARK    8  A    between atoms: C20_21  and  N2_22 
REMARK       I    between atoms: N2_22  and  C21_24 
REMARK    9  A    between atoms: C21_24  and  C22_26 
REMARK   10  A    between atoms: C22_26  and  C23_27 
REMARK   11  A    between atoms: N3_29  and  N4_31 
REMARK   12  A    between atoms: C25_42  and  N9_43 
REMARK       I    between atoms: N9_43  and  C26_45 
REMARK   13  A    between atoms: C26_45  and  C27_47 
REMARK   14  A    between atoms: C27_47  and  S1_55 
REMARK       I    between atoms: N10_48  and  C28_50 
ROOT
HETATM    1  C1  UNL     1      22.288  37.508  16.044  1.00  0.00     0.027 C 
HETATM    2  C2  UNL     1      22.179  36.205  15.873  1.00  0.00    -0.001 A 
HETATM    3  C3  UNL     1      23.154  35.486  15.212  1.00  0.00     0.017 A 
HETATM    4  C4  UNL     1      22.968  34.134  15.077  1.00  0.00     0.031 A 
HETATM    5  C5  UNL     1      21.852  33.434  15.567  1.00  0.00     0.044 A 
HETATM    6  C6  UNL     1      21.759  32.138  15.297  1.00  0.00    -0.003 A 
HETATM    7  C7  UNL     1      22.766  31.394  14.484  1.00  0.00     0.021 A 
HETATM    8  C8  UNL     1      22.405  30.130  14.373  1.00  0.00    -0.055 A 
HETATM    9  C13 UNL     1      21.177  29.967  15.088  1.00  0.00     0.015 A 
HETATM   10  C14 UNL     1      20.776  31.150  15.650  1.00  0.00    -0.045 A 
HETATM   11  N8  UNL     1      20.961  34.195  16.187  1.00  0.00    -0.341 N 
ATOM     12  H8  UNL     1      20.129  33.739  16.562  1.00  0.00     0.167 HD
HETATM   13  C25 UNL     1      21.076  35.551  16.363  1.00  0.00     0.118 A 
ENDROOT
BRANCH  10  14
HETATM   14  C15 UNL     1      19.530  31.253  16.437  1.00  0.00     0.040 C 
BRANCH  14  15
HETATM   15  C16 UNL     1      18.258  31.282  15.648  1.00  0.00     0.011 C 
BRANCH  15  16
HETATM   16  C17 UNL     1      18.584  31.266  14.176  1.00  0.00     0.059 C 
BRANCH  16  17
HETATM   17  C18 UNL     1      18.357  29.972  13.509  1.00  0.00     0.029 A 
HETATM   18  C19 UNL     1      18.299  29.720  12.161  1.00  0.00     0.076 A 
HETATM   19  C20 UNL     1      18.056  28.375  11.993  1.00  0.00     0.124 A 
HETATM   20  N6  UNL     1      17.976  27.864  13.254  1.00  0.00    -0.285 N 
HETATM   21  N7  UNL     1      18.151  28.791  14.144  1.00  0.00    -0.303 N 
ATOM     22  H6  UNL     1      17.802  26.882  13.469  1.00  0.00     0.188 HD
ATOM     23  H7  UNL     1      18.137  28.655  15.155  1.00  0.00     0.186 HD
BRANCH  19  24
HETATM   24  N2  UNL     1      17.929  27.654  10.954  1.00  0.00    -0.307 N 
HETATM   25  C21 UNL     1      18.712  26.571  10.554  1.00  0.00     0.271 C 
HETATM   26  O1  UNL     1      19.712  26.220  11.207  1.00  0.00    -0.266 OA
ATOM     27  H2  UNL     1      17.156  27.898  10.334  1.00  0.00     0.170 HD
BRANCH  25  28
HETATM   28  C22 UNL     1      18.406  25.787   9.346  1.00  0.00     0.094 C 
HETATM   29  N3  UNL     1      19.262  25.573   8.425  1.00  0.00    -0.285 N 
ATOM     30  H3  UNL     1      18.957  25.018   7.625  1.00  0.00     0.188 HD
BRANCH  28  31
HETATM   31  C23 UNL     1      17.041  25.240   9.211  1.00  0.00     0.060 C 
HETATM   32  C24 UNL     1      16.686  24.856   7.793  1.00  0.00     0.011 C 
ENDBRANCH  28  31
BRANCH  29  33
HETATM   33  N4  UNL     1      20.565  26.027   8.416  1.00  0.00    -0.249 N 
HETATM   34  N5  UNL     1      21.502  25.238   8.725  1.00  0.00    -0.331 N 
ATOM     35  H52 UNL     1      21.280  24.275   8.976  1.00  0.00     0.178 HD
ATOM     36  H51 UNL     1      22.466  25.574   8.718  1.00  0.00     0.178 HD
ATOM     37  H4  UNL     1      20.770  26.993   8.162  1.00  0.00     0.207 HD
ENDBRANCH  29  33
ENDBRANCH  25  28
ENDBRANCH  19  24
ENDBRANCH  16  17
ENDBRANCH  15  16
ENDBRANCH  14  15
ENDBRANCH  10  14
BRANCH   8  38
HETATM   38  C9  UNL     1      23.117  29.035  13.650  1.00  0.00     0.068 C 
BRANCH  38  39
HETATM   39  C10 UNL     1      22.128  28.470  12.655  1.00  0.00     0.276 C 
BRANCH  39  40
HETATM   40  N1  UNL     1      22.698  28.137  11.386  1.00  0.00     0.080 N 
HETATM   41  C11 UNL     1      23.475  29.186  10.796  1.00  0.00     0.309 C 
HETATM   42  C12 UNL     1      23.331  26.857  11.350  1.00  0.00     0.309 C 
ENDBRANCH  39  40
ENDBRANCH  38  39
ENDBRANCH   8  38
BRANCH  13  43
HETATM   43  N9  UNL     1      20.186  36.224  16.989  1.00  0.00    -0.306 N 
HETATM   44  C26 UNL     1      19.171  35.793  17.814  1.00  0.00     0.280 C 
HETATM   45  O2  UNL     1      19.391  35.343  18.953  1.00  0.00    -0.265 OA
ATOM     46  H9  UNL     1      20.236  37.234  16.856  1.00  0.00     0.170 HD
BRANCH  44  47
HETATM   47  C27 UNL     1      17.758  35.852  17.363  1.00  0.00     0.140 C 
HETATM   48  N10 UNL     1      17.250  34.783  16.976  1.00  0.00    -0.321 N 
HETATM   49  C28 UNL     1      16.041  34.351  16.490  1.00  0.00     0.186 C 
ATOM     50  H10 UNL     1      17.918  34.014  17.038  1.00  0.00     0.169 HD
HETATM   51  N11 UNL     1      15.059  34.158  17.337  1.00  0.00    -0.373 N 
HETATM   52  N12 UNL     1      15.798  34.082  15.096  1.00  0.00    -0.064 NA
ATOM     53 2H11 UNL     1      15.232  34.349  18.324  1.00  0.00     0.158 HD
ATOM     54 1H11 UNL     1      14.161  33.837  16.976  1.00  0.00     0.158 HD
BRANCH  47  55
HETATM   55  S1  UNL     1      16.894  37.395  17.398  1.00  0.00    -0.111 SA
HETATM   56  C29 UNL     1      17.453  38.583  18.593  1.00  0.00     0.097 C 
ENDBRANCH  47  55
ENDBRANCH  44  47
ENDBRANCH  13  43
TORSDOF 14
ENDMDL
MODEL 3
REMARK VINA RESULT: -8.753117377      3.096      9.910
REMARK  14 active torsions:
REMARK  status: ('A' for Active; 'I' for Inactive)
REMARK    1  A    between atoms: C8_8  and  C9_9 
REMARK    2  A    between atoms: C9_9  and  C10_10 
REMARK    3  A    between atoms: C10_10  and  N1_11 
REMARK    4  A    between atoms: C14_15  and  C15_16 
REMARK    5  A    between atoms: C15_16  and  C16_17 
REMARK    6  A    between atoms: C16_17  and  C17_18 
REMARK    7  A    between atoms: C17_18  and  C18_19 
REMARK    8  A    between atoms: C20_21  and  N2_22 
REMARK       I    between atoms: N2_22  and  C21_24 
REMARK    9  A    between atoms: C21_24  and  C22_26 
REMARK   10  A    between atoms: C22_26  and  C23_27 
REMARK   11  A    between atoms: N3_29  and  N4_31 
REMARK   12  A    between atoms: C25_42  and  N9_43 
REMARK       I    between atoms: N9_43  and  C26_45 
REMARK   13  A    between atoms: C26_45  and  C27_47 
REMARK   14  A    between atoms: C27_47  and  S1_55 
REMARK       I    between atoms: N10_48  and  C28_50 
ROOT
HETATM    1  C1  UNL     1      19.496  27.447  11.416  1.00  0.00     0.027 C 
HETATM    2  C2  UNL     1      19.257  28.423  12.269  1.00  0.00    -0.001 A 
HETATM    3  C3  UNL     1      18.076  29.136  12.229  1.00  0.00     0.017 A 
HETATM    4  C4  UNL     1      17.902  30.136  13.152  1.00  0.00     0.031 A 
HETATM    5  C5  UNL     1      18.846  30.481  14.134  1.00  0.00     0.044 A 
HETATM    6  C6  UNL     1      18.585  31.522  14.914  1.00  0.00    -0.003 A 
HETATM    7  C7  UNL     1      17.352  32.355  14.786  1.00  0.00     0.021 A 
HETATM    8  C8  UNL     1      17.371  33.322  15.682  1.00  0.00    -0.055 A 
HETATM    9  C13 UNL     1      18.579  33.187  16.437  1.00  0.00     0.015 A 
HETATM   10  C14 UNL     1      19.315  32.119  15.999  1.00  0.00    -0.045 A 
HETATM   11  N8  UNL     1      19.953  29.752  14.106  1.00  0.00    -0.341 N 
ATOM     12  H8  UNL     1      20.674  29.961  14.797  1.00  0.00     0.167 HD
HETATM   13  C25 UNL     1      20.200  28.736  13.216  1.00  0.00     0.118 A 
ENDROOT
BRANCH  10  14
HETATM   14  C15 UNL     1      20.614  31.768  16.609  1.00  0.00     0.040 C 
BRANCH  14  15
HETATM   15  C16 UNL     1      21.827  32.068  15.785  1.00  0.00     0.011 C 
BRANCH  15  16
HETATM   16  C17 UNL     1      22.840  32.793  16.636  1.00  0.00     0.059 C 
BRANCH  16  17
HETATM   17  C18 UNL     1      22.582  34.234  16.806  1.00  0.00     0.029 A 
HETATM   18  C19 UNL     1      22.262  35.151  15.836  1.00  0.00     0.076 A 
HETATM   19  C20 UNL     1      22.123  36.378  16.445  1.00  0.00     0.124 A 
HETATM   20  N6  UNL     1      22.366  36.153  17.766  1.00  0.00    -0.285 N 
HETATM   21  N7  UNL     1      22.635  34.903  17.985  1.00  0.00    -0.303 N 
ATOM     22  H6  UNL     1      22.340  36.873  18.489  1.00  0.00     0.188 HD
ATOM     23  H7  UNL     1      22.850  34.491  18.893  1.00  0.00     0.186 HD
BRANCH  19  24
HETATM   24  N2  UNL     1      21.825  37.527  15.990  1.00  0.00    -0.307 N 
HETATM   25  C21 UNL     1      21.183  38.576  16.650  1.00  0.00     0.271 C 
HETATM   26  O1  UNL     1      20.772  38.451  17.818  1.00  0.00    -0.266 OA
ATOM     27  H2  UNL     1      22.087  37.704  15.020  1.00  0.00     0.170 HD
BRANCH  25  28
HETATM   28  C22 UNL     1      20.957  39.881  16.008  1.00  0.00     0.094 C 
HETATM   29  N3  UNL     1      19.851  40.511  16.093  1.00  0.00    -0.285 N 
ATOM     30  H3  UNL     1      19.789  41.410  15.615  1.00  0.00     0.188 HD
BRANCH  28  31
HETATM   31  C23 UNL     1      22.069  40.467  15.232  1.00  0.00     0.060 C 
HETATM   32  C24 UNL     1      21.924  40.276  13.740  1.00  0.00     0.011 C 
ENDBRANCH  28  31
BRANCH  29  33
HETATM   33  N4  UNL     1      18.732  40.083  16.776  1.00  0.00    -0.249 N 
HETATM   34  N5  UNL     1      18.482  40.552  17.922  1.00  0.00    -0.331 N 
ATOM     35  H52 UNL     1      19.115  41.243  18.326  1.00  0.00     0.178 HD
ATOM     36  H51 UNL     1      17.655  40.234  18.427  1.00  0.00     0.178 HD
ATOM     37  H4  UNL     1      18.110  39.391  16.358  1.00  0.00     0.207 HD
ENDBRANCH  29  33
ENDBRANCH  25  28
ENDBRANCH  19  24
ENDBRANCH  16  17
ENDBRANCH  15  16
ENDBRANCH  14  15
ENDBRANCH  10  14
BRANCH   8  38
HETATM   38  C9  UNL     1      16.344  34.381  15.909  1.00  0.00     0.068 C 
BRANCH  38  39
HETATM   39  C10 UNL     1      16.392  34.712  17.383  1.00  0.00     0.276 C 
BRANCH  39  40
HETATM   40  N1  UNL     1      16.680  36.085  17.667  1.00  0.00     0.080 N 
HETATM   41  C11 UNL     1      18.006  36.319  18.155  1.00  0.00     0.309 C 
HETATM   42  C12 UNL     1      16.272  36.990  16.640  1.00  0.00     0.309 C 
ENDBRANCH  39  40
ENDBRANCH  38  39
ENDBRANCH   8  38
BRANCH  13  43
HETATM   43  N9  UNL     1      21.284  28.059  13.257  1.00  0.00    -0.306 N 
HETATM   44  C26 UNL     1      22.591  28.472  13.113  1.00  0.00     0.280 C 
HETATM   45  O2  UNL     1      23.172  29.139  13.987  1.00  0.00    -0.265 OA
ATOM     46  H9  UNL     1      21.163  27.059  13.420  1.00  0.00     0.170 HD
BRANCH  44  47
HETATM   47  C27 UNL     1      23.358  28.129  11.890  1.00  0.00     0.140 C 
HETATM   48  N10 UNL     1      23.259  26.958  11.479  1.00  0.00    -0.321 N 
HETATM   49  C28 UNL     1      23.750  26.200  10.445  1.00  0.00     0.186 C 
ATOM     50  H10 UNL     1      22.642  26.409  12.076  1.00  0.00     0.169 HD
HETATM   51  N11 UNL     1      23.214  26.340   9.257  1.00  0.00    -0.373 N 
HETATM   52  N12 UNL     1      24.817  25.244  10.600  1.00  0.00    -0.064 NA
ATOM     53 2H11 UNL     1      22.459  27.017   9.148  1.00  0.00     0.158 HD
ATOM     54 1H11 UNL     1      23.578  25.777   8.489  1.00  0.00     0.158 HD
BRANCH  47  55
HETATM   55  S1  UNL     1      24.344  29.368  11.101  1.00  0.00    -0.111 SA
HETATM   56  C29 UNL     1      25.926  29.698  11.835  1.00  0.00     0.097 C 
ENDBRANCH  47  55
ENDBRANCH  44  47
ENDBRANCH  13  43
TORSDOF 14
ENDMDL
MODEL 4
REMARK VINA RESULT: -8.749842567      2.866      9.646
REMARK  14 active torsions:
REMARK  status: ('A' for Active; 'I' for Inactive)
REMARK    1  A    between atoms: C8_8  and  C9_9 
REMARK    2  A    between atoms: C9_9  and  C10_10 
REMARK    3  A    between atoms: C10_10  and  N1_11 
REMARK    4  A    between atoms: C14_15  and  C15_16 
REMARK    5  A    between atoms: C15_16  and  C16_17 
REMARK    6  A    between atoms: C16_17  and  C17_18 
REMARK    7  A    between atoms: C17_18  and  C18_19 
REMARK    8  A    between atoms: C20_21  and  N2_22 
REMARK       I    between atoms: N2_22  and  C21_24 
REMARK    9  A    between atoms: C21_24  and  C22_26 
REMARK   10  A    between atoms: C22_26  and  C23_27 
REMARK   11  A    between atoms: N3_29  and  N4_31 
REMARK   12  A    between atoms: C25_42  and  N9_43 
REMARK       I    between atoms: N9_43  and  C26_45 
REMARK   13  A    between atoms: C26_45  and  C27_47 
REMARK   14  A    between atoms: C27_47  and  S1_55 
REMARK       I    between atoms: N10_48  and  C28_50 
ROOT
HETATM    1  C1  UNL     1      23.414  35.407  18.531  1.00  0.00     0.027 C 
HETATM    2  C2  UNL     1      22.643  34.579  17.855  1.00  0.00    -0.001 A 
HETATM    3  C3  UNL     1      23.149  33.419  17.302  1.00  0.00     0.017 A 
HETATM    4  C4  UNL     1      22.282  32.608  16.616  1.00  0.00     0.031 A 
HETATM    5  C5  UNL     1      20.914  32.880  16.438  1.00  0.00     0.044 A 
HETATM    6  C6  UNL     1      20.205  32.051  15.682  1.00  0.00    -0.003 A 
HETATM    7  C7  UNL     1      20.790  30.860  14.998  1.00  0.00     0.021 A 
HETATM    8  C8  UNL     1      19.854  30.235  14.312  1.00  0.00    -0.055 A 
HETATM    9  C13 UNL     1      18.629  30.951  14.500  1.00  0.00     0.015 A 
HETATM   10  C14 UNL     1      18.815  32.034  15.317  1.00  0.00    -0.045 A 
HETATM   11  N8  UNL     1      20.507  34.012  16.996  1.00  0.00    -0.341 N 
ATOM     12  H8  UNL     1      19.522  34.260  16.896  1.00  0.00     0.167 HD
HETATM   13  C25 UNL     1      21.312  34.873  17.698  1.00  0.00     0.118 A 
ENDROOT
BRANCH  10  14
HETATM   14  C15 UNL     1      17.705  32.945  15.662  1.00  0.00     0.040 C 
BRANCH  14  15
HETATM   15  C16 UNL     1      16.332  32.350  15.620  1.00  0.00     0.011 C 
BRANCH  15  16
HETATM   16  C17 UNL     1      15.344  33.406  15.192  1.00  0.00     0.059 C 
BRANCH  16  17
HETATM   17  C18 UNL     1      15.693  34.778  15.603  1.00  0.00     0.029 A 
HETATM   18  C19 UNL     1      15.388  35.404  16.786  1.00  0.00     0.076 A 
HETATM   19  C20 UNL     1      15.901  36.680  16.732  1.00  0.00     0.124 A 
HETATM   20  N6  UNL     1      16.498  36.777  15.511  1.00  0.00    -0.285 N 
HETATM   21  N7  UNL     1      16.381  35.668  14.846  1.00  0.00    -0.303 N 
ATOM     22  H6  UNL     1      16.975  37.610  15.166  1.00  0.00     0.188 HD
ATOM     23  H7  UNL     1      16.746  35.496  13.909  1.00  0.00     0.186 HD
BRANCH  19  24
HETATM   24  N2  UNL     1      15.896  37.637  17.568  1.00  0.00    -0.307 N 
HETATM   25  C21 UNL     1      16.466  38.904  17.433  1.00  0.00     0.271 C 
HETATM   26  O1  UNL     1      17.121  39.214  16.422  1.00  0.00    -0.266 OA
ATOM     27  H2  UNL     1      15.415  37.457  18.450  1.00  0.00     0.170 HD
BRANCH  25  28
HETATM   28  C22 UNL     1      16.328  39.939  18.471  1.00  0.00     0.094 C 
HETATM   29  N3  UNL     1      15.868  41.104  18.229  1.00  0.00    -0.285 N 
ATOM     30  H3  UNL     1      15.810  41.753  19.013  1.00  0.00     0.188 HD
BRANCH  28  31
HETATM   31  C23 UNL     1      16.751  39.595  19.844  1.00  0.00     0.060 C 
HETATM   32  C24 UNL     1      17.122  40.800  20.676  1.00  0.00     0.011 C 
ENDBRANCH  28  31
BRANCH  29  33
HETATM   33  N4  UNL     1      15.444  41.561  16.999  1.00  0.00    -0.249 N 
HETATM   34  N5  UNL     1      16.230  42.240  16.280  1.00  0.00    -0.331 N 
ATOM     35  H52 UNL     1      17.170  42.439  16.622  1.00  0.00     0.178 HD
ATOM     36  H51 UNL     1      15.916  42.579  15.370  1.00  0.00     0.178 HD
ATOM     37  H4  UNL     1      14.501  41.354  16.672  1.00  0.00     0.207 HD
ENDBRANCH  29  33
ENDBRANCH  25  28
ENDBRANCH  19  24
ENDBRANCH  16  17
ENDBRANCH  15  16
ENDBRANCH  14  15
ENDBRANCH  10  14
BRANCH   8  38
HETATM   38  C9  UNL     1      19.996  29.002  13.483  1.00  0.00     0.068 C 
BRANCH  38  39
HETATM   39  C10 UNL     1      21.478  28.718  13.393  1.00  0.00     0.276 C 
BRANCH  39  40
HETATM   40  N1  UNL     1      21.892  28.149  12.147  1.00  0.00     0.080 N 
HETATM   41  C11 UNL     1      20.827  27.585  11.375  1.00  0.00     0.309 C 
HETATM   42  C12 UNL     1      22.778  28.980  11.394  1.00  0.00     0.309 C 
ENDBRANCH  39  40
ENDBRANCH  38  39
ENDBRANCH   8  38
BRANCH  13  43
HETATM   43  N9  UNL     1      20.849  35.941  18.228  1.00  0.00    -0.306 N 
HETATM   44  C26 UNL     1      20.046  36.921  17.686  1.00  0.00     0.280 C 
HETATM   45  O2  UNL     1      18.844  36.725  17.434  1.00  0.00    -0.265 OA
ATOM     46  H9  UNL     1      21.115  36.091  19.202  1.00  0.00     0.170 HD
BRANCH  44  47
HETATM   47  C27 UNL     1      20.600  38.263  17.379  1.00  0.00     0.140 C 
HETATM   48  N10 UNL     1      19.935  39.243  17.763  1.00  0.00    -0.321 N 
HETATM   49  C28 UNL     1      20.025  40.612  17.719  1.00  0.00     0.186 C 
ATOM     50  H10 UNL     1      19.086  38.946  18.244  1.00  0.00     0.169 HD
HETATM   51  N11 UNL     1      20.829  41.213  18.562  1.00  0.00    -0.373 N 
HETATM   52  N12 UNL     1      19.269  41.428  16.804  1.00  0.00    -0.064 NA
ATOM     53 2H11 UNL     1      21.365  40.635  19.210  1.00  0.00     0.158 HD
ATOM     54 1H11 UNL     1      20.897  42.230  18.530  1.00  0.00     0.158 HD
BRANCH  47  55
HETATM   55  S1  UNL     1      22.134  38.397  16.509  1.00  0.00    -0.111 SA
HETATM   56  C29 UNL     1      22.064  39.146  14.902  1.00  0.00     0.097 C 
ENDBRANCH  47  55
ENDBRANCH  44  47
ENDBRANCH  13  43
TORSDOF 14
ENDMDL
MODEL 5
REMARK VINA RESULT: -8.749495710      1.092      1.523
REMARK  14 active torsions:
REMARK  status: ('A' for Active; 'I' for Inactive)
REMARK    1  A    between atoms: C8_8  and  C9_9 
REMARK    2  A    between atoms: C9_9  and  C10_10 
REMARK    3  A    between atoms: C10_10  and  N1_11 
REMARK    4  A    between atoms: C14_15  and  C15_16 
REMARK    5  A    between atoms: C15_16  and  C16_17 
REMARK    6  A    between atoms: C16_17  and  C17_18 
REMARK    7  A    between atoms: C17_18  and  C18_19 
REMARK    8  A    between atoms: C20_21  and  N2_22 
REMARK       I    between atoms: N2_22  and  C21_24 
REMARK    9  A    between atoms: C21_24  and  C22_26 
REMARK   10  A    between atoms: C22_26  and  C23_27 
REMARK   11  A    between atoms: N3_29  and  N4_31 
REMARK   12  A    between atoms: C25_42  and  N9_43 
REMARK       I    between atoms: N9_43  and  C26_45 
REMARK   13  A    between atoms: C26_45  and  C27_47 
REMARK   14  A    between atoms: C27_47  and  S1_55 
REMARK       I    between atoms: N10_48  and  C28_50 
ROOT
HETATM    1  C1  UNL     1      16.319  39.274  17.570  1.00  0.00     0.027 C 
HETATM    2  C2  UNL     1      17.601  39.485  17.348  1.00  0.00    -0.001 A 
HETATM    3  C3  UNL     1      18.046  40.663  16.783  1.00  0.00     0.017 A 
HETATM    4  C4  UNL     1      19.396  40.807  16.586  1.00  0.00     0.031 A 
HETATM    5  C5  UNL     1      20.354  39.834  16.920  1.00  0.00     0.044 A 
HETATM    6  C6  UNL     1      21.620  40.069  16.601  1.00  0.00    -0.003 A 
HETATM    7  C7  UNL     1      22.074  41.301  15.889  1.00  0.00     0.021 A 
HETATM    8  C8  UNL     1      23.377  41.252  15.698  1.00  0.00    -0.055 A 
HETATM    9  C13 UNL     1      23.851  40.025  16.260  1.00  0.00     0.015 A 
HETATM   10  C14 UNL     1      22.821  39.306  16.807  1.00  0.00    -0.045 A 
HETATM   11  N8  UNL     1      19.848  38.732  17.456  1.00  0.00    -0.341 N 
ATOM     12  H8  UNL     1      20.499  37.991  17.716  1.00  0.00     0.167 HD
HETATM   13  C25 UNL     1      18.512  38.515  17.685  1.00  0.00     0.118 A 
ENDROOT
BRANCH  10  14
HETATM   14  C15 UNL     1      23.045  37.993  17.446  1.00  0.00     0.040 C 
BRANCH  14  15
HETATM   15  C16 UNL     1      23.356  36.859  16.519  1.00  0.00     0.011 C 
BRANCH  15  16
HETATM   16  C17 UNL     1      22.071  36.191  16.100  1.00  0.00     0.059 C 
BRANCH  16  17
HETATM   17  C18 UNL     1      22.061  34.725  16.251  1.00  0.00     0.029 A 
HETATM   18  C19 UNL     1      22.237  33.778  15.273  1.00  0.00     0.076 A 
HETATM   19  C20 UNL     1      22.137  32.538  15.863  1.00  0.00     0.124 A 
HETATM   20  N6  UNL     1      21.902  32.786  17.182  1.00  0.00    -0.285 N 
HETATM   21  N7  UNL     1      21.856  34.062  17.416  1.00  0.00    -0.303 N 
ATOM     22  H6  UNL     1      21.778  32.064  17.892  1.00  0.00     0.188 HD
ATOM     23  H7  UNL     1      21.694  34.494  18.325  1.00  0.00     0.186 HD
BRANCH  19  24
HETATM   24  N2  UNL     1      22.236  31.361  15.395  1.00  0.00    -0.307 N 
HETATM   25  C21 UNL     1      21.460  30.757  14.405  1.00  0.00     0.271 C 
HETATM   26  O1  UNL     1      20.496  31.350  13.888  1.00  0.00    -0.266 OA
ATOM     27  H2  UNL     1      22.977  30.784  15.794  1.00  0.00     0.170 HD
BRANCH  25  28
HETATM   28  C22 UNL     1      21.732  29.395  13.920  1.00  0.00     0.094 C 
HETATM   29  N3  UNL     1      20.888  28.444  14.015  1.00  0.00    -0.285 N 
ATOM     30  H3  UNL     1      21.167  27.534  13.650  1.00  0.00     0.188 HD
BRANCH  28  31
HETATM   31  C23 UNL     1      23.050  29.137  13.303  1.00  0.00     0.060 C 
HETATM   32  C24 UNL     1      22.991  28.989  11.801  1.00  0.00     0.011 C 
ENDBRANCH  28  31
BRANCH  29  33
HETATM   33  N4  UNL     1      19.629  28.539  14.571  1.00  0.00    -0.249 N 
HETATM   34  N5  UNL     1      18.713  27.764  14.177  1.00  0.00    -0.331 N 
ATOM     35  H52 UNL     1      18.919  27.076  13.453  1.00  0.00     0.178 HD
ATOM     36  H51 UNL     1      17.781  27.835  14.588  1.00  0.00     0.178 HD
ATOM     37  H4  UNL     1      19.439  29.232  15.294  1.00  0.00     0.207 HD
ENDBRANCH  29  33
ENDBRANCH  25  28
ENDBRANCH  19  24
ENDBRANCH  16  17
ENDBRANCH  15  16
ENDBRANCH  14  15
ENDBRANCH  10  14
BRANCH   8  38
HETATM   38  C9  UNL     1      24.243  42.268  15.029  1.00  0.00     0.068 C 
BRANCH  38  39
HETATM   39  C10 UNL     1      25.671  41.873  15.328  1.00  0.00     0.276 C 
BRANCH  39  40
HETATM   40  N1  UNL     1      26.354  42.766  16.213  1.00  0.00     0.080 N 
HETATM   41  C11 UNL     1      25.843  44.104  16.209  1.00  0.00     0.309 C 
HETATM   42  C12 UNL     1      26.575  42.234  17.520  1.00  0.00     0.309 C 
ENDBRANCH  39  40
ENDBRANCH  38  39
ENDBRANCH   8  38
BRANCH  13  43
HETATM   43  N9  UNL     1      18.092  37.433  18.224  1.00  0.00    -0.306 N 
HETATM   44  C26 UNL     1      18.605  36.156  18.158  1.00  0.00     0.280 C 
HETATM   45  O2  UNL     1      19.659  35.837  18.736  1.00  0.00    -0.265 OA
ATOM     46  H9  UNL     1      17.248  37.531  18.788  1.00  0.00     0.170 HD
BRANCH  44  47
HETATM   47  C27 UNL     1      17.905  35.103  17.381  1.00  0.00     0.140 C 
HETATM   48  N10 UNL     1      18.578  34.499  16.525  1.00  0.00    -0.321 N 
HETATM   49  C28 UNL     1      18.388  33.498  15.605  1.00  0.00     0.186 C 
ATOM     50  H10 UNL     1      19.538  34.843  16.502  1.00  0.00     0.169 HD
HETATM   51  N11 UNL     1      18.369  32.257  16.025  1.00  0.00    -0.373 N 
HETATM   52  N12 UNL     1      18.225  33.739  14.194  1.00  0.00    -0.064 NA
ATOM     53 2H11 UNL     1      18.485  32.086  17.024  1.00  0.00     0.158 HD
ATOM     54 1H11 UNL     1      18.228  31.513  15.342  1.00  0.00     0.158 HD
BRANCH  47  55
HETATM   55  S1  UNL     1      16.197  34.770  17.702  1.00  0.00    -0.111 SA
HETATM   56  C29 UNL     1      15.023  35.774  16.828  1.00  0.00     0.097 C 
ENDBRANCH  47  55
ENDBRANCH  44  47
ENDBRANCH  13  43
TORSDOF 14
ENDMDL
