MODEL 1
REMARK VINA RESULT: -5.074021661      0.000      0.000
REMARK  13 active torsions:
REMARK  status: ('A' for Active; 'I' for Inactive)
REMARK    1  A    between atoms: C2_2  and  C3_3 
REMARK    2  A    between atoms: C3_3  and  C4_4 
REMARK    3  A    between atoms: C4_4  and  C5_5 
REMARK    4  A    between atoms: C6_6  and  O1_7 
REMARK    5  A    between atoms: C7_11  and  C8_12 
REMARK    6  A    between atoms: C11_15  and  O2_16 
REMARK    7  A    between atoms: C13_20  and  C14_21 
REMARK    8  A    between atoms: C18_30  and  C19_31 
REMARK    9  A    between atoms: C19_31  and  C20_32 
REMARK   10  A    between atoms: C20_32  and  C21_33 
REMARK   11  A    between atoms: C21_33  and  N5_34 
REMARK   12  A    between atoms: C24_43  and  C25_44 
REMARK   13  A    between atoms: C25_44  and  C26_45 
ROOT
HETATM    1  C5  UNL     1      17.432  40.808  19.459  1.00  0.00     0.161 C 
HETATM    2  C6  UNL     1      18.814  40.782  20.002  1.00  0.00     0.135 C 
HETATM    3  N1  UNL     1      19.403  41.517  21.014  1.00  0.00    -0.360 N 
ATOM      4  H1  UNL     1      19.994  42.274  20.670  1.00  0.00     0.162 HD
HETATM    5  C7  UNL     1      19.361  41.439  22.451  1.00  0.00     0.161 C 
HETATM    6  C11 UNL     1      20.578  40.866  23.050  1.00  0.00     0.141 C 
HETATM    7  N2  UNL     1      21.873  41.266  23.332  1.00  0.00    -0.340 N 
HETATM    8  C12 UNL     1      22.240  41.063  24.777  1.00  0.00     0.158 C 
HETATM    9  C13 UNL     1      22.958  41.780  22.549  1.00  0.00     0.008 C 
HETATM   10  C16 UNL     1      23.021  41.368  21.094  1.00  0.00     0.176 C 
HETATM   11  N3  UNL     1      22.959  42.493  20.215  1.00  0.00    -0.338 N 
ATOM     12  H3  UNL     1      22.330  43.230  20.532  1.00  0.00     0.164 HD
HETATM   13  C17 UNL     1      23.591  42.772  19.015  1.00  0.00     0.317 C 
HETATM   14  O3  UNL     1      24.265  43.873  18.949  1.00  0.00    -0.247 OA
HETATM   15  N4  UNL     1      23.604  42.003  17.815  1.00  0.00    -0.330 N 
ATOM     16  H4  UNL     1      24.489  41.907  17.316  1.00  0.00     0.165 HD
HETATM   17  C18 UNL     1      22.440  41.354  17.266  1.00  0.00     0.178 C 
HETATM   18  C23 UNL     1      21.718  42.299  16.353  1.00  0.00     0.241 C 
HETATM   19  O4  UNL     1      22.473  43.062  15.659  1.00  0.00    -0.271 OA
HETATM   20  N8  UNL     1      20.340  42.423  16.193  1.00  0.00    -0.346 N 
ATOM     21  H8  UNL     1      19.998  42.509  15.236  1.00  0.00     0.163 HD
HETATM   22  C24 UNL     1      19.324  42.442  17.259  1.00  0.00     0.177 C 
HETATM   23  C29 UNL     1      18.418  41.321  17.151  1.00  0.00     0.243 C 
HETATM   24  O5  UNL     1      18.537  40.625  16.060  1.00  0.00    -0.271 OA
HETATM   25  N9  UNL     1      17.419  40.828  18.009  1.00  0.00    -0.343 N 
HETATM   26  C30 UNL     1      16.219  40.257  17.396  1.00  0.00     0.153 C 
ENDROOT
BRANCH  17  27
HETATM   27  C19 UNL     1      22.849  40.184  16.427  1.00  0.00     0.036 C 
BRANCH  27  28
HETATM   28  C20 UNL     1      21.831  39.212  16.004  1.00  0.00     0.022 C 
BRANCH  28  29
HETATM   29  C21 UNL     1      21.459  38.099  16.916  1.00  0.00     0.122 C 
BRANCH  29  30
HETATM   30  N5  UNL     1      19.990  38.076  17.130  1.00  0.00    -0.367 N 
HETATM   31  C22 UNL     1      19.552  37.166  17.916  1.00  0.00     0.196 C 
HETATM   32  N6  UNL     1      20.374  36.219  18.566  1.00  0.00    -0.067 NA
HETATM   33  N7  UNL     1      18.155  37.097  18.155  1.00  0.00    -0.067 NA
ATOM     34  H5  UNL     1      19.367  38.745  16.677  1.00  0.00     0.161 HD
ENDBRANCH  29  30
ENDBRANCH  28  29
ENDBRANCH  27  28
ENDBRANCH  17  27
BRANCH  22  35
HETATM   35  C25 UNL     1      18.693  43.769  17.398  1.00  0.00     0.038 C 
BRANCH  35  36
HETATM   36  C26 UNL     1      17.487  44.118  16.641  1.00  0.00    -0.020 C 
HETATM   37  C27 UNL     1      16.261  44.355  17.471  1.00  0.00     0.009 C 
HETATM   38  C28 UNL     1      17.725  45.441  15.877  1.00  0.00     0.009 C 
ENDBRANCH  35  36
ENDBRANCH  22  35
BRANCH   9  39
HETATM   39  C14 UNL     1      23.322  43.225  22.734  1.00  0.00     0.050 C 
HETATM   40  C15 UNL     1      22.197  44.153  23.084  1.00  0.00     0.011 C 
ENDBRANCH   9  39
BRANCH   1  41
HETATM   41  C4  UNL     1      16.682  39.671  20.084  1.00  0.00     0.034 C 
BRANCH  41  42
HETATM   42  C3  UNL     1      16.112  39.904  21.431  1.00  0.00     0.002 C 
BRANCH  42  43
HETATM   43  C2  UNL     1      15.294  41.191  21.406  1.00  0.00    -0.004 C 
HETATM   44  C1  UNL     1      13.821  40.975  21.433  1.00  0.00     0.005 C 
ENDBRANCH  42  43
ENDBRANCH  41  42
ENDBRANCH   1  41
BRANCH   6  45
HETATM   45  O2  UNL     1      20.358  39.612  23.421  1.00  0.00    -0.348 OA
ATOM     46  H2  UNL     1      21.182  39.150  23.522  1.00  0.00     0.219 HD
ENDBRANCH   6  45
BRANCH   2  47
HETATM   47  O1  UNL     1      19.525  39.888  19.358  1.00  0.00    -0.348 OA
ATOM     48  H1  UNL     1      20.243  40.315  18.906  1.00  0.00     0.219 HD
ENDBRANCH   2  47
BRANCH   5  49
HETATM   49  C8  UNL     1      18.808  42.673  23.126  1.00  0.00     0.008 C 
HETATM   50  C9  UNL     1      17.740  42.259  24.167  1.00  0.00     0.012 C 
HETATM   51  C10 UNL     1      18.111  43.639  22.244  1.00  0.00     0.012 C 
ENDBRANCH   5  49
TORSDOF 13
ENDMDL
MODEL 2
REMARK VINA RESULT: -4.955824844      2.035      4.682
REMARK  13 active torsions:
REMARK  status: ('A' for Active; 'I' for Inactive)
REMARK    1  A    between atoms: C2_2  and  C3_3 
REMARK    2  A    between atoms: C3_3  and  C4_4 
REMARK    3  A    between atoms: C4_4  and  C5_5 
REMARK    4  A    between atoms: C6_6  and  O1_7 
REMARK    5  A    between atoms: C7_11  and  C8_12 
REMARK    6  A    between atoms: C11_15  and  O2_16 
REMARK    7  A    between atoms: C13_20  and  C14_21 
REMARK    8  A    between atoms: C18_30  and  C19_31 
REMARK    9  A    between atoms: C19_31  and  C20_32 
REMARK   10  A    between atoms: C20_32  and  C21_33 
REMARK   11  A    between atoms: C21_33  and  N5_34 
REMARK   12  A    between atoms: C24_43  and  C25_44 
REMARK   13  A    between atoms: C25_44  and  C26_45 
ROOT
HETATM    1  C5  UNL     1      18.639  42.327  22.121  1.00  0.00     0.161 C 
HETATM    2  C6  UNL     1      19.761  41.786  21.314  1.00  0.00     0.135 C 
HETATM    3  N1  UNL     1      20.730  42.427  20.563  1.00  0.00    -0.360 N 
ATOM      4  H1  UNL     1      20.541  42.406  19.561  1.00  0.00     0.162 HD
HETATM    5  C7  UNL     1      21.948  43.117  20.896  1.00  0.00     0.161 C 
HETATM    6  C11 UNL     1      23.167  42.344  20.606  1.00  0.00     0.141 C 
HETATM    7  N2  UNL     1      23.927  41.998  19.501  1.00  0.00    -0.340 N 
HETATM    8  C12 UNL     1      25.376  42.376  19.655  1.00  0.00     0.158 C 
HETATM    9  C13 UNL     1      23.657  41.316  18.270  1.00  0.00     0.008 C 
HETATM   10  C16 UNL     1      22.547  40.288  18.275  1.00  0.00     0.176 C 
HETATM   11  N3  UNL     1      21.509  40.613  17.348  1.00  0.00    -0.338 N 
ATOM     12  H3  UNL     1      21.309  41.611  17.287  1.00  0.00     0.164 HD
HETATM   13  C17 UNL     1      20.725  39.832  16.516  1.00  0.00     0.317 C 
HETATM   14  O3  UNL     1      20.732  40.125  15.258  1.00  0.00    -0.247 OA
HETATM   15  N4  UNL     1      19.891  38.728  16.857  1.00  0.00    -0.330 N 
ATOM     16  H4  UNL     1      19.909  37.907  16.252  1.00  0.00     0.165 HD
HETATM   17  C18 UNL     1      19.023  38.704  18.009  1.00  0.00     0.178 C 
HETATM   18  C23 UNL     1      17.687  39.277  17.646  1.00  0.00     0.241 C 
HETATM   19  O4  UNL     1      17.277  38.990  16.470  1.00  0.00    -0.271 OA
HETATM   20  N8  UNL     1      16.868  40.070  18.447  1.00  0.00    -0.346 N 
ATOM     21  H8  UNL     1      15.874  39.846  18.446  1.00  0.00     0.163 HD
HETATM   22  C24 UNL     1      17.288  41.199  19.294  1.00  0.00     0.177 C 
HETATM   23  C29 UNL     1      17.027  40.941  20.692  1.00  0.00     0.243 C 
HETATM   24  O5  UNL     1      16.319  39.878  20.929  1.00  0.00    -0.271 OA
HETATM   25  N9  UNL     1      17.397  41.625  21.864  1.00  0.00    -0.343 N 
HETATM   26  C30 UNL     1      16.440  41.640  22.971  1.00  0.00     0.153 C 
ENDROOT
BRANCH  17  27
HETATM   27  C19 UNL     1      18.776  37.291  18.440  1.00  0.00     0.036 C 
BRANCH  27  28
HETATM   28  C20 UNL     1      19.351  36.191  17.656  1.00  0.00     0.022 C 
BRANCH  28  29
HETATM   29  C21 UNL     1      18.448  35.195  17.020  1.00  0.00     0.122 C 
BRANCH  29  30
HETATM   30  N5  UNL     1      17.214  35.859  16.527  1.00  0.00    -0.367 N 
HETATM   31  C22 UNL     1      16.133  35.561  17.145  1.00  0.00     0.196 C 
HETATM   32  N6  UNL     1      16.065  34.664  18.233  1.00  0.00    -0.067 NA
HETATM   33  N7  UNL     1      14.923  36.165  16.715  1.00  0.00    -0.067 NA
ATOM     34  H5  UNL     1      17.228  36.513  15.745  1.00  0.00     0.161 HD
ENDBRANCH  29  30
ENDBRANCH  28  29
ENDBRANCH  27  28
ENDBRANCH  17  27
BRANCH  22  35
HETATM   35  C25 UNL     1      16.799  42.492  18.775  1.00  0.00     0.038 C 
BRANCH  35  36
HETATM   36  C26 UNL     1      17.727  43.497  18.248  1.00  0.00    -0.020 C 
HETATM   37  C27 UNL     1      18.876  42.949  17.457  1.00  0.00     0.009 C 
HETATM   38  C28 UNL     1      16.972  44.435  17.278  1.00  0.00     0.009 C 
ENDBRANCH  35  36
ENDBRANCH  22  35
BRANCH   9  39
HETATM   39  C14 UNL     1      23.651  42.135  17.011  1.00  0.00     0.050 C 
HETATM   40  C15 UNL     1      24.676  41.771  15.978  1.00  0.00     0.011 C 
ENDBRANCH   9  39
BRANCH   1  41
HETATM   41  C4  UNL     1      19.078  42.334  23.554  1.00  0.00     0.034 C 
BRANCH  41  42
HETATM   42  C3  UNL     1      19.496  43.638  24.120  1.00  0.00     0.002 C 
BRANCH  42  43
HETATM   43  C2  UNL     1      20.956  43.546  24.550  1.00  0.00    -0.004 C 
HETATM   44  C1  UNL     1      21.507  42.162  24.535  1.00  0.00     0.005 C 
ENDBRANCH  42  43
ENDBRANCH  41  42
ENDBRANCH   1  41
BRANCH   6  45
HETATM   45  O2  UNL     1      23.669  41.843  21.726  1.00  0.00    -0.348 OA
ATOM     46  H2  UNL     1      23.129  42.088  22.467  1.00  0.00     0.219 HD
ENDBRANCH   6  45
BRANCH   2  47
HETATM   47  O1  UNL     1      19.760  40.476  21.376  1.00  0.00    -0.348 OA
ATOM     48  H1  UNL     1      20.133  40.117  20.580  1.00  0.00     0.219 HD
ENDBRANCH   2  47
BRANCH   5  49
HETATM   49  C8  UNL     1      21.972  44.572  20.487  1.00  0.00     0.008 C 
HETATM   50  C9  UNL     1      20.864  45.343  21.244  1.00  0.00     0.012 C 
HETATM   51  C10 UNL     1      21.704  44.849  19.055  1.00  0.00     0.012 C 
ENDBRANCH   5  49
TORSDOF 13
ENDMDL
MODEL 3
REMARK VINA RESULT: -4.940733127      1.235      1.548
REMARK  13 active torsions:
REMARK  status: ('A' for Active; 'I' for Inactive)
REMARK    1  A    between atoms: C2_2  and  C3_3 
REMARK    2  A    between atoms: C3_3  and  C4_4 
REMARK    3  A    between atoms: C4_4  and  C5_5 
REMARK    4  A    between atoms: C6_6  and  O1_7 
REMARK    5  A    between atoms: C7_11  and  C8_12 
REMARK    6  A    between atoms: C11_15  and  O2_16 
REMARK    7  A    between atoms: C13_20  and  C14_21 
REMARK    8  A    between atoms: C18_30  and  C19_31 
REMARK    9  A    between atoms: C19_31  and  C20_32 
REMARK   10  A    between atoms: C20_32  and  C21_33 
REMARK   11  A    between atoms: C21_33  and  N5_34 
REMARK   12  A    between atoms: C24_43  and  C25_44 
REMARK   13  A    between atoms: C25_44  and  C26_45 
ROOT
HETATM    1  C5  UNL     1      17.426  41.036  19.693  1.00  0.00     0.161 C 
HETATM    2  C6  UNL     1      18.866  40.955  20.045  1.00  0.00     0.135 C 
HETATM    3  N1  UNL     1      19.683  41.836  20.730  1.00  0.00    -0.360 N 
ATOM      4  H1  UNL     1      20.286  42.384  20.117  1.00  0.00     0.162 HD
HETATM    5  C7  UNL     1      19.862  42.143  22.125  1.00  0.00     0.161 C 
HETATM    6  C11 UNL     1      21.092  41.577  22.704  1.00  0.00     0.141 C 
HETATM    7  N2  UNL     1      22.451  41.847  22.698  1.00  0.00    -0.340 N 
HETATM    8  C12 UNL     1      23.019  41.977  24.086  1.00  0.00     0.158 C 
HETATM    9  C13 UNL     1      23.444  41.978  21.675  1.00  0.00     0.008 C 
HETATM   10  C16 UNL     1      23.231  41.196  20.396  1.00  0.00     0.176 C 
HETATM   11  N3  UNL     1      23.148  42.049  19.253  1.00  0.00    -0.338 N 
ATOM     12  H3  UNL     1      22.658  42.926  19.428  1.00  0.00     0.164 HD
HETATM   13  C17 UNL     1      23.606  41.912  17.954  1.00  0.00     0.317 C 
HETATM   14  O3  UNL     1      24.372  42.850  17.500  1.00  0.00    -0.247 OA
HETATM   15  N4  UNL     1      23.348  40.863  17.024  1.00  0.00    -0.330 N 
ATOM     16  H4  UNL     1      24.127  40.514  16.465  1.00  0.00     0.165 HD
HETATM   17  C18 UNL     1      22.050  40.267  16.827  1.00  0.00     0.178 C 
HETATM   18  C23 UNL     1      21.294  41.035  15.785  1.00  0.00     0.241 C 
HETATM   19  O4  UNL     1      22.005  41.474  14.817  1.00  0.00    -0.271 OA
HETATM   20  N8  UNL     1      19.929  41.309  15.770  1.00  0.00    -0.346 N 
ATOM     21  H8  UNL     1      19.450  41.191  14.877  1.00  0.00     0.163 HD
HETATM   22  C24 UNL     1      19.103  41.751  16.906  1.00  0.00     0.177 C 
HETATM   23  C29 UNL     1      18.080  40.783  17.229  1.00  0.00     0.243 C 
HETATM   24  O5  UNL     1      17.950  39.817  16.370  1.00  0.00    -0.271 OA
HETATM   25  N9  UNL     1      17.185  40.679  18.309  1.00  0.00    -0.343 N 
HETATM   26  C30 UNL     1      15.850  40.146  18.033  1.00  0.00     0.153 C 
ENDROOT
BRANCH  17  27
HETATM   27  C19 UNL     1      22.196  38.872  16.303  1.00  0.00     0.036 C 
BRANCH  27  28
HETATM   28  C20 UNL     1      22.233  37.750  17.250  1.00  0.00     0.022 C 
BRANCH  28  29
HETATM   29  C21 UNL     1      21.149  36.733  17.223  1.00  0.00     0.122 C 
BRANCH  29  30
HETATM   30  N5  UNL     1      19.836  37.372  17.495  1.00  0.00    -0.367 N 
HETATM   31  C22 UNL     1      19.014  36.685  18.196  1.00  0.00     0.196 C 
HETATM   32  N6  UNL     1      19.290  35.397  18.703  1.00  0.00    -0.067 NA
HETATM   33  N7  UNL     1      17.743  37.247  18.485  1.00  0.00    -0.067 NA
ATOM     34  H5  UNL     1      19.604  38.301  17.144  1.00  0.00     0.161 HD
ENDBRANCH  29  30
ENDBRANCH  28  29
ENDBRANCH  27  28
ENDBRANCH  17  27
BRANCH  22  35
HETATM   35  C25 UNL     1      18.644  43.145  16.748  1.00  0.00     0.038 C 
BRANCH  35  36
HETATM   36  C26 UNL     1      19.061  44.191  17.686  1.00  0.00    -0.020 C 
HETATM   37  C27 UNL     1      20.520  44.195  18.028  1.00  0.00     0.009 C 
HETATM   38  C28 UNL     1      18.783  45.580  17.065  1.00  0.00     0.009 C 
ENDBRANCH  35  36
ENDBRANCH  22  35
BRANCH   9  39
HETATM   39  C14 UNL     1      23.981  43.353  21.402  1.00  0.00     0.050 C 
HETATM   40  C15 UNL     1      23.016  44.488  21.575  1.00  0.00     0.011 C 
ENDBRANCH   9  39
BRANCH   1  41
HETATM   41  C4  UNL     1      16.670  40.221  20.699  1.00  0.00     0.034 C 
BRANCH  41  42
HETATM   42  C3  UNL     1      16.382  40.865  22.002  1.00  0.00     0.002 C 
BRANCH  42  43
HETATM   43  C2  UNL     1      16.372  39.796  23.090  1.00  0.00    -0.004 C 
HETATM   44  C1  UNL     1      17.460  39.944  24.095  1.00  0.00     0.005 C 
ENDBRANCH  42  43
ENDBRANCH  41  42
ENDBRANCH   1  41
BRANCH   6  45
HETATM   45  O2  UNL     1      20.805  40.508  23.434  1.00  0.00    -0.348 OA
ATOM     46  H2  UNL     1      21.089  39.719  22.988  1.00  0.00     0.219 HD
ENDBRANCH   6  45
BRANCH   2  47
HETATM   47  O1  UNL     1      19.369  39.832  19.592  1.00  0.00    -0.348 OA
ATOM     48  H1  UNL     1      19.871  40.000  18.804  1.00  0.00     0.219 HD
ENDBRANCH   2  47
BRANCH   5  49
HETATM   49  C8  UNL     1      19.555  43.576  22.493  1.00  0.00     0.008 C 
HETATM   50  C9  UNL     1      18.561  43.605  23.679  1.00  0.00     0.012 C 
HETATM   51  C10 UNL     1      18.900  44.391  21.441  1.00  0.00     0.012 C 
ENDBRANCH   5  49
TORSDOF 13
ENDMDL
MODEL 4
REMARK VINA RESULT: -4.883852488      0.758      1.106
REMARK  13 active torsions:
REMARK  status: ('A' for Active; 'I' for Inactive)
REMARK    1  A    between atoms: C2_2  and  C3_3 
REMARK    2  A    between atoms: C3_3  and  C4_4 
REMARK    3  A    between atoms: C4_4  and  C5_5 
REMARK    4  A    between atoms: C6_6  and  O1_7 
REMARK    5  A    between atoms: C7_11  and  C8_12 
REMARK    6  A    between atoms: C11_15  and  O2_16 
REMARK    7  A    between atoms: C13_20  and  C14_21 
REMARK    8  A    between atoms: C18_30  and  C19_31 
REMARK    9  A    between atoms: C19_31  and  C20_32 
REMARK   10  A    between atoms: C20_32  and  C21_33 
REMARK   11  A    between atoms: C21_33  and  N5_34 
REMARK   12  A    between atoms: C24_43  and  C25_44 
REMARK   13  A    between atoms: C25_44  and  C26_45 
ROOT
HETATM    1  C5  UNL     1      17.441  40.986  19.468  1.00  0.00     0.161 C 
HETATM    2  C6  UNL     1      18.821  40.913  20.009  1.00  0.00     0.135 C 
HETATM    3  N1  UNL     1      19.446  41.647  21.000  1.00  0.00    -0.360 N 
ATOM      4  H1  UNL     1      20.069  42.368  20.635  1.00  0.00     0.162 HD
HETATM    5  C7  UNL     1      19.406  41.609  22.438  1.00  0.00     0.161 C 
HETATM    6  C11 UNL     1      20.597  40.997  23.050  1.00  0.00     0.141 C 
HETATM    7  N2  UNL     1      21.910  41.347  23.319  1.00  0.00    -0.340 N 
HETATM    8  C12 UNL     1      22.272  41.165  24.768  1.00  0.00     0.158 C 
HETATM    9  C13 UNL     1      23.014  41.793  22.521  1.00  0.00     0.008 C 
HETATM   10  C16 UNL     1      23.054  41.341  21.077  1.00  0.00     0.176 C 
HETATM   11  N3  UNL     1      23.040  42.444  20.169  1.00  0.00    -0.338 N 
ATOM     12  H3  UNL     1      22.445  43.216  20.468  1.00  0.00     0.164 HD
HETATM   13  C17 UNL     1      23.679  42.664  18.961  1.00  0.00     0.317 C 
HETATM   14  O3  UNL     1      24.401  43.731  18.865  1.00  0.00    -0.247 OA
HETATM   15  N4  UNL     1      23.655  41.864  17.781  1.00  0.00    -0.330 N 
ATOM     16  H4  UNL     1      24.532  41.715  17.283  1.00  0.00     0.165 HD
HETATM   17  C18 UNL     1      22.461  41.253  17.251  1.00  0.00     0.178 C 
HETATM   18  C23 UNL     1      21.778  42.205  16.316  1.00  0.00     0.241 C 
HETATM   19  O4  UNL     1      22.564  42.915  15.600  1.00  0.00    -0.271 OA
HETATM   20  N8  UNL     1      20.407  42.385  16.155  1.00  0.00    -0.346 N 
ATOM     21  H8  UNL     1      20.066  42.462  15.197  1.00  0.00     0.163 HD
HETATM   22  C24 UNL     1      19.396  42.477  17.222  1.00  0.00     0.177 C 
HETATM   23  C29 UNL     1      18.441  41.395  17.145  1.00  0.00     0.243 C 
HETATM   24  O5  UNL     1      18.525  40.667  16.073  1.00  0.00    -0.271 OA
HETATM   25  N9  UNL     1      17.424  40.969  18.018  1.00  0.00    -0.343 N 
HETATM   26  C30 UNL     1      16.198  40.436  17.422  1.00  0.00     0.153 C 
ENDROOT
BRANCH  17  27
HETATM   27  C19 UNL     1      22.815  40.044  16.442  1.00  0.00     0.036 C 
BRANCH  27  28
HETATM   28  C20 UNL     1      21.754  39.110  16.045  1.00  0.00     0.022 C 
BRANCH  28  29
HETATM   29  C21 UNL     1      21.323  38.046  16.990  1.00  0.00     0.122 C 
BRANCH  29  30
HETATM   30  N5  UNL     1      19.852  38.094  17.186  1.00  0.00    -0.367 N 
HETATM   31  C22 UNL     1      19.364  37.215  17.979  1.00  0.00     0.196 C 
HETATM   32  N6  UNL     1      20.133  36.240  18.649  1.00  0.00    -0.067 NA
HETATM   33  N7  UNL     1      17.962  37.215  18.202  1.00  0.00    -0.067 NA
ATOM     34  H5  UNL     1      19.267  38.786  16.718  1.00  0.00     0.161 HD
ENDBRANCH  29  30
ENDBRANCH  28  29
ENDBRANCH  27  28
ENDBRANCH  17  27
BRANCH  22  35
HETATM   35  C25 UNL     1      18.825  43.834  17.328  1.00  0.00     0.038 C 
BRANCH  35  36
HETATM   36  C26 UNL     1      18.575  44.451  18.635  1.00  0.00    -0.020 C 
HETATM   37  C27 UNL     1      19.138  45.830  18.805  1.00  0.00     0.009 C 
HETATM   38  C28 UNL     1      17.052  44.602  18.849  1.00  0.00     0.009 C 
ENDBRANCH  35  36
ENDBRANCH  22  35
BRANCH   9  39
HETATM   39  C14 UNL     1      23.442  43.224  22.667  1.00  0.00     0.050 C 
HETATM   40  C15 UNL     1      24.820  43.452  23.215  1.00  0.00     0.011 C 
ENDBRANCH   9  39
BRANCH   1  41
HETATM   41  C4  UNL     1      16.643  39.900  20.124  1.00  0.00     0.034 C 
BRANCH  41  42
HETATM   42  C3  UNL     1      15.671  40.316  21.162  1.00  0.00     0.002 C 
BRANCH  42  43
HETATM   43  C2  UNL     1      16.101  39.734  22.504  1.00  0.00    -0.004 C 
HETATM   44  C1  UNL     1      15.035  39.757  23.544  1.00  0.00     0.005 C 
ENDBRANCH  42  43
ENDBRANCH  41  42
ENDBRANCH   1  41
BRANCH   6  45
HETATM   45  O2  UNL     1      20.324  39.765  23.454  1.00  0.00    -0.348 OA
ATOM     46  H2  UNL     1      20.771  39.580  24.271  1.00  0.00     0.219 HD
ENDBRANCH   6  45
BRANCH   2  47
HETATM   47  O1  UNL     1      19.491  39.972  19.387  1.00  0.00    -0.348 OA
ATOM     48  H1  UNL     1      20.414  40.044  19.597  1.00  0.00     0.219 HD
ENDBRANCH   2  47
BRANCH   5  49
HETATM   49  C8  UNL     1      18.910  42.883  23.083  1.00  0.00     0.008 C 
HETATM   50  C9  UNL     1      17.472  43.185  22.595  1.00  0.00     0.012 C 
HETATM   51  C10 UNL     1      19.674  44.113  22.764  1.00  0.00     0.012 C 
ENDBRANCH   5  49
TORSDOF 13
ENDMDL
MODEL 5
REMARK VINA RESULT: -4.649969771      2.148      5.160
REMARK  13 active torsions:
REMARK  status: ('A' for Active; 'I' for Inactive)
REMARK    1  A    between atoms: C2_2  and  C3_3 
REMARK    2  A    between atoms: C3_3  and  C4_4 
REMARK    3  A    between atoms: C4_4  and  C5_5 
REMARK    4  A    between atoms: C6_6  and  O1_7 
REMARK    5  A    between atoms: C7_11  and  C8_12 
REMARK    6  A    between atoms: C11_15  and  O2_16 
REMARK    7  A    between atoms: C13_20  and  C14_21 
REMARK    8  A    between atoms: C18_30  and  C19_31 
REMARK    9  A    between atoms: C19_31  and  C20_32 
REMARK   10  A    between atoms: C20_32  and  C21_33 
REMARK   11  A    between atoms: C21_33  and  N5_34 
REMARK   12  A    between atoms: C24_43  and  C25_44 
REMARK   13  A    between atoms: C25_44  and  C26_45 
ROOT
HETATM    1  C5  UNL     1      18.949  39.043  17.698  1.00  0.00     0.161 C 
HETATM    2  C6  UNL     1      18.976  40.227  18.593  1.00  0.00     0.135 C 
HETATM    3  N1  UNL     1      18.314  41.438  18.512  1.00  0.00    -0.360 N 
ATOM      4  H1  UNL     1      18.903  42.197  18.170  1.00  0.00     0.162 HD
HETATM    5  C7  UNL     1      16.969  41.856  18.810  1.00  0.00     0.161 C 
HETATM    6  C11 UNL     1      16.847  42.617  20.064  1.00  0.00     0.141 C 
HETATM    7  N2  UNL     1      17.108  43.899  20.519  1.00  0.00    -0.340 N 
HETATM    8  C12 UNL     1      15.904  44.545  21.149  1.00  0.00     0.158 C 
HETATM    9  C13 UNL     1      18.276  44.728  20.571  1.00  0.00     0.008 C 
HETATM   10  C16 UNL     1      19.616  44.032  20.678  1.00  0.00     0.176 C 
HETATM   11  N3  UNL     1      20.472  44.345  19.576  1.00  0.00    -0.338 N 
ATOM     12  H3  UNL     1      19.983  44.425  18.685  1.00  0.00     0.164 HD
HETATM   13  C17 UNL     1      21.836  44.560  19.489  1.00  0.00     0.317 C 
HETATM   14  O3  UNL     1      22.222  45.677  18.966  1.00  0.00    -0.247 OA
HETATM   15  N4  UNL     1      22.901  43.707  19.902  1.00  0.00    -0.330 N 
ATOM     16  H4  UNL     1      23.694  44.128  20.386  1.00  0.00     0.165 HD
HETATM   17  C18 UNL     1      22.922  42.283  19.674  1.00  0.00     0.178 C 
HETATM   18  C23 UNL     1      23.544  41.994  18.341  1.00  0.00     0.241 C 
HETATM   19  O4  UNL     1      24.519  42.757  18.024  1.00  0.00    -0.271 OA
HETATM   20  N8  UNL     1      23.171  41.001  17.438  1.00  0.00    -0.346 N 
ATOM     21  H8  UNL     1      23.928  40.472  17.005  1.00  0.00     0.163 HD
HETATM   22  C24 UNL     1      21.801  40.633  17.045  1.00  0.00     0.177 C 
HETATM   23  C29 UNL     1      21.486  39.274  17.422  1.00  0.00     0.243 C 
HETATM   24  O5  UNL     1      22.494  38.578  17.854  1.00  0.00    -0.271 OA
HETATM   25  N9  UNL     1      20.282  38.547  17.414  1.00  0.00    -0.343 N 
HETATM   26  C30 UNL     1      20.353  37.121  17.091  1.00  0.00     0.153 C 
ENDROOT
BRANCH  17  27
HETATM   27  C19 UNL     1      23.781  41.609  20.698  1.00  0.00     0.036 C 
BRANCH  27  28
HETATM   28  C20 UNL     1      23.630  41.971  22.113  1.00  0.00     0.022 C 
BRANCH  28  29
HETATM   29  C21 UNL     1      22.654  41.232  22.957  1.00  0.00     0.122 C 
BRANCH  29  30
HETATM   30  N5  UNL     1      21.265  41.562  22.551  1.00  0.00    -0.367 N 
HETATM   31  C22 UNL     1      20.360  40.741  22.930  1.00  0.00     0.196 C 
HETATM   32  N6  UNL     1      20.614  39.578  23.690  1.00  0.00    -0.067 NA
HETATM   33  N7  UNL     1      19.014  41.008  22.569  1.00  0.00    -0.067 NA
ATOM     34  H5  UNL     1      21.045  42.394  22.003  1.00  0.00     0.161 HD
ENDBRANCH  29  30
ENDBRANCH  28  29
ENDBRANCH  27  28
ENDBRANCH  17  27
BRANCH  22  35
HETATM   35  C25 UNL     1      21.512  40.996  15.643  1.00  0.00     0.038 C 
BRANCH  35  36
HETATM   36  C26 UNL     1      22.515  40.813  14.590  1.00  0.00    -0.020 C 
HETATM   37  C27 UNL     1      22.070  39.981  13.425  1.00  0.00     0.009 C 
HETATM   38  C28 UNL     1      22.888  42.188  13.991  1.00  0.00     0.009 C 
ENDBRANCH  35  36
ENDBRANCH  22  35
BRANCH   9  39
HETATM   39  C14 UNL     1      18.333  45.905  19.642  1.00  0.00     0.050 C 
HETATM   40  C15 UNL     1      17.683  45.726  18.302  1.00  0.00     0.011 C 
ENDBRANCH   9  39
BRANCH   1  41
HETATM   41  C4  UNL     1      18.017  38.040  18.308  1.00  0.00     0.034 C 
BRANCH  41  42
HETATM   42  C3  UNL     1      16.632  38.007  17.783  1.00  0.00     0.002 C 
BRANCH  42  43
HETATM   43  C2  UNL     1      16.526  36.905  16.735  1.00  0.00    -0.004 C 
HETATM   44  C1  UNL     1      15.422  35.936  16.983  1.00  0.00     0.005 C 
ENDBRANCH  42  43
ENDBRANCH  41  42
ENDBRANCH   1  41
BRANCH   6  45
HETATM   45  O2  UNL     1      16.345  41.849  21.021  1.00  0.00    -0.348 OA
ATOM     46  H2  UNL     1      16.774  42.031  21.848  1.00  0.00     0.219 HD
ENDBRANCH   6  45
BRANCH   2  47
HETATM   47  O1  UNL     1      19.788  40.004  19.598  1.00  0.00    -0.348 OA
ATOM     48  H1  UNL     1      20.499  40.633  19.581  1.00  0.00     0.219 HD
ENDBRANCH   2  47
BRANCH   5  49
HETATM   49  C8  UNL     1      16.209  42.405  17.625  1.00  0.00     0.008 C 
HETATM   50  C9  UNL     1      14.698  42.114  17.796  1.00  0.00     0.012 C 
HETATM   51  C10 UNL     1      16.551  41.820  16.306  1.00  0.00     0.012 C 
ENDBRANCH   5  49
TORSDOF 13
ENDMDL
