MODEL 1
REMARK VINA RESULT: -5.757240526      0.000      0.000
REMARK  5 active torsions:
REMARK  status: ('A' for Active; 'I' for Inactive)
REMARK    1  A    between atoms: N2_5  and  C3_6 
REMARK    2  A    between atoms: C3_6  and  C4_7 
REMARK    3  A    between atoms: C6_10  and  N3_11 
REMARK    4  A    between atoms: N3_11  and  C7_13 
REMARK    5  A    between atoms: N5_17  and  C9_19 
ROOT
HETATM    1  C7  UNL     1      28.044   2.161   3.098  1.00  0.00     0.162 A 
HETATM    2  N4  UNL     1      29.033   1.628   3.876  1.00  0.00    -0.173 N 
ATOM      3  H4  UNL     1      29.563   2.267   4.468  1.00  0.00     0.186 HD
HETATM    4  C8  UNL     1      29.356   0.344   3.919  1.00  0.00     0.684 A 
HETATM    5  N5  UNL     1      30.306  -0.185   4.591  1.00  0.00    -0.191 N 
ATOM      6  H5  UNL     1      30.402  -1.197   4.505  1.00  0.00     0.184 HD
HETATM    7  N6  UNL     1      28.646  -0.540   3.125  1.00  0.00    -0.199 N 
ATOM      8  H6  UNL     1      28.864  -1.536   3.131  1.00  0.00     0.183 HD
HETATM    9  C15 UNL     1      27.670  -0.058   2.350  1.00  0.00     0.152 A 
HETATM   10  C16 UNL     1      27.327   1.263   2.294  1.00  0.00     0.176 A 
HETATM   11  F4  UNL     1      26.320   1.734   1.488  1.00  0.00    -0.201 F 
ENDROOT
BRANCH   1  12
HETATM   12  N3  UNL     1      27.751   3.343   3.073  1.00  0.00    -0.337 N 
ATOM     13  H3  UNL     1      28.472   3.851   2.560  1.00  0.00     0.167 HD
BRANCH  12  14
HETATM   14  C6  UNL     1      26.795   4.233   3.490  1.00  0.00     0.074 A 
HETATM   15  C2  UNL     1      26.899   5.593   3.818  1.00  0.00     0.050 A 
HETATM   16  C1  UNL     1      28.172   6.374   3.780  1.00  0.00     0.072 C 
HETATM   17  N1  UNL     1      25.673   6.027   4.154  1.00  0.00    -0.301 N 
HETATM   18  N2  UNL     1      24.778   5.060   4.076  1.00  0.00    -0.299 N 
ATOM     19  H1  UNL     1      25.460   6.983   4.436  1.00  0.00     0.187 HD
HETATM   20  C5  UNL     1      25.444   3.964   3.672  1.00  0.00     0.141 A 
BRANCH  18  21
HETATM   21  C3  UNL     1      23.336   5.168   4.367  1.00  0.00     0.179 C 
BRANCH  21  22
HETATM   22  C4  UNL     1      22.681   3.869   3.976  1.00  0.00     0.243 C 
HETATM   23  F1  UNL     1      23.025   2.919   4.891  1.00  0.00    -0.254 F 
ENDBRANCH  21  22
ENDBRANCH  18  21
ENDBRANCH  12  14
ENDBRANCH   1  12
BRANCH   5  24
HETATM   24  C9  UNL     1      31.239   0.451   5.435  1.00  0.00     0.055 A 
HETATM   25  C10 UNL     1      32.155  -0.258   6.208  1.00  0.00     0.072 A 
HETATM   26  C11 UNL     1      33.055   0.339   7.047  1.00  0.00     0.121 A 
HETATM   27  F2  UNL     1      33.950  -0.358   7.793  1.00  0.00    -0.206 F 
HETATM   28  C12 UNL     1      33.071   1.718   7.144  1.00  0.00     0.084 A 
HETATM   29  C13 UNL     1      32.187   2.451   6.401  1.00  0.00     0.121 A 
HETATM   30  F3  UNL     1      32.215   3.789   6.519  1.00  0.00    -0.206 F 
HETATM   31  C14 UNL     1      31.283   1.824   5.560  1.00  0.00     0.072 A 
ENDBRANCH   5  24
TORSDOF 5
ENDMDL
MODEL 2
REMARK VINA RESULT: -5.747266647      0.022      1.593
REMARK  5 active torsions:
REMARK  status: ('A' for Active; 'I' for Inactive)
REMARK    1  A    between atoms: N2_5  and  C3_6 
REMARK    2  A    between atoms: C3_6  and  C4_7 
REMARK    3  A    between atoms: C6_10  and  N3_11 
REMARK    4  A    between atoms: N3_11  and  C7_13 
REMARK    5  A    between atoms: N5_17  and  C9_19 
ROOT
HETATM    1  C7  UNL     1      28.041   2.158   3.097  1.00  0.00     0.162 A 
HETATM    2  N4  UNL     1      29.024   1.622   3.883  1.00  0.00    -0.173 N 
ATOM      3  H4  UNL     1      29.548   2.259   4.482  1.00  0.00     0.186 HD
HETATM    4  C8  UNL     1      29.346   0.339   3.925  1.00  0.00     0.684 A 
HETATM    5  N5  UNL     1      30.290  -0.192   4.604  1.00  0.00    -0.191 N 
ATOM      6  H5  UNL     1      30.387  -1.204   4.515  1.00  0.00     0.184 HD
HETATM    7  N6  UNL     1      28.645  -0.543   3.121  1.00  0.00    -0.199 N 
ATOM      8  H6  UNL     1      28.863  -1.539   3.125  1.00  0.00     0.183 HD
HETATM    9  C15 UNL     1      27.676  -0.059   2.338  1.00  0.00     0.152 A 
HETATM   10  C16 UNL     1      27.333   1.262   2.283  1.00  0.00     0.176 A 
HETATM   11  F4  UNL     1      26.334   1.736   1.470  1.00  0.00    -0.201 F 
ENDROOT
BRANCH   1  12
HETATM   12  N3  UNL     1      27.749   3.340   3.073  1.00  0.00    -0.337 N 
ATOM     13  H3  UNL     1      28.470   3.848   2.561  1.00  0.00     0.167 HD
BRANCH  12  14
HETATM   14  C6  UNL     1      26.792   4.229   3.490  1.00  0.00     0.074 A 
HETATM   15  C2  UNL     1      26.896   5.587   3.823  1.00  0.00     0.050 A 
HETATM   16  C1  UNL     1      28.170   6.367   3.793  1.00  0.00     0.072 C 
HETATM   17  N1  UNL     1      25.669   6.021   4.158  1.00  0.00    -0.301 N 
HETATM   18  N2  UNL     1      24.774   5.056   4.072  1.00  0.00    -0.299 N 
ATOM     19  H1  UNL     1      25.456   6.977   4.442  1.00  0.00     0.187 HD
HETATM   20  C5  UNL     1      25.440   3.960   3.667  1.00  0.00     0.141 A 
BRANCH  18  21
HETATM   21  C3  UNL     1      23.331   5.164   4.359  1.00  0.00     0.179 C 
BRANCH  21  22
HETATM   22  C4  UNL     1      22.681   3.856   3.990  1.00  0.00     0.243 C 
HETATM   23  F1  UNL     1      23.028   2.924   4.921  1.00  0.00    -0.254 F 
ENDBRANCH  21  22
ENDBRANCH  18  21
ENDBRANCH  12  14
ENDBRANCH   1  12
BRANCH   5  24
HETATM   24  C9  UNL     1      31.215   0.442   5.459  1.00  0.00     0.055 A 
HETATM   25  C10 UNL     1      31.287   1.827   5.590  1.00  0.00     0.072 A 
HETATM   26  C11 UNL     1      32.188   2.461   6.399  1.00  0.00     0.121 A 
HETATM   27  F2  UNL     1      32.249   3.812   6.526  1.00  0.00    -0.206 F 
HETATM   28  C12 UNL     1      33.081   1.704   7.136  1.00  0.00     0.084 A 
HETATM   29  C13 UNL     1      33.041   0.340   7.035  1.00  0.00     0.121 A 
HETATM   30  F3  UNL     1      33.924  -0.374   7.753  1.00  0.00    -0.206 F 
HETATM   31  C14 UNL     1      32.121  -0.280   6.207  1.00  0.00     0.072 A 
ENDBRANCH   5  24
TORSDOF 5
ENDMDL
MODEL 3
REMARK VINA RESULT: -5.412792652      1.656      2.321
REMARK  5 active torsions:
REMARK  status: ('A' for Active; 'I' for Inactive)
REMARK    1  A    between atoms: N2_5  and  C3_6 
REMARK    2  A    between atoms: C3_6  and  C4_7 
REMARK    3  A    between atoms: C6_10  and  N3_11 
REMARK    4  A    between atoms: N3_11  and  C7_13 
REMARK    5  A    between atoms: N5_17  and  C9_19 
ROOT
HETATM    1  C7  UNL     1      27.107   1.885   3.985  1.00  0.00     0.162 A 
HETATM    2  N4  UNL     1      28.382   1.518   4.314  1.00  0.00    -0.173 N 
ATOM      3  H4  UNL     1      28.767   1.881   5.186  1.00  0.00     0.186 HD
HETATM    4  C8  UNL     1      29.155   0.726   3.587  1.00  0.00     0.684 A 
HETATM    5  N5  UNL     1      30.366   0.402   3.832  1.00  0.00    -0.191 N 
ATOM      6  H5  UNL     1      30.804  -0.227   3.159  1.00  0.00     0.184 HD
HETATM    7  N6  UNL     1      28.649   0.220   2.402  1.00  0.00    -0.199 N 
ATOM      8  H6  UNL     1      29.213  -0.394   1.814  1.00  0.00     0.183 HD
HETATM    9  C15 UNL     1      27.406   0.555   2.044  1.00  0.00     0.152 A 
HETATM   10  C16 UNL     1      26.598   1.372   2.783  1.00  0.00     0.176 A 
HETATM   11  F4  UNL     1      25.324   1.704   2.394  1.00  0.00    -0.201 F 
ENDROOT
BRANCH   1  12
HETATM   12  N3  UNL     1      26.403   2.609   4.666  1.00  0.00    -0.337 N 
ATOM     13  H3  UNL     1      26.545   2.377   5.649  1.00  0.00     0.167 HD
BRANCH  12  14
HETATM   14  C6  UNL     1      25.486   3.624   4.578  1.00  0.00     0.074 A 
HETATM   15  C2  UNL     1      24.089   3.603   4.706  1.00  0.00     0.050 A 
HETATM   16  C1  UNL     1      23.286   2.370   4.968  1.00  0.00     0.072 C 
HETATM   17  N1  UNL     1      23.645   4.861   4.552  1.00  0.00    -0.301 N 
HETATM   18  N2  UNL     1      24.638   5.702   4.332  1.00  0.00    -0.299 N 
ATOM     19  H1  UNL     1      22.663   5.133   4.600  1.00  0.00     0.187 HD
HETATM   20  C5  UNL     1      25.763   4.966   4.346  1.00  0.00     0.141 A 
BRANCH  18  21
HETATM   21  C3  UNL     1      24.529   7.158   4.121  1.00  0.00     0.179 C 
BRANCH  21  22
HETATM   22  C4  UNL     1      25.032   7.467   2.735  1.00  0.00     0.243 C 
HETATM   23  F1  UNL     1      26.384   7.293   2.717  1.00  0.00    -0.254 F 
ENDBRANCH  21  22
ENDBRANCH  18  21
ENDBRANCH  12  14
ENDBRANCH   1  12
BRANCH   5  24
HETATM   24  C9  UNL     1      31.176   0.803   4.915  1.00  0.00     0.055 A 
HETATM   25  C10 UNL     1      31.903  -0.104   5.683  1.00  0.00     0.072 A 
HETATM   26  C11 UNL     1      32.679   0.262   6.747  1.00  0.00     0.121 A 
HETATM   27  F2  UNL     1      33.390  -0.627   7.488  1.00  0.00    -0.206 F 
HETATM   28  C12 UNL     1      32.758   1.598   7.094  1.00  0.00     0.084 A 
HETATM   29  C13 UNL     1      32.059   2.521   6.365  1.00  0.00     0.121 A 
HETATM   30  F3  UNL     1      32.144   3.811   6.726  1.00  0.00    -0.206 F 
HETATM   31  C14 UNL     1      31.278   2.126   5.291  1.00  0.00     0.072 A 
ENDBRANCH   5  24
TORSDOF 5
ENDMDL
MODEL 4
REMARK VINA RESULT: -5.409074820      1.674      2.815
REMARK  5 active torsions:
REMARK  status: ('A' for Active; 'I' for Inactive)
REMARK    1  A    between atoms: N2_5  and  C3_6 
REMARK    2  A    between atoms: C3_6  and  C4_7 
REMARK    3  A    between atoms: C6_10  and  N3_11 
REMARK    4  A    between atoms: N3_11  and  C7_13 
REMARK    5  A    between atoms: N5_17  and  C9_19 
ROOT
HETATM    1  C7  UNL     1      27.086   1.874   3.989  1.00  0.00     0.162 A 
HETATM    2  N4  UNL     1      28.361   1.512   4.325  1.00  0.00    -0.173 N 
ATOM      3  H4  UNL     1      28.737   1.872   5.202  1.00  0.00     0.186 HD
HETATM    4  C8  UNL     1      29.144   0.730   3.599  1.00  0.00     0.684 A 
HETATM    5  N5  UNL     1      30.356   0.412   3.851  1.00  0.00    -0.191 N 
ATOM      6  H5  UNL     1      30.803  -0.209   3.177  1.00  0.00     0.184 HD
HETATM    7  N6  UNL     1      28.651   0.229   2.407  1.00  0.00    -0.199 N 
ATOM      8  H6  UNL     1      29.223  -0.378   1.819  1.00  0.00     0.183 HD
HETATM    9  C15 UNL     1      27.408   0.558   2.042  1.00  0.00     0.152 A 
HETATM   10  C16 UNL     1      26.589   1.365   2.780  1.00  0.00     0.176 A 
HETATM   11  F4  UNL     1      25.316   1.691   2.384  1.00  0.00    -0.201 F 
ENDROOT
BRANCH   1  12
HETATM   12  N3  UNL     1      26.372   2.588   4.670  1.00  0.00    -0.337 N 
ATOM     13  H3  UNL     1      26.485   2.330   5.650  1.00  0.00     0.167 HD
BRANCH  12  14
HETATM   14  C6  UNL     1      25.470   3.617   4.584  1.00  0.00     0.074 A 
HETATM   15  C2  UNL     1      24.072   3.613   4.702  1.00  0.00     0.050 A 
HETATM   16  C1  UNL     1      23.250   2.390   4.949  1.00  0.00     0.072 C 
HETATM   17  N1  UNL     1      23.646   4.879   4.556  1.00  0.00    -0.301 N 
HETATM   18  N2  UNL     1      24.652   5.707   4.349  1.00  0.00    -0.299 N 
ATOM     19  H1  UNL     1      22.668   5.163   4.599  1.00  0.00     0.187 HD
HETATM   20  C5  UNL     1      25.767   4.956   4.364  1.00  0.00     0.141 A 
BRANCH  18  21
HETATM   21  C3  UNL     1      24.565   7.166   4.148  1.00  0.00     0.179 C 
BRANCH  21  22
HETATM   22  C4  UNL     1      24.955   7.466   2.725  1.00  0.00     0.243 C 
HETATM   23  F1  UNL     1      26.313   7.407   2.628  1.00  0.00    -0.254 F 
ENDBRANCH  21  22
ENDBRANCH  18  21
ENDBRANCH  12  14
ENDBRANCH   1  12
BRANCH   5  24
HETATM   24  C9  UNL     1      31.155   0.811   4.942  1.00  0.00     0.055 A 
HETATM   25  C10 UNL     1      31.282   2.143   5.331  1.00  0.00     0.072 A 
HETATM   26  C11 UNL     1      32.065   2.552   6.374  1.00  0.00     0.121 A 
HETATM   27  F2  UNL     1      32.180   3.852   6.751  1.00  0.00    -0.206 F 
HETATM   28  C12 UNL     1      32.775   1.608   7.093  1.00  0.00     0.084 A 
HETATM   29  C13 UNL     1      32.677   0.289   6.743  1.00  0.00     0.121 A 
HETATM   30  F3  UNL     1      33.382  -0.609   7.451  1.00  0.00    -0.206 F 
HETATM   31  C14 UNL     1      31.878  -0.101   5.681  1.00  0.00     0.072 A 
ENDBRANCH   5  24
TORSDOF 5
ENDMDL
MODEL 5
REMARK VINA RESULT: -4.912544660      1.569      2.195
REMARK  5 active torsions:
REMARK  status: ('A' for Active; 'I' for Inactive)
REMARK    1  A    between atoms: N2_5  and  C3_6 
REMARK    2  A    between atoms: C3_6  and  C4_7 
REMARK    3  A    between atoms: C6_10  and  N3_11 
REMARK    4  A    between atoms: N3_11  and  C7_13 
REMARK    5  A    between atoms: N5_17  and  C9_19 
ROOT
HETATM    1  C7  UNL     1      27.195   1.534   4.463  1.00  0.00     0.162 A 
HETATM    2  N4  UNL     1      28.461   1.163   4.821  1.00  0.00    -0.173 N 
ATOM      3  H4  UNL     1      28.971   1.778   5.455  1.00  0.00     0.186 HD
HETATM    4  C8  UNL     1      29.077   0.066   4.408  1.00  0.00     0.684 A 
HETATM    5  N5  UNL     1      30.275  -0.288   4.676  1.00  0.00    -0.191 N 
ATOM      6  H5  UNL     1      30.579  -1.173   4.271  1.00  0.00     0.184 HD
HETATM    7  N6  UNL     1      28.401  -0.784   3.549  1.00  0.00    -0.199 N 
ATOM      8  H6  UNL     1      28.840  -1.639   3.209  1.00  0.00     0.183 HD
HETATM    9  C15 UNL     1      27.160  -0.458   3.175  1.00  0.00     0.152 A 
HETATM   10  C16 UNL     1      26.513   0.671   3.592  1.00  0.00     0.176 A 
HETATM   11  F4  UNL     1      25.238   0.985   3.194  1.00  0.00    -0.201 F 
ENDROOT
BRANCH   1  12
HETATM   12  N3  UNL     1      26.637   2.542   4.856  1.00  0.00    -0.337 N 
ATOM     13  H3  UNL     1      26.674   2.563   5.876  1.00  0.00     0.167 HD
BRANCH  12  14
HETATM   14  C6  UNL     1      25.976   3.658   4.414  1.00  0.00     0.074 A 
HETATM   15  C2  UNL     1      24.611   3.983   4.451  1.00  0.00     0.050 A 
HETATM   16  C1  UNL     1      23.549   3.094   5.012  1.00  0.00     0.072 C 
HETATM   17  N1  UNL     1      24.466   5.201   3.904  1.00  0.00    -0.301 N 
HETATM   18  N2  UNL     1      25.623   5.697   3.511  1.00  0.00    -0.299 N 
ATOM     19  H1  UNL     1      23.573   5.682   3.805  1.00  0.00     0.187 HD
HETATM   20  C5  UNL     1      26.551   4.772   3.814  1.00  0.00     0.141 A 
BRANCH  18  21
HETATM   21  C3  UNL     1      25.850   7.008   2.872  1.00  0.00     0.179 C 
BRANCH  21  22
HETATM   22  C4  UNL     1      24.607   7.838   3.057  1.00  0.00     0.243 C 
HETATM   23  F1  UNL     1      24.218   7.750   4.360  1.00  0.00    -0.254 F 
ENDBRANCH  21  22
ENDBRANCH  18  21
ENDBRANCH  12  14
ENDBRANCH   1  12
BRANCH   5  24
HETATM   24  C9  UNL     1      31.232   0.390   5.461  1.00  0.00     0.055 A 
HETATM   25  C10 UNL     1      32.165  -0.280   6.248  1.00  0.00     0.072 A 
HETATM   26  C11 UNL     1      33.088   0.358   7.029  1.00  0.00     0.121 A 
HETATM   27  F2  UNL     1      33.999  -0.302   7.791  1.00  0.00    -0.206 F 
HETATM   28  C12 UNL     1      33.111   1.740   7.051  1.00  0.00     0.084 A 
HETATM   29  C13 UNL     1      32.211   2.435   6.291  1.00  0.00     0.121 A 
HETATM   30  F3  UNL     1      32.247   3.777   6.334  1.00  0.00    -0.206 F 
HETATM   31  C14 UNL     1      31.284   1.767   5.508  1.00  0.00     0.072 A 
ENDBRANCH   5  24
TORSDOF 5
ENDMDL
