MODEL 1
REMARK VINA RESULT: -3.612542232      0.000      0.000
REMARK  5 active torsions:
REMARK  status: ('A' for Active; 'I' for Inactive)
REMARK    1  A    between atoms: C2_2  and  N1_4 
REMARK    2  A    between atoms: N2_7  and  C6_8 
REMARK    3  A    between atoms: C8_10  and  C9_11 
REMARK    4  A    between atoms: C9_11  and  C10_12 
REMARK    5  A    between atoms: C16_24  and  N4_25 
ROOT
HETATM    1  C6  UNL     1      27.112   1.275   4.014  1.00  0.00     0.121 A 
HETATM    2  C7  UNL     1      28.495   1.339   3.822  1.00  0.00     0.074 A 
HETATM    3  C8  UNL     1      29.266   0.201   3.842  1.00  0.00     0.034 A 
HETATM    4  N3  UNL     1      28.632  -0.973   4.054  1.00  0.00    -0.195 N 
ATOM      5  H3  UNL     1      29.177  -1.834   4.075  1.00  0.00     0.184 HD
HETATM    6  C16 UNL     1      27.305  -1.036   4.238  1.00  0.00     0.677 A 
HETATM    7  N5  UNL     1      26.541   0.069   4.219  1.00  0.00    -0.177 N 
ATOM      8  H5  UNL     1      25.533  -0.003   4.359  1.00  0.00     0.185 HD
ENDROOT
BRANCH   3   9
HETATM    9  C9  UNL     1      30.729   0.313   3.648  1.00  0.00     0.102 C 
BRANCH   9  10
HETATM   10  C10 UNL     1      31.403   0.767   4.864  1.00  0.00     0.031 A 
HETATM   11  C11 UNL     1      31.382   2.104   5.274  1.00  0.00     0.164 A 
HETATM   12  F1  UNL     1      30.676   3.016   4.519  1.00  0.00    -0.202 F 
HETATM   13  C12 UNL     1      32.054   2.478   6.422  1.00  0.00     0.158 A 
HETATM   14  F2  UNL     1      32.034   3.780   6.843  1.00  0.00    -0.203 F 
HETATM   15  C13 UNL     1      32.740   1.530   7.150  1.00  0.00     0.090 A 
HETATM   16  C14 UNL     1      32.763   0.203   6.744  1.00  0.00     0.158 A 
HETATM   17  F3  UNL     1      33.460  -0.729   7.478  1.00  0.00    -0.203 F 
HETATM   18  C15 UNL     1      32.100  -0.186   5.606  1.00  0.00     0.164 A 
HETATM   19  F4  UNL     1      32.109  -1.476   5.184  1.00  0.00    -0.202 F 
ENDBRANCH   9  10
ENDBRANCH   3   9
BRANCH   1  20
HETATM   20  N2  UNL     1      26.411   2.501   3.992  1.00  0.00    -0.363 N 
HETATM   21  C5  UNL     1      27.103   3.730   3.728  1.00  0.00     0.154 C 
HETATM   22  C4  UNL     1      26.180   4.901   3.631  1.00  0.00     0.292 C 
HETATM   23  N1  UNL     1      25.210   4.967   4.652  1.00  0.00     0.095 N 
HETATM   24  C18 UNL     1      24.648   3.738   5.125  1.00  0.00     0.292 C 
HETATM   25  C17 UNL     1      24.983   2.558   4.230  1.00  0.00     0.154 C 
BRANCH  23  26
HETATM   26  C2  UNL     1      24.217   5.997   4.431  1.00  0.00     0.215 C 
HETATM   27  C1  UNL     1      22.962   5.341   3.934  1.00  0.00     0.042 C 
HETATM   28  C3  UNL     1      24.654   7.022   3.415  1.00  0.00     0.042 C 
ENDBRANCH  23  26
ENDBRANCH   1  20
BRANCH   6  29
HETATM   29  N4  UNL     1      26.730  -2.182   4.441  1.00  0.00    -0.234 N 
ATOM     30  H42 UNL     1      26.108  -2.547   3.721  1.00  0.00     0.174 HD
ATOM     31  H41 UNL     1      26.904  -2.695   5.305  1.00  0.00     0.174 HD
ENDBRANCH   6  29
TORSDOF 5
ENDMDL
MODEL 2
REMARK VINA RESULT: -3.421382881      0.073      2.058
REMARK  5 active torsions:
REMARK  status: ('A' for Active; 'I' for Inactive)
REMARK    1  A    between atoms: C2_2  and  N1_4 
REMARK    2  A    between atoms: N2_7  and  C6_8 
REMARK    3  A    between atoms: C8_10  and  C9_11 
REMARK    4  A    between atoms: C9_11  and  C10_12 
REMARK    5  A    between atoms: C16_24  and  N4_25 
ROOT
HETATM    1  C6  UNL     1      27.125   1.356   4.024  1.00  0.00     0.121 A 
HETATM    2  C7  UNL     1      28.503   1.430   3.806  1.00  0.00     0.074 A 
HETATM    3  C8  UNL     1      29.285   0.299   3.829  1.00  0.00     0.034 A 
HETATM    4  N3  UNL     1      28.665  -0.878   4.068  1.00  0.00    -0.195 N 
ATOM      5  H3  UNL     1      29.218  -1.734   4.091  1.00  0.00     0.184 HD
HETATM    6  C16 UNL     1      27.343  -0.951   4.276  1.00  0.00     0.677 A 
HETATM    7  N5  UNL     1      26.568   0.147   4.256  1.00  0.00    -0.177 N 
ATOM      8  H5  UNL     1      25.564   0.068   4.415  1.00  0.00     0.185 HD
ENDROOT
BRANCH   3   9
HETATM    9  C9  UNL     1      30.743   0.421   3.607  1.00  0.00     0.102 C 
BRANCH   9  10
HETATM   10  C10 UNL     1      31.451   0.763   4.840  1.00  0.00     0.031 A 
HETATM   11  C11 UNL     1      32.126  -0.195   5.604  1.00  0.00     0.164 A 
HETATM   12  F1  UNL     1      32.148  -1.500   5.159  1.00  0.00    -0.202 F 
HETATM   13  C12 UNL     1      32.760   0.184   6.771  1.00  0.00     0.158 A 
HETATM   14  F2  UNL     1      33.435  -0.739   7.523  1.00  0.00    -0.203 F 
HETATM   15  C13 UNL     1      32.719   1.501   7.173  1.00  0.00     0.090 A 
HETATM   16  C14 UNL     1      32.048   2.453   6.419  1.00  0.00     0.158 A 
HETATM   17  F3  UNL     1      32.009   3.763   6.838  1.00  0.00    -0.203 F 
HETATM   18  C15 UNL     1      31.413   2.094   5.255  1.00  0.00     0.164 A 
HETATM   19  F4  UNL     1      30.746   3.004   4.499  1.00  0.00    -0.202 F 
ENDBRANCH   9  10
ENDBRANCH   3   9
BRANCH   1  20
HETATM   20  N2  UNL     1      26.411   2.575   3.997  1.00  0.00    -0.363 N 
HETATM   21  C5  UNL     1      27.094   3.811   3.745  1.00  0.00     0.154 C 
HETATM   22  C4  UNL     1      26.161   4.973   3.640  1.00  0.00     0.292 C 
HETATM   23  N1  UNL     1      25.179   5.026   4.651  1.00  0.00     0.095 N 
HETATM   24  C18 UNL     1      24.624   3.791   5.114  1.00  0.00     0.292 C 
HETATM   25  C17 UNL     1      24.981   2.617   4.220  1.00  0.00     0.154 C 
BRANCH  23  26
HETATM   26  C2  UNL     1      24.179   6.047   4.422  1.00  0.00     0.215 C 
HETATM   27  C1  UNL     1      22.929   5.378   3.928  1.00  0.00     0.042 C 
HETATM   28  C3  UNL     1      24.609   7.069   3.399  1.00  0.00     0.042 C 
ENDBRANCH  23  26
ENDBRANCH   1  20
BRANCH   6  29
HETATM   29  N4  UNL     1      26.782  -2.099   4.504  1.00  0.00    -0.234 N 
ATOM     30  H42 UNL     1      27.376  -2.887   4.762  1.00  0.00     0.174 HD
ATOM     31  H41 UNL     1      25.770  -2.199   4.425  1.00  0.00     0.174 HD
ENDBRANCH   6  29
TORSDOF 5
ENDMDL
MODEL 3
REMARK VINA RESULT: -2.314740264      3.033      7.296
REMARK  5 active torsions:
REMARK  status: ('A' for Active; 'I' for Inactive)
REMARK    1  A    between atoms: C2_2  and  N1_4 
REMARK    2  A    between atoms: N2_7  and  C6_8 
REMARK    3  A    between atoms: C8_10  and  C9_11 
REMARK    4  A    between atoms: C9_11  and  C10_12 
REMARK    5  A    between atoms: C16_24  and  N4_25 
ROOT
HETATM    1  C6  UNL     1      28.919   0.738   4.781  1.00  0.00     0.121 A 
HETATM    2  C7  UNL     1      28.414   1.706   3.910  1.00  0.00     0.074 A 
HETATM    3  C8  UNL     1      27.213   1.523   3.266  1.00  0.00     0.034 A 
HETATM    4  N3  UNL     1      26.547   0.374   3.514  1.00  0.00    -0.195 N 
ATOM      5  H3  UNL     1      25.653   0.209   3.052  1.00  0.00     0.184 HD
HETATM    6  C16 UNL     1      27.029  -0.556   4.350  1.00  0.00     0.677 A 
HETATM    7  N5  UNL     1      28.202  -0.388   4.985  1.00  0.00    -0.177 N 
ATOM      8  H5  UNL     1      28.549  -1.108   5.619  1.00  0.00     0.185 HD
ENDROOT
BRANCH   3   9
HETATM    9  C9  UNL     1      26.719   2.567   2.341  1.00  0.00     0.102 C 
BRANCH   9  10
HETATM   10  C10 UNL     1      26.222   3.738   3.062  1.00  0.00     0.031 A 
HETATM   11  C11 UNL     1      24.963   3.761   3.672  1.00  0.00     0.164 A 
HETATM   12  F1  UNL     1      24.180   2.628   3.613  1.00  0.00    -0.202 F 
HETATM   13  C12 UNL     1      24.539   4.903   4.322  1.00  0.00     0.158 A 
HETATM   14  F2  UNL     1      23.315   4.937   4.933  1.00  0.00    -0.203 F 
HETATM   15  C13 UNL     1      25.359   6.010   4.363  1.00  0.00     0.090 A 
HETATM   16  C14 UNL     1      26.607   5.990   3.758  1.00  0.00     0.158 A 
HETATM   17  F3  UNL     1      27.411   7.106   3.800  1.00  0.00    -0.203 F 
HETATM   18  C15 UNL     1      27.045   4.863   3.107  1.00  0.00     0.164 A 
HETATM   19  F4  UNL     1      28.261   4.817   2.503  1.00  0.00    -0.202 F 
ENDBRANCH   9  10
ENDBRANCH   3   9
BRANCH   1  20
HETATM   20  N2  UNL     1      30.169   1.011   5.379  1.00  0.00    -0.363 N 
HETATM   21  C5  UNL     1      30.783   2.299   5.225  1.00  0.00     0.154 C 
HETATM   22  C4  UNL     1      32.038   2.437   6.023  1.00  0.00     0.292 C 
HETATM   23  N1  UNL     1      32.917   1.340   5.923  1.00  0.00     0.095 N 
HETATM   24  C18 UNL     1      32.348   0.028   5.836  1.00  0.00     0.292 C 
HETATM   25  C17 UNL     1      30.865   0.012   6.163  1.00  0.00     0.154 C 
BRANCH  23  26
HETATM   26  C2  UNL     1      34.031   1.414   6.846  1.00  0.00     0.215 C 
HETATM   27  C1  UNL     1      35.303   1.332   6.054  1.00  0.00     0.042 C 
HETATM   28  C3  UNL     1      34.025   0.297   7.859  1.00  0.00     0.042 C 
ENDBRANCH  23  26
ENDBRANCH   1  20
BRANCH   6  29
HETATM   29  N4  UNL     1      26.363  -1.650   4.562  1.00  0.00    -0.234 N 
ATOM     30  H42 UNL     1      26.795  -2.538   4.311  1.00  0.00     0.174 HD
ATOM     31  H41 UNL     1      25.429  -1.608   4.970  1.00  0.00     0.174 HD
ENDBRANCH   6  29
TORSDOF 5
ENDMDL
MODEL 4
REMARK VINA RESULT: -2.226070975      3.032      7.186
REMARK  5 active torsions:
REMARK  status: ('A' for Active; 'I' for Inactive)
REMARK    1  A    between atoms: C2_2  and  N1_4 
REMARK    2  A    between atoms: N2_7  and  C6_8 
REMARK    3  A    between atoms: C8_10  and  C9_11 
REMARK    4  A    between atoms: C9_11  and  C10_12 
REMARK    5  A    between atoms: C16_24  and  N4_25 
ROOT
HETATM    1  C6  UNL     1      28.886   0.730   4.767  1.00  0.00     0.121 A 
HETATM    2  C7  UNL     1      28.379   1.690   3.887  1.00  0.00     0.074 A 
HETATM    3  C8  UNL     1      27.178   1.497   3.245  1.00  0.00     0.034 A 
HETATM    4  N3  UNL     1      26.516   0.348   3.503  1.00  0.00    -0.195 N 
ATOM      5  H3  UNL     1      25.623   0.176   3.042  1.00  0.00     0.184 HD
HETATM    6  C16 UNL     1      27.000  -0.573   4.348  1.00  0.00     0.677 A 
HETATM    7  N5  UNL     1      28.172  -0.396   4.981  1.00  0.00    -0.177 N 
ATOM      8  H5  UNL     1      28.521  -1.109   5.621  1.00  0.00     0.185 HD
ENDROOT
BRANCH   3   9
HETATM    9  C9  UNL     1      26.681   2.531   2.311  1.00  0.00     0.102 C 
BRANCH   9  10
HETATM   10  C10 UNL     1      26.297   3.755   3.013  1.00  0.00     0.031 A 
HETATM   11  C11 UNL     1      27.139   4.869   3.088  1.00  0.00     0.164 A 
HETATM   12  F1  UNL     1      28.361   4.818   2.451  1.00  0.00    -0.202 F 
HETATM   13  C12 UNL     1      26.730   5.991   3.782  1.00  0.00     0.158 A 
HETATM   14  F2  UNL     1      27.538   7.093   3.855  1.00  0.00    -0.203 F 
HETATM   15  C13 UNL     1      25.497   6.000   4.397  1.00  0.00     0.090 A 
HETATM   16  C14 UNL     1      24.660   4.896   4.325  1.00  0.00     0.158 A 
HETATM   17  F3  UNL     1      23.435   4.918   4.952  1.00  0.00    -0.203 F 
HETATM   18  C15 UNL     1      25.051   3.773   3.638  1.00  0.00     0.164 A 
HETATM   19  F4  UNL     1      24.253   2.677   3.556  1.00  0.00    -0.202 F 
ENDBRANCH   9  10
ENDBRANCH   3   9
BRANCH   1  20
HETATM   20  N2  UNL     1      30.135   1.013   5.364  1.00  0.00    -0.363 N 
HETATM   21  C5  UNL     1      30.746   2.301   5.196  1.00  0.00     0.154 C 
HETATM   22  C4  UNL     1      32.001   2.450   5.993  1.00  0.00     0.292 C 
HETATM   23  N1  UNL     1      32.882   1.354   5.906  1.00  0.00     0.095 N 
HETATM   24  C18 UNL     1      32.316   0.040   5.833  1.00  0.00     0.292 C 
HETATM   25  C17 UNL     1      30.833   0.024   6.159  1.00  0.00     0.154 C 
BRANCH  23  26
HETATM   26  C2  UNL     1      33.995   1.440   6.828  1.00  0.00     0.215 C 
HETATM   27  C1  UNL     1      35.268   1.340   6.039  1.00  0.00     0.042 C 
HETATM   28  C3  UNL     1      33.985   0.341   7.861  1.00  0.00     0.042 C 
ENDBRANCH  23  26
ENDBRANCH   1  20
BRANCH   6  29
HETATM   29  N4  UNL     1      26.337  -1.667   4.569  1.00  0.00    -0.234 N 
ATOM     30  H42 UNL     1      25.561  -1.898   3.950  1.00  0.00     0.174 HD
ATOM     31  H41 UNL     1      26.595  -2.272   5.348  1.00  0.00     0.174 HD
ENDBRANCH   6  29
TORSDOF 5
ENDMDL
MODEL 5
REMARK VINA RESULT: -2.142687009      3.316      7.928
REMARK  5 active torsions:
REMARK  status: ('A' for Active; 'I' for Inactive)
REMARK    1  A    between atoms: C2_2  and  N1_4 
REMARK    2  A    between atoms: N2_7  and  C6_8 
REMARK    3  A    between atoms: C8_10  and  C9_11 
REMARK    4  A    between atoms: C9_11  and  C10_12 
REMARK    5  A    between atoms: C16_24  and  N4_25 
ROOT
HETATM    1  C6  UNL     1      28.619   1.414   4.085  1.00  0.00     0.121 A 
HETATM    2  C7  UNL     1      27.768   2.121   4.938  1.00  0.00     0.074 A 
HETATM    3  C8  UNL     1      26.513   2.506   4.527  1.00  0.00     0.034 A 
HETATM    4  N3  UNL     1      26.144   2.171   3.271  1.00  0.00    -0.195 N 
ATOM      5  H3  UNL     1      25.219   2.442   2.937  1.00  0.00     0.184 HD
HETATM    6  C16 UNL     1      26.959   1.492   2.452  1.00  0.00     0.677 A 
HETATM    7  N5  UNL     1      28.187   1.110   2.843  1.00  0.00    -0.177 N 
ATOM      8  H5  UNL     1      28.790   0.593   2.203  1.00  0.00     0.185 HD
ENDROOT
BRANCH   3   9
HETATM    9  C9  UNL     1      25.647   3.265   5.456  1.00  0.00     0.102 C 
BRANCH   9  10
HETATM   10  C10 UNL     1      24.873   4.290   4.757  1.00  0.00     0.031 A 
HETATM   11  C11 UNL     1      25.464   5.444   4.232  1.00  0.00     0.164 A 
HETATM   12  F1  UNL     1      26.828   5.602   4.354  1.00  0.00    -0.202 F 
HETATM   13  C12 UNL     1      24.679   6.388   3.599  1.00  0.00     0.158 A 
HETATM   14  F2  UNL     1      25.243   7.517   3.070  1.00  0.00    -0.203 F 
HETATM   15  C13 UNL     1      23.320   6.185   3.493  1.00  0.00     0.090 A 
HETATM   16  C14 UNL     1      22.730   5.042   4.015  1.00  0.00     0.158 A 
HETATM   17  F3  UNL     1      21.371   4.858   3.908  1.00  0.00    -0.203 F 
HETATM   18  C15 UNL     1      23.497   4.093   4.646  1.00  0.00     0.164 A 
HETATM   19  F4  UNL     1      22.945   2.967   5.169  1.00  0.00    -0.202 F 
ENDBRANCH   9  10
ENDBRANCH   3   9
BRANCH   1  20
HETATM   20  N2  UNL     1      29.894   1.080   4.595  1.00  0.00    -0.363 N 
HETATM   21  C5  UNL     1      30.287  -0.293   4.726  1.00  0.00     0.154 C 
HETATM   22  C4  UNL     1      31.705  -0.446   5.170  1.00  0.00     0.292 C 
HETATM   23  N1  UNL     1      32.073   0.387   6.245  1.00  0.00     0.095 N 
HETATM   24  C18 UNL     1      31.520   1.708   6.293  1.00  0.00     0.292 C 
HETATM   25  C17 UNL     1      30.838   2.103   4.996  1.00  0.00     0.154 C 
BRANCH  23  26
HETATM   26  C2  UNL     1      33.492   0.357   6.532  1.00  0.00     0.215 C 
HETATM   27  C1  UNL     1      33.669   0.199   8.014  1.00  0.00     0.042 C 
HETATM   28  C3  UNL     1      34.203   1.615   6.097  1.00  0.00     0.042 C 
ENDBRANCH  23  26
ENDBRANCH   1  20
BRANCH   6  29
HETATM   29  N4  UNL     1      26.571   1.189   1.251  1.00  0.00    -0.234 N 
ATOM     30  H42 UNL     1      25.648   1.499   0.946  1.00  0.00     0.174 HD
ATOM     31  H41 UNL     1      27.182   0.653   0.636  1.00  0.00     0.174 HD
ENDBRANCH   6  29
TORSDOF 5
ENDMDL
