MODEL 1
REMARK VINA RESULT: -5.090637417      0.000      0.000
REMARK  6 active torsions:
REMARK  status: ('A' for Active; 'I' for Inactive)
REMARK    1  A    between atoms: C2_2  and  S1_3 
REMARK    2  A    between atoms: S1_3  and  C3_4 
REMARK    3  A    between atoms: C3_4  and  C4_5 
REMARK    4  A    between atoms: C7_8  and  C8_9 
REMARK    5  A    between atoms: C8_9  and  C9_10 
REMARK    6  A    between atoms: C9_10  and  N1_11 
ROOT
HETATM    1  C4  UNL     1      90.548  22.696  -1.574  1.00  0.00     0.019 C 
HETATM    2  C5  UNL     1      90.891  21.298  -1.818  1.00  0.00     0.010 C 
HETATM    3  C6  UNL     1      92.368  20.970  -1.728  1.00  0.00     0.032 C 
HETATM    4  C7  UNL     1      93.165  21.968  -0.955  1.00  0.00     0.122 C 
HETATM    5  O1  UNL     1      92.927  23.197  -1.580  1.00  0.00    -0.385 OA
HETATM    6  C10 UNL     1      91.682  23.591  -1.109  1.00  0.00     0.173 C 
ENDROOT
BRANCH   4   7
HETATM    7  C8  UNL     1      94.606  21.563  -0.990  1.00  0.00     0.059 C 
BRANCH   7   8
HETATM    8  C9  UNL     1      94.800  20.133  -1.457  1.00  0.00     0.232 C 
BRANCH   8   9
HETATM    9  N1  UNL     1      95.287  19.383  -0.325  1.00  0.00    -0.079 N 
ATOM     10  H13 UNL     1      94.549  19.120   0.329  1.00  0.00     0.274 HD
ATOM     11  H12 UNL     1      95.587  18.439  -0.567  1.00  0.00     0.274 HD
ATOM     12  H11 UNL     1      96.024  19.941   0.107  1.00  0.00     0.274 HD
ENDBRANCH   8   9
ENDBRANCH   7   8
ENDBRANCH   4   7
BRANCH   1  13
HETATM   13  C3  UNL     1      89.350  22.985  -0.728  1.00  0.00     0.080 C 
BRANCH  13  14
HETATM   14  S1  UNL     1      88.756  21.826   0.431  1.00  0.00    -0.169 SA
BRANCH  14  15
HETATM   15  C2  UNL     1      87.757  20.463  -0.001  1.00  0.00     0.069 C 
HETATM   16  C1  UNL     1      88.218  19.552  -1.078  1.00  0.00     0.016 C 
ENDBRANCH  14  15
ENDBRANCH  13  14
ENDBRANCH   1  13
TORSDOF 6
ENDMDL
MODEL 2
REMARK VINA RESULT: -4.911086592      4.482      6.090
REMARK  6 active torsions:
REMARK  status: ('A' for Active; 'I' for Inactive)
REMARK    1  A    between atoms: C2_2  and  S1_3 
REMARK    2  A    between atoms: S1_3  and  C3_4 
REMARK    3  A    between atoms: C3_4  and  C4_5 
REMARK    4  A    between atoms: C7_8  and  C8_9 
REMARK    5  A    between atoms: C8_9  and  C9_10 
REMARK    6  A    between atoms: C9_10  and  N1_11 
ROOT
HETATM    1  C4  UNL     1      94.176  17.402  -4.016  1.00  0.00     0.019 C 
HETATM    2  C5  UNL     1      95.530  17.639  -3.524  1.00  0.00     0.010 C 
HETATM    3  C6  UNL     1      95.641  18.647  -2.398  1.00  0.00     0.032 C 
HETATM    4  C7  UNL     1      94.365  18.870  -1.656  1.00  0.00     0.122 C 
HETATM    5  O1  UNL     1      93.435  19.255  -2.628  1.00  0.00    -0.385 OA
HETATM    6  C10 UNL     1      93.056  18.066  -3.235  1.00  0.00     0.173 C 
ENDROOT
BRANCH   4   7
HETATM    7  C8  UNL     1      94.593  19.922  -0.615  1.00  0.00     0.059 C 
BRANCH   7   8
HETATM    8  C9  UNL     1      94.388  21.328  -1.149  1.00  0.00     0.232 C 
BRANCH   8   9
HETATM    9  N1  UNL     1      92.987  21.634  -1.000  1.00  0.00    -0.079 N 
ATOM     10  H13 UNL     1      92.401  21.187  -1.704  1.00  0.00     0.274 HD
ATOM     11  H12 UNL     1      92.565  21.194  -0.182  1.00  0.00     0.274 HD
ATOM     12  H11 UNL     1      92.903  22.651  -0.996  1.00  0.00     0.274 HD
ENDBRANCH   8   9
ENDBRANCH   7   8
ENDBRANCH   4   7
BRANCH   1  13
HETATM   13  C3  UNL     1      93.772  15.992  -4.302  1.00  0.00     0.080 C 
BRANCH  13  14
HETATM   14  S1  UNL     1      93.365  14.886  -3.018  1.00  0.00    -0.169 SA
BRANCH  14  15
HETATM   15  C2  UNL     1      94.422  14.549  -1.672  1.00  0.00     0.069 C 
HETATM   16  C1  UNL     1      94.385  15.448  -0.491  1.00  0.00     0.016 C 
ENDBRANCH  14  15
ENDBRANCH  13  14
ENDBRANCH   1  13
TORSDOF 6
ENDMDL
MODEL 3
REMARK VINA RESULT: -4.825401367      4.692      6.492
REMARK  6 active torsions:
REMARK  status: ('A' for Active; 'I' for Inactive)
REMARK    1  A    between atoms: C2_2  and  S1_3 
REMARK    2  A    between atoms: S1_3  and  C3_4 
REMARK    3  A    between atoms: C3_4  and  C4_5 
REMARK    4  A    between atoms: C7_8  and  C8_9 
REMARK    5  A    between atoms: C8_9  and  C9_10 
REMARK    6  A    between atoms: C9_10  and  N1_11 
ROOT
HETATM    1  C4  UNL     1      93.752  17.426  -4.056  1.00  0.00     0.019 C 
HETATM    2  C5  UNL     1      95.148  17.495  -3.636  1.00  0.00     0.010 C 
HETATM    3  C6  UNL     1      95.442  18.489  -2.530  1.00  0.00     0.032 C 
HETATM    4  C7  UNL     1      94.243  18.877  -1.730  1.00  0.00     0.122 C 
HETATM    5  O1  UNL     1      93.320  19.368  -2.659  1.00  0.00    -0.385 OA
HETATM    6  C10 UNL     1      92.765  18.231  -3.231  1.00  0.00     0.173 C 
ENDROOT
BRANCH   4   7
HETATM    7  C8  UNL     1      94.652  19.900  -0.717  1.00  0.00     0.059 C 
BRANCH   7   8
HETATM    8  C9  UNL     1      94.396  21.321  -1.183  1.00  0.00     0.232 C 
BRANCH   8   9
HETATM    9  N1  UNL     1      93.006  21.605  -0.922  1.00  0.00    -0.079 N 
ATOM     10  H13 UNL     1      92.536  20.863  -0.403  1.00  0.00     0.274 HD
ATOM     11  H12 UNL     1      92.870  22.348  -0.236  1.00  0.00     0.274 HD
ATOM     12  H11 UNL     1      92.569  21.804  -1.821  1.00  0.00     0.274 HD
ENDBRANCH   8   9
ENDBRANCH   7   8
ENDBRANCH   4   7
BRANCH   1  13
HETATM   13  C3  UNL     1      93.161  16.075  -4.302  1.00  0.00     0.080 C 
BRANCH  13  14
HETATM   14  S1  UNL     1      93.533  14.720  -3.271  1.00  0.00    -0.169 SA
BRANCH  14  15
HETATM   15  C2  UNL     1      94.772  13.548  -3.637  1.00  0.00     0.069 C 
HETATM   16  C1  UNL     1      95.577  13.721  -4.872  1.00  0.00     0.016 C 
ENDBRANCH  14  15
ENDBRANCH  13  14
ENDBRANCH   1  13
TORSDOF 6
ENDMDL
MODEL 4
REMARK VINA RESULT: -4.805418420      5.715      7.152
REMARK  6 active torsions:
REMARK  status: ('A' for Active; 'I' for Inactive)
REMARK    1  A    between atoms: C2_2  and  S1_3 
REMARK    2  A    between atoms: S1_3  and  C3_4 
REMARK    3  A    between atoms: C3_4  and  C4_5 
REMARK    4  A    between atoms: C7_8  and  C8_9 
REMARK    5  A    between atoms: C8_9  and  C9_10 
REMARK    6  A    between atoms: C9_10  and  N1_11 
ROOT
HETATM    1  C4  UNL     1      94.014  17.502  -2.248  1.00  0.00     0.019 C 
HETATM    2  C5  UNL     1      94.642  18.801  -2.019  1.00  0.00     0.010 C 
HETATM    3  C6  UNL     1      95.574  18.867  -0.825  1.00  0.00     0.032 C 
HETATM    4  C7  UNL     1      96.074  17.535  -0.372  1.00  0.00     0.122 C 
HETATM    5  O1  UNL     1      94.928  16.776  -0.115  1.00  0.00    -0.385 OA
HETATM    6  C10 UNL     1      94.496  16.363  -1.368  1.00  0.00     0.173 C 
ENDROOT
BRANCH   4   7
HETATM    7  C8  UNL     1      96.930  17.731   0.840  1.00  0.00     0.059 C 
BRANCH   7   8
HETATM    8  C9  UNL     1      97.694  16.478   1.226  1.00  0.00     0.232 C 
BRANCH   8   9
HETATM    9  N1  UNL     1      96.766  15.617   1.919  1.00  0.00    -0.079 N 
ATOM     10  H13 UNL     1      96.097  16.129   2.494  1.00  0.00     0.274 HD
ATOM     11  H12 UNL     1      96.090  15.174   1.298  1.00  0.00     0.274 HD
ATOM     12  H11 UNL     1      97.322  14.948   2.451  1.00  0.00     0.274 HD
ENDBRANCH   8   9
ENDBRANCH   7   8
ENDBRANCH   4   7
BRANCH   1  13
HETATM   13  C3  UNL     1      93.932  17.002  -3.654  1.00  0.00     0.080 C 
BRANCH  13  14
HETATM   14  S1  UNL     1      95.255  16.136  -4.387  1.00  0.00    -0.169 SA
BRANCH  14  15
HETATM   15  C2  UNL     1      96.687  16.916  -5.006  1.00  0.00     0.069 C 
HETATM   16  C1  UNL     1      97.541  17.688  -4.070  1.00  0.00     0.016 C 
ENDBRANCH  14  15
ENDBRANCH  13  14
ENDBRANCH   1  13
TORSDOF 6
ENDMDL
MODEL 5
REMARK VINA RESULT: -4.804220824      5.867      6.670
REMARK  6 active torsions:
REMARK  status: ('A' for Active; 'I' for Inactive)
REMARK    1  A    between atoms: C2_2  and  S1_3 
REMARK    2  A    between atoms: S1_3  and  C3_4 
REMARK    3  A    between atoms: C3_4  and  C4_5 
REMARK    4  A    between atoms: C7_8  and  C8_9 
REMARK    5  A    between atoms: C8_9  and  C9_10 
REMARK    6  A    between atoms: C9_10  and  N1_11 
ROOT
HETATM    1  C4  UNL     1      94.168  16.370  -1.692  1.00  0.00     0.019 C 
HETATM    2  C5  UNL     1      94.832  17.423  -2.456  1.00  0.00     0.010 C 
HETATM    3  C6  UNL     1      95.988  18.101  -1.749  1.00  0.00     0.032 C 
HETATM    4  C7  UNL     1      96.568  17.301  -0.629  1.00  0.00     0.122 C 
HETATM    5  O1  UNL     1      95.497  17.037   0.231  1.00  0.00    -0.385 OA
HETATM    6  C10 UNL     1      94.817  15.989  -0.374  1.00  0.00     0.173 C 
ENDROOT
BRANCH   4   7
HETATM    7  C8  UNL     1      97.655  18.101   0.019  1.00  0.00     0.059 C 
BRANCH   7   8
HETATM    8  C9  UNL     1      97.872  17.723   1.473  1.00  0.00     0.232 C 
BRANCH   8   9
HETATM    9  N1  UNL     1      98.180  16.315   1.499  1.00  0.00    -0.079 N 
ATOM     10  H13 UNL     1      97.443  15.735   1.099  1.00  0.00     0.274 HD
ATOM     11  H12 UNL     1      98.919  16.053   0.847  1.00  0.00     0.274 HD
ATOM     12  H11 UNL     1      98.397  16.076   2.467  1.00  0.00     0.274 HD
ENDBRANCH   8   9
ENDBRANCH   7   8
ENDBRANCH   4   7
BRANCH   1  13
HETATM   13  C3  UNL     1      93.798  15.112  -2.410  1.00  0.00     0.080 C 
BRANCH  13  14
HETATM   14  S1  UNL     1      93.302  15.133  -4.081  1.00  0.00    -0.169 SA
BRANCH  14  15
HETATM   15  C2  UNL     1      91.812  15.854  -4.631  1.00  0.00     0.069 C 
HETATM   16  C1  UNL     1      91.550  17.281  -4.318  1.00  0.00     0.016 C 
ENDBRANCH  14  15
ENDBRANCH  13  14
ENDBRANCH   1  13
TORSDOF 6
ENDMDL
