MODEL 1
REMARK VINA RESULT: -5.688126942      0.000      0.000
REMARK  5 active torsions:
REMARK  status: ('A' for Active; 'I' for Inactive)
REMARK    1  A    between atoms: C2_2  and  N1_3 
REMARK    2  A    between atoms: N1_3  and  C3_5 
REMARK    3  A    between atoms: C3_5  and  C4_6 
REMARK    4  A    between atoms: C5_7  and  O1_8 
REMARK    5  A    between atoms: O1_8  and  N2_9 
ROOT
HETATM    1  C4  UNL     1      94.024  17.547  -3.219  1.00  0.00     0.039 C 
HETATM    2  C5  UNL     1      94.356  16.395  -2.336  1.00  0.00     0.165 C 
HETATM    3  C6  UNL     1      94.796  17.000  -1.035  1.00  0.00     0.040 C 
HETATM    4  C7  UNL     1      95.594  18.192  -1.494  1.00  0.00    -0.007 C 
HETATM    5  C8  UNL     1      95.225  19.457  -0.756  1.00  0.00     0.005 C 
HETATM    6  C9  UNL     1      94.091  19.622  -1.755  1.00  0.00     0.006 C 
HETATM    7  C10 UNL     1      94.827  18.697  -2.678  1.00  0.00    -0.002 C 
ENDROOT
BRANCH   1   8
HETATM    8  C3  UNL     1      94.439  17.198  -4.623  1.00  0.00     0.126 C 
BRANCH   8   9
HETATM    9  N1  UNL     1      95.433  16.196  -4.734  1.00  0.00    -0.399 N 
ATOM     10  H1  UNL     1      95.173  15.267  -4.402  1.00  0.00     0.158 HD
BRANCH   9  11
HETATM   11  C2  UNL     1      96.726  16.328  -5.245  1.00  0.00     0.072 C 
HETATM   12  C1  UNL     1      97.526  17.278  -4.826  1.00  0.00     0.029 C 
ENDBRANCH   9  11
ENDBRANCH   8   9
ENDBRANCH   1   8
BRANCH   2  13
HETATM   13  O1  UNL     1      93.340  15.448  -2.195  1.00  0.00    -0.215 OA
BRANCH  13  14
HETATM   14  N2  UNL     1      92.749  14.681  -3.121  1.00  0.00     0.005 N 
HETATM   15  O2  UNL     1      93.377  13.891  -3.846  1.00  0.00    -0.511 OA
HETATM   16  O3  UNL     1      91.392  14.753  -3.297  1.00  0.00    -0.511 OA
ENDBRANCH  13  14
ENDBRANCH   2  13
TORSDOF 5
ENDMDL
MODEL 2
REMARK VINA RESULT: -5.607774097      1.633      1.989
REMARK  5 active torsions:
REMARK  status: ('A' for Active; 'I' for Inactive)
REMARK    1  A    between atoms: C2_2  and  N1_3 
REMARK    2  A    between atoms: N1_3  and  C3_5 
REMARK    3  A    between atoms: C3_5  and  C4_6 
REMARK    4  A    between atoms: C5_7  and  O1_8 
REMARK    5  A    between atoms: O1_8  and  N2_9 
ROOT
HETATM    1  C4  UNL     1      94.736  16.810  -3.422  1.00  0.00     0.039 C 
HETATM    2  C5  UNL     1      94.281  15.796  -2.430  1.00  0.00     0.165 C 
HETATM    3  C6  UNL     1      94.411  16.459  -1.090  1.00  0.00     0.040 C 
HETATM    4  C7  UNL     1      95.697  17.229  -1.241  1.00  0.00    -0.007 C 
HETATM    5  C8  UNL     1      95.577  18.659  -0.770  1.00  0.00     0.005 C 
HETATM    6  C9  UNL     1      95.023  18.989  -2.148  1.00  0.00     0.006 C 
HETATM    7  C10 UNL     1      95.650  17.723  -2.655  1.00  0.00    -0.002 C 
ENDROOT
BRANCH   1   8
HETATM    8  C3  UNL     1      95.471  16.094  -4.523  1.00  0.00     0.126 C 
BRANCH   8   9
HETATM    9  N1  UNL     1      95.265  14.695  -4.584  1.00  0.00    -0.399 N 
ATOM     10  H1  UNL     1      94.454  14.337  -4.078  1.00  0.00     0.158 HD
BRANCH   9  11
HETATM   11  C2  UNL     1      96.041  13.746  -5.254  1.00  0.00     0.072 C 
HETATM   12  C1  UNL     1      96.066  12.494  -4.866  1.00  0.00     0.029 C 
ENDBRANCH   9  11
ENDBRANCH   8   9
ENDBRANCH   1   8
BRANCH   2  13
HETATM   13  O1  UNL     1      93.012  15.265  -2.669  1.00  0.00    -0.215 OA
BRANCH  13  14
HETATM   14  N2  UNL     1      92.128  15.559  -3.631  1.00  0.00     0.005 N 
HETATM   15  O2  UNL     1      91.241  16.419  -3.495  1.00  0.00    -0.511 OA
HETATM   16  O3  UNL     1      92.182  14.896  -4.829  1.00  0.00    -0.511 OA
ENDBRANCH  13  14
ENDBRANCH   2  13
TORSDOF 5
ENDMDL
MODEL 3
REMARK VINA RESULT: -5.486336741      0.999      1.246
REMARK  5 active torsions:
REMARK  status: ('A' for Active; 'I' for Inactive)
REMARK    1  A    between atoms: C2_2  and  N1_3 
REMARK    2  A    between atoms: N1_3  and  C3_5 
REMARK    3  A    between atoms: C3_5  and  C4_6 
REMARK    4  A    between atoms: C5_7  and  O1_8 
REMARK    5  A    between atoms: O1_8  and  N2_9 
ROOT
HETATM    1  C4  UNL     1      94.208  17.166  -3.120  1.00  0.00     0.039 C 
HETATM    2  C5  UNL     1      94.372  16.122  -2.070  1.00  0.00     0.165 C 
HETATM    3  C6  UNL     1      94.719  16.868  -0.814  1.00  0.00     0.040 C 
HETATM    4  C7  UNL     1      95.637  17.944  -1.329  1.00  0.00    -0.007 C 
HETATM    5  C8  UNL     1      95.283  19.313  -0.797  1.00  0.00     0.005 C 
HETATM    6  C9  UNL     1      94.268  19.407  -1.926  1.00  0.00     0.006 C 
HETATM    7  C10 UNL     1      95.029  18.331  -2.642  1.00  0.00    -0.002 C 
ENDROOT
BRANCH   1   8
HETATM    8  C3  UNL     1      94.738  16.615  -4.416  1.00  0.00     0.126 C 
BRANCH   8   9
HETATM    9  N1  UNL     1      95.295  15.316  -4.344  1.00  0.00    -0.399 N 
ATOM     10  H1  UNL     1      95.039  14.761  -3.527  1.00  0.00     0.158 HD
BRANCH   9  11
HETATM   11  C2  UNL     1      96.154  14.703  -5.260  1.00  0.00     0.072 C 
HETATM   12  C1  UNL     1      96.174  13.400  -5.404  1.00  0.00     0.029 C 
ENDBRANCH   9  11
ENDBRANCH   8   9
ENDBRANCH   1   8
BRANCH   2  13
HETATM   13  O1  UNL     1      93.284  15.259  -1.923  1.00  0.00    -0.215 OA
BRANCH  13  14
HETATM   14  N2  UNL     1      92.713  14.441  -2.818  1.00  0.00     0.005 N 
HETATM   15  O2  UNL     1      93.262  13.409  -3.237  1.00  0.00    -0.511 OA
HETATM   16  O3  UNL     1      91.468  14.734  -3.307  1.00  0.00    -0.511 OA
ENDBRANCH  13  14
ENDBRANCH   2  13
TORSDOF 5
ENDMDL
MODEL 4
REMARK VINA RESULT: -5.467814898      1.393      2.393
REMARK  5 active torsions:
REMARK  status: ('A' for Active; 'I' for Inactive)
REMARK    1  A    between atoms: C2_2  and  N1_3 
REMARK    2  A    between atoms: N1_3  and  C3_5 
REMARK    3  A    between atoms: C3_5  and  C4_6 
REMARK    4  A    between atoms: C5_7  and  O1_8 
REMARK    5  A    between atoms: O1_8  and  N2_9 
ROOT
HETATM    1  C4  UNL     1      94.621  17.411  -2.576  1.00  0.00     0.039 C 
HETATM    2  C5  UNL     1      94.597  16.024  -2.035  1.00  0.00     0.165 C 
HETATM    3  C6  UNL     1      95.239  16.109  -0.681  1.00  0.00     0.040 C 
HETATM    4  C7  UNL     1      96.359  17.086  -0.923  1.00  0.00    -0.007 C 
HETATM    5  C8  UNL     1      96.427  18.166   0.132  1.00  0.00     0.005 C 
HETATM    6  C9  UNL     1      95.377  18.915  -0.672  1.00  0.00     0.006 C 
HETATM    7  C10 UNL     1      95.759  18.087  -1.864  1.00  0.00    -0.002 C 
ENDROOT
BRANCH   1   8
HETATM    8  C3  UNL     1      94.869  17.334  -4.058  1.00  0.00     0.126 C 
BRANCH   8   9
HETATM    9  N1  UNL     1      93.709  17.274  -4.868  1.00  0.00    -0.399 N 
ATOM     10  H1  UNL     1      93.785  16.721  -5.722  1.00  0.00     0.158 HD
BRANCH   9  11
HETATM   11  C2  UNL     1      92.473  17.882  -4.636  1.00  0.00     0.072 C 
HETATM   12  C1  UNL     1      91.389  17.168  -4.461  1.00  0.00     0.029 C 
ENDBRANCH   9  11
ENDBRANCH   8   9
ENDBRANCH   1   8
BRANCH   2  13
HETATM   13  O1  UNL     1      93.338  15.420  -2.018  1.00  0.00    -0.215 OA
BRANCH  13  14
HETATM   14  N2  UNL     1      92.870  14.394  -2.742  1.00  0.00     0.005 N 
HETATM   15  O2  UNL     1      92.036  13.584  -2.304  1.00  0.00    -0.511 OA
HETATM   16  O3  UNL     1      93.316  14.208  -4.023  1.00  0.00    -0.511 OA
ENDBRANCH  13  14
ENDBRANCH   2  13
TORSDOF 5
ENDMDL
MODEL 5
REMARK VINA RESULT: -5.432490558      3.826      5.192
REMARK  5 active torsions:
REMARK  status: ('A' for Active; 'I' for Inactive)
REMARK    1  A    between atoms: C2_2  and  N1_3 
REMARK    2  A    between atoms: N1_3  and  C3_5 
REMARK    3  A    between atoms: C3_5  and  C4_6 
REMARK    4  A    between atoms: C5_7  and  O1_8 
REMARK    5  A    between atoms: O1_8  and  N2_9 
ROOT
HETATM    1  C4  UNL     1      95.021  17.451  -0.749  1.00  0.00     0.039 C 
HETATM    2  C5  UNL     1      95.362  18.841  -1.161  1.00  0.00     0.165 C 
HETATM    3  C6  UNL     1      95.126  18.891  -2.642  1.00  0.00     0.040 C 
HETATM    4  C7  UNL     1      95.633  17.545  -3.089  1.00  0.00    -0.007 C 
HETATM    5  C8  UNL     1      94.671  16.839  -4.015  1.00  0.00     0.005 C 
HETATM    6  C9  UNL     1      93.954  16.341  -2.770  1.00  0.00     0.006 C 
HETATM    7  C10 UNL     1      95.204  16.622  -1.989  1.00  0.00    -0.002 C 
ENDROOT
BRANCH   1   8
HETATM    8  C3  UNL     1      95.976  17.034   0.336  1.00  0.00     0.126 C 
BRANCH   8   9
HETATM    9  N1  UNL     1      96.777  18.071   0.875  1.00  0.00    -0.399 N 
ATOM     10  H1  UNL     1      96.317  18.971   1.009  1.00  0.00     0.158 HD
BRANCH   9  11
HETATM   11  C2  UNL     1      98.123  18.006   1.245  1.00  0.00     0.072 C 
HETATM   12  C1  UNL     1      99.016  18.788   0.690  1.00  0.00     0.029 C 
ENDBRANCH   9  11
ENDBRANCH   8   9
ENDBRANCH   1   8
BRANCH   2  13
HETATM   13  O1  UNL     1      94.695  19.845  -0.456  1.00  0.00    -0.215 OA
BRANCH  13  14
HETATM   14  N2  UNL     1      94.116  20.967  -0.904  1.00  0.00     0.005 N 
HETATM   15  O2  UNL     1      92.976  20.989  -1.395  1.00  0.00    -0.511 OA
HETATM   16  O3  UNL     1      94.792  22.156  -0.828  1.00  0.00    -0.511 OA
ENDBRANCH  13  14
ENDBRANCH   2  13
TORSDOF 5
ENDMDL
