MODEL 1
REMARK VINA RESULT: -4.963464995      0.000      0.000
REMARK  5 active torsions:
REMARK  status: ('A' for Active; 'I' for Inactive)
REMARK    1  A    between atoms: S1_3  and  C3_4 
REMARK    2  A    between atoms: C3_4  and  C4_5 
REMARK    3  A    between atoms: C4_5  and  C5_6 
REMARK    4  A    between atoms: C5_6  and  C7_8 
REMARK    5  A    between atoms: C7_8  and  N1_9 
ROOT
HETATM    1  C1  UNL     1      97.915  14.643   2.222  1.00  0.00     0.025 C 
HETATM    2  C2  UNL     1      97.583  15.705   1.743  1.00  0.00    -0.045 C 
HETATM    3  S1  UNL     1      97.143  17.253   1.074  1.00  0.00    -0.080 SA
ENDROOT
BRANCH   3   4
HETATM    4  C3  UNL     1      95.962  17.187  -0.268  1.00  0.00     0.088 C 
BRANCH   4   5
HETATM    5  C4  UNL     1      96.327  18.011  -1.456  1.00  0.00     0.017 C 
BRANCH   5   6
HETATM    6  C5  UNL     1      95.198  18.675  -2.167  1.00  0.00     0.011 C 
HETATM    7  C6  UNL     1      94.760  19.956  -1.456  1.00  0.00     0.011 C 
BRANCH   6   8
HETATM    8  C7  UNL     1      93.982  17.747  -2.031  1.00  0.00     0.276 C 
BRANCH   8   9
HETATM    9  N1  UNL     1      93.745  17.204  -3.363  1.00  0.00     0.092 N 
HETATM   10  C8  UNL     1      92.759  18.027  -4.065  1.00  0.00     0.300 C 
HETATM   11  C9  UNL     1      91.417  17.357  -4.161  1.00  0.00     0.262 C 
HETATM   12  N2  UNL     1      91.570  16.184  -5.006  1.00  0.00    -0.072 N 
HETATM   13  C10 UNL     1      92.740  15.414  -4.607  1.00  0.00     0.262 C 
ATOM     14  H22 UNL     1      90.726  15.612  -5.015  1.00  0.00     0.277 HD
ATOM     15  H21 UNL     1      91.599  16.431  -5.995  1.00  0.00     0.277 HD
HETATM   16  C11 UNL     1      93.300  15.825  -3.281  1.00  0.00     0.300 C 
ENDBRANCH   8   9
ENDBRANCH   6   8
ENDBRANCH   5   6
ENDBRANCH   4   5
ENDBRANCH   3   4
TORSDOF 5
ENDMDL
MODEL 2
REMARK VINA RESULT: -4.827898836      1.127      1.282
REMARK  5 active torsions:
REMARK  status: ('A' for Active; 'I' for Inactive)
REMARK    1  A    between atoms: S1_3  and  C3_4 
REMARK    2  A    between atoms: C3_4  and  C4_5 
REMARK    3  A    between atoms: C4_5  and  C5_6 
REMARK    4  A    between atoms: C5_6  and  C7_8 
REMARK    5  A    between atoms: C7_8  and  N1_9 
ROOT
HETATM    1  C1  UNL     1      94.824  14.210   0.034  1.00  0.00     0.025 C 
HETATM    2  C2  UNL     1      95.615  15.095   0.274  1.00  0.00    -0.045 C 
HETATM    3  S1  UNL     1      96.784  16.338   0.630  1.00  0.00    -0.080 SA
ENDROOT
BRANCH   3   4
HETATM    4  C3  UNL     1      96.400  17.951  -0.041  1.00  0.00     0.088 C 
BRANCH   4   5
HETATM    5  C4  UNL     1      96.429  18.025  -1.530  1.00  0.00     0.017 C 
BRANCH   5   6
HETATM    6  C5  UNL     1      95.231  18.627  -2.182  1.00  0.00     0.011 C 
HETATM    7  C6  UNL     1      94.745  19.867  -1.430  1.00  0.00     0.011 C 
BRANCH   6   8
HETATM    8  C7  UNL     1      94.083  17.621  -2.011  1.00  0.00     0.276 C 
BRANCH   8   9
HETATM    9  N1  UNL     1      93.808  17.101  -3.346  1.00  0.00     0.092 N 
HETATM   10  C8  UNL     1      92.842  17.966  -4.025  1.00  0.00     0.300 C 
HETATM   11  C9  UNL     1      91.476  17.344  -4.108  1.00  0.00     0.262 C 
HETATM   12  N2  UNL     1      91.577  16.176  -4.968  1.00  0.00    -0.072 N 
HETATM   13  C10 UNL     1      92.725  15.361  -4.594  1.00  0.00     0.262 C 
ATOM     14  H22 UNL     1      90.713  15.633  -4.971  1.00  0.00     0.277 HD
ATOM     15  H21 UNL     1      91.600  16.433  -5.955  1.00  0.00     0.277 HD
HETATM   16  C11 UNL     1      93.317  15.738  -3.272  1.00  0.00     0.300 C 
ENDBRANCH   8   9
ENDBRANCH   6   8
ENDBRANCH   5   6
ENDBRANCH   4   5
ENDBRANCH   3   4
TORSDOF 5
ENDMDL
MODEL 3
REMARK VINA RESULT: -4.795280442      1.570      3.423
REMARK  5 active torsions:
REMARK  status: ('A' for Active; 'I' for Inactive)
REMARK    1  A    between atoms: S1_3  and  C3_4 
REMARK    2  A    between atoms: C3_4  and  C4_5 
REMARK    3  A    between atoms: C4_5  and  C5_6 
REMARK    4  A    between atoms: C5_6  and  C7_8 
REMARK    5  A    between atoms: C7_8  and  N1_9 
ROOT
HETATM    1  C1  UNL     1      94.839  19.537  -1.276  1.00  0.00     0.025 C 
HETATM    2  C2  UNL     1      95.517  18.696  -0.727  1.00  0.00    -0.045 C 
HETATM    3  S1  UNL     1      96.517  17.520   0.083  1.00  0.00    -0.080 SA
ENDROOT
BRANCH   3   4
HETATM    4  C3  UNL     1      95.855  15.859   0.112  1.00  0.00     0.088 C 
BRANCH   4   5
HETATM    5  C4  UNL     1      94.403  15.764  -0.211  1.00  0.00     0.017 C 
BRANCH   5   6
HETATM    6  C5  UNL     1      94.030  14.812  -1.295  1.00  0.00     0.011 C 
HETATM    7  C6  UNL     1      94.914  13.564  -1.276  1.00  0.00     0.011 C 
BRANCH   6   8
HETATM    8  C7  UNL     1      94.388  15.493  -2.624  1.00  0.00     0.276 C 
BRANCH   8   9
HETATM    9  N1  UNL     1      93.277  16.391  -2.922  1.00  0.00     0.092 N 
HETATM   10  C8  UNL     1      92.115  15.613  -3.355  1.00  0.00     0.300 C 
HETATM   11  C9  UNL     1      91.871  15.723  -4.834  1.00  0.00     0.262 C 
HETATM   12  N2  UNL     1      91.506  17.101  -5.118  1.00  0.00    -0.072 N 
HETATM   13  C10 UNL     1      92.425  18.021  -4.463  1.00  0.00     0.262 C 
ATOM     14  H22 UNL     1      91.445  17.277  -6.121  1.00  0.00     0.277 HD
ATOM     15  H21 UNL     1      90.535  17.294  -4.870  1.00  0.00     0.277 HD
HETATM   16  C11 UNL     1      93.658  17.356  -3.936  1.00  0.00     0.300 C 
ENDBRANCH   8   9
ENDBRANCH   6   8
ENDBRANCH   5   6
ENDBRANCH   4   5
ENDBRANCH   3   4
TORSDOF 5
ENDMDL
MODEL 4
REMARK VINA RESULT: -4.758960176      1.434      2.152
REMARK  5 active torsions:
REMARK  status: ('A' for Active; 'I' for Inactive)
REMARK    1  A    between atoms: S1_3  and  C3_4 
REMARK    2  A    between atoms: C3_4  and  C4_5 
REMARK    3  A    between atoms: C4_5  and  C5_6 
REMARK    4  A    between atoms: C5_6  and  C7_8 
REMARK    5  A    between atoms: C7_8  and  N1_9 
ROOT
HETATM    1  C1  UNL     1      98.941  18.783   0.766  1.00  0.00     0.025 C 
HETATM    2  C2  UNL     1      98.212  17.821   0.867  1.00  0.00    -0.045 C 
HETATM    3  S1  UNL     1      97.186  16.424   1.052  1.00  0.00    -0.080 SA
ENDROOT
BRANCH   3   4
HETATM    4  C3  UNL     1      95.663  16.477   0.115  1.00  0.00     0.088 C 
BRANCH   4   5
HETATM    5  C4  UNL     1      95.492  17.699  -0.722  1.00  0.00     0.017 C 
BRANCH   5   6
HETATM    6  C5  UNL     1      95.335  17.477  -2.187  1.00  0.00     0.011 C 
HETATM    7  C6  UNL     1      96.590  17.890  -2.956  1.00  0.00     0.011 C 
BRANCH   6   8
HETATM    8  C7  UNL     1      94.265  18.466  -2.672  1.00  0.00     0.276 C 
BRANCH   8   9
HETATM    9  N1  UNL     1      93.072  17.667  -2.929  1.00  0.00     0.092 N 
HETATM   10  C8  UNL     1      93.446  16.264  -3.111  1.00  0.00     0.300 C 
HETATM   11  C9  UNL     1      93.366  15.831  -4.548  1.00  0.00     0.262 C 
HETATM   12  N2  UNL     1      91.969  15.884  -4.946  1.00  0.00    -0.072 N 
HETATM   13  C10 UNL     1      91.364  17.142  -4.531  1.00  0.00     0.262 C 
ATOM     14  H22 UNL     1      91.854  15.721  -5.946  1.00  0.00     0.277 HD
ATOM     15  H21 UNL     1      91.445  15.080  -4.599  1.00  0.00     0.277 HD
HETATM   16  C11 UNL     1      92.364  18.167  -4.092  1.00  0.00     0.300 C 
ENDBRANCH   8   9
ENDBRANCH   6   8
ENDBRANCH   5   6
ENDBRANCH   4   5
ENDBRANCH   3   4
TORSDOF 5
ENDMDL
MODEL 5
REMARK VINA RESULT: -4.754486159      2.732      4.900
REMARK  5 active torsions:
REMARK  status: ('A' for Active; 'I' for Inactive)
REMARK    1  A    between atoms: S1_3  and  C3_4 
REMARK    2  A    between atoms: C3_4  and  C4_5 
REMARK    3  A    between atoms: C4_5  and  C5_6 
REMARK    4  A    between atoms: C5_6  and  C7_8 
REMARK    5  A    between atoms: C7_8  and  N1_9 
ROOT
HETATM    1  C1  UNL     1      90.012  22.347  -1.169  1.00  0.00     0.025 C 
HETATM    2  C2  UNL     1      91.222  22.389  -1.211  1.00  0.00    -0.045 C 
HETATM    3  S1  UNL     1      92.960  22.495  -1.280  1.00  0.00    -0.080 SA
ENDROOT
BRANCH   3   4
HETATM    4  C3  UNL     1      93.829  21.101  -0.572  1.00  0.00     0.088 C 
BRANCH   4   5
HETATM    5  C4  UNL     1      94.624  20.304  -1.550  1.00  0.00     0.017 C 
BRANCH   5   6
HETATM    6  C5  UNL     1      94.653  18.830  -1.330  1.00  0.00     0.011 C 
HETATM    7  C6  UNL     1      95.969  18.382  -0.696  1.00  0.00     0.011 C 
BRANCH   6   8
HETATM    8  C7  UNL     1      94.673  18.176  -2.719  1.00  0.00     0.276 C 
BRANCH   8   9
HETATM    9  N1  UNL     1      93.350  17.592  -2.904  1.00  0.00     0.092 N 
HETATM   10  C8  UNL     1      93.463  16.138  -3.026  1.00  0.00     0.300 C 
HETATM   11  C9  UNL     1      93.258  15.663  -4.437  1.00  0.00     0.262 C 
HETATM   12  N2  UNL     1      91.879  15.946  -4.800  1.00  0.00    -0.072 N 
HETATM   13  C10 UNL     1      91.521  17.309  -4.432  1.00  0.00     0.262 C 
ATOM     14  H22 UNL     1      91.703  15.762  -5.788  1.00  0.00     0.277 HD
ATOM     15  H21 UNL     1      91.235  15.264  -4.400  1.00  0.00     0.277 HD
HETATM   16  C11 UNL     1      92.701  18.158  -4.072  1.00  0.00     0.300 C 
ENDBRANCH   8   9
ENDBRANCH   6   8
ENDBRANCH   5   6
ENDBRANCH   4   5
ENDBRANCH   3   4
TORSDOF 5
ENDMDL
