MODEL 1
REMARK VINA RESULT: -6.234541884      0.000      0.000
REMARK  5 active torsions:
REMARK  status: ('A' for Active; 'I' for Inactive)
REMARK    1  A    between atoms: C2_2  and  C4_5 
REMARK    2  A    between atoms: C4_5  and  N2_6 
REMARK    3  A    between atoms: N2_6  and  C5_8 
REMARK    4  A    between atoms: C5_8  and  C6_9 
REMARK    5  A    between atoms: C6_9  and  N3_10 
ROOT
HETATM    1  C1  UNL     1      89.629  22.162  -0.421  1.00  0.00     0.031 C 
HETATM    2  C2  UNL     1      90.651  22.314  -1.515  1.00  0.00     0.127 C 
HETATM    3  C3  UNL     1      91.166  23.710  -1.556  1.00  0.00     0.069 C 
HETATM    4  N1  UNL     1      91.547  24.798  -1.587  1.00  0.00    -0.197 NA
ENDROOT
BRANCH   2   5
HETATM    5  C4  UNL     1      91.796  21.363  -1.485  1.00  0.00     0.079 C 
BRANCH   5   6
HETATM    6  N2  UNL     1      93.067  21.808  -1.121  1.00  0.00    -0.376 N 
ATOM      7  H2  UNL     1      93.222  22.810  -1.005  1.00  0.00     0.164 HD
BRANCH   6   8
HETATM    8  C5  UNL     1      94.142  20.929  -0.910  1.00  0.00     0.104 C 
BRANCH   8   9
HETATM    9  C6  UNL     1      94.120  19.745  -1.831  1.00  0.00     0.107 C 
BRANCH   9  10
HETATM   10  N3  UNL     1      95.067  18.748  -1.635  1.00  0.00    -0.369 N 
HETATM   11  C7  UNL     1      95.069  17.532  -2.311  1.00  0.00     0.063 C 
HETATM   12  C8  UNL     1      94.160  16.472  -1.707  1.00  0.00     0.044 C 
HETATM   13  C9  UNL     1      94.522  16.126  -0.304  1.00  0.00     0.005 C 
HETATM   14  C10 UNL     1      96.000  16.210  -0.123  1.00  0.00     0.002 C 
HETATM   15  C11 UNL     1      96.584  17.577  -0.141  1.00  0.00     0.020 C 
HETATM   16  C12 UNL     1      95.609  18.691  -0.287  1.00  0.00     0.127 C 
ENDBRANCH   9  10
ENDBRANCH   8   9
ENDBRANCH   6   8
ENDBRANCH   5   6
ENDBRANCH   2   5
TORSDOF 5
ENDMDL
MODEL 2
REMARK VINA RESULT: -6.213187539      1.196      2.109
REMARK  5 active torsions:
REMARK  status: ('A' for Active; 'I' for Inactive)
REMARK    1  A    between atoms: C2_2  and  C4_5 
REMARK    2  A    between atoms: C4_5  and  N2_6 
REMARK    3  A    between atoms: N2_6  and  C5_8 
REMARK    4  A    between atoms: C5_8  and  C6_9 
REMARK    5  A    between atoms: C6_9  and  N3_10 
ROOT
HETATM    1  C1  UNL     1      89.451  22.418  -0.373  1.00  0.00     0.031 C 
HETATM    2  C2  UNL     1      90.447  22.468  -1.499  1.00  0.00     0.127 C 
HETATM    3  C3  UNL     1      91.100  23.805  -1.557  1.00  0.00     0.069 C 
HETATM    4  N1  UNL     1      91.589  24.848  -1.600  1.00  0.00    -0.197 NA
ENDROOT
BRANCH   2   5
HETATM    5  C4  UNL     1      91.488  21.405  -1.507  1.00  0.00     0.079 C 
BRANCH   5   6
HETATM    6  N2  UNL     1      92.841  21.749  -1.476  1.00  0.00    -0.376 N 
ATOM      7  H2  UNL     1      93.156  22.552  -2.019  1.00  0.00     0.164 HD
BRANCH   6   8
HETATM    8  C5  UNL     1      93.784  21.029  -0.725  1.00  0.00     0.104 C 
BRANCH   8   9
HETATM    9  C6  UNL     1      94.786  20.309  -1.579  1.00  0.00     0.107 C 
BRANCH   9  10
HETATM   10  N3  UNL     1      94.660  18.933  -1.711  1.00  0.00    -0.369 N 
HETATM   11  C7  UNL     1      95.705  18.033  -1.519  1.00  0.00     0.063 C 
HETATM   12  C8  UNL     1      96.603  17.839  -2.731  1.00  0.00     0.044 C 
HETATM   13  C9  UNL     1      95.870  17.321  -3.921  1.00  0.00     0.005 C 
HETATM   14  C10 UNL     1      94.783  16.396  -3.487  1.00  0.00     0.002 C 
HETATM   15  C11 UNL     1      93.622  17.028  -2.806  1.00  0.00     0.020 C 
HETATM   16  C12 UNL     1      93.673  18.510  -2.690  1.00  0.00     0.127 C 
ENDBRANCH   9  10
ENDBRANCH   8   9
ENDBRANCH   6   8
ENDBRANCH   5   6
ENDBRANCH   2   5
TORSDOF 5
ENDMDL
MODEL 3
REMARK VINA RESULT: -6.028412141      1.372      1.718
REMARK  5 active torsions:
REMARK  status: ('A' for Active; 'I' for Inactive)
REMARK    1  A    between atoms: C2_2  and  C4_5 
REMARK    2  A    between atoms: C4_5  and  N2_6 
REMARK    3  A    between atoms: N2_6  and  C5_8 
REMARK    4  A    between atoms: C5_8  and  C6_9 
REMARK    5  A    between atoms: C6_9  and  N3_10 
ROOT
HETATM    1  C1  UNL     1      89.747  22.129  -0.686  1.00  0.00     0.031 C 
HETATM    2  C2  UNL     1      90.914  22.325  -1.615  1.00  0.00     0.127 C 
HETATM    3  C3  UNL     1      91.455  23.706  -1.488  1.00  0.00     0.069 C 
HETATM    4  N1  UNL     1      91.856  24.783  -1.390  1.00  0.00    -0.197 NA
ENDROOT
BRANCH   2   5
HETATM    5  C4  UNL     1      92.025  21.343  -1.493  1.00  0.00     0.079 C 
BRANCH   5   6
HETATM    6  N2  UNL     1      93.180  21.676  -0.784  1.00  0.00    -0.376 N 
ATOM      7  H2  UNL     1      93.103  22.314   0.008  1.00  0.00     0.164 HD
BRANCH   6   8
HETATM    8  C5  UNL     1      94.445  21.165  -1.120  1.00  0.00     0.104 C 
BRANCH   8   9
HETATM    9  C6  UNL     1      94.495  19.666  -1.099  1.00  0.00     0.107 C 
BRANCH   9  10
HETATM   10  N3  UNL     1      94.719  19.004  -2.300  1.00  0.00    -0.369 N 
HETATM   11  C7  UNL     1      93.717  18.401  -3.055  1.00  0.00     0.063 C 
HETATM   12  C8  UNL     1      93.351  16.994  -2.610  1.00  0.00     0.044 C 
HETATM   13  C9  UNL     1      94.499  16.045  -2.676  1.00  0.00     0.005 C 
HETATM   14  C10 UNL     1      95.380  16.391  -3.828  1.00  0.00     0.002 C 
HETATM   15  C11 UNL     1      96.171  17.643  -3.693  1.00  0.00     0.020 C 
HETATM   16  C12 UNL     1      96.019  18.363  -2.400  1.00  0.00     0.127 C 
ENDBRANCH   9  10
ENDBRANCH   8   9
ENDBRANCH   6   8
ENDBRANCH   5   6
ENDBRANCH   2   5
TORSDOF 5
ENDMDL
MODEL 4
REMARK VINA RESULT: -5.297348435      3.402      5.256
REMARK  5 active torsions:
REMARK  status: ('A' for Active; 'I' for Inactive)
REMARK    1  A    between atoms: C2_2  and  C4_5 
REMARK    2  A    between atoms: C4_5  and  N2_6 
REMARK    3  A    between atoms: N2_6  and  C5_8 
REMARK    4  A    between atoms: C5_8  and  C6_9 
REMARK    5  A    between atoms: C6_9  and  N3_10 
ROOT
HETATM    1  C1  UNL     1      94.077  20.711  -1.162  1.00  0.00     0.031 C 
HETATM    2  C2  UNL     1      94.811  19.511  -1.698  1.00  0.00     0.127 C 
HETATM    3  C3  UNL     1      95.476  18.770  -0.591  1.00  0.00     0.069 C 
HETATM    4  N1  UNL     1      95.998  18.213   0.273  1.00  0.00    -0.197 NA
ENDROOT
BRANCH   2   5
HETATM    5  C4  UNL     1      94.012  18.563  -2.521  1.00  0.00     0.079 C 
BRANCH   5   6
HETATM    6  N2  UNL     1      94.046  17.195  -2.246  1.00  0.00    -0.376 N 
ATOM      7  H2  UNL     1      93.791  16.876  -1.311  1.00  0.00     0.164 HD
BRANCH   6   8
HETATM    8  C5  UNL     1      94.419  16.242  -3.208  1.00  0.00     0.104 C 
BRANCH   8   9
HETATM    9  C6  UNL     1      93.337  15.243  -3.493  1.00  0.00     0.107 C 
BRANCH   9  10
HETATM   10  N3  UNL     1      93.514  13.943  -3.039  1.00  0.00    -0.369 N 
HETATM   11  C7  UNL     1      92.950  13.442  -1.869  1.00  0.00     0.063 C 
HETATM   12  C8  UNL     1      93.740  13.749  -0.607  1.00  0.00     0.044 C 
HETATM   13  C9  UNL     1      95.120  13.187  -0.632  1.00  0.00     0.005 C 
HETATM   14  C10 UNL     1      95.129  11.891  -1.371  1.00  0.00     0.002 C 
HETATM   15  C11 UNL     1      94.928  11.976  -2.841  1.00  0.00     0.020 C 
HETATM   16  C12 UNL     1      94.793  13.351  -3.394  1.00  0.00     0.127 C 
ENDBRANCH   9  10
ENDBRANCH   8   9
ENDBRANCH   6   8
ENDBRANCH   5   6
ENDBRANCH   2   5
TORSDOF 5
ENDMDL
MODEL 5
REMARK VINA RESULT: -5.283317384      0.559      1.635
REMARK  5 active torsions:
REMARK  status: ('A' for Active; 'I' for Inactive)
REMARK    1  A    between atoms: C2_2  and  C4_5 
REMARK    2  A    between atoms: C4_5  and  N2_6 
REMARK    3  A    between atoms: N2_6  and  C5_8 
REMARK    4  A    between atoms: C5_8  and  C6_9 
REMARK    5  A    between atoms: C6_9  and  N3_10 
ROOT
HETATM    1  C1  UNL     1      89.706  22.026  -0.685  1.00  0.00     0.031 C 
HETATM    2  C2  UNL     1      90.863  22.259  -1.618  1.00  0.00     0.127 C 
HETATM    3  C3  UNL     1      91.272  23.691  -1.593  1.00  0.00     0.069 C 
HETATM    4  N1  UNL     1      91.570  24.804  -1.575  1.00  0.00    -0.197 NA
ENDROOT
BRANCH   2   5
HETATM    5  C4  UNL     1      92.059  21.398  -1.413  1.00  0.00     0.079 C 
BRANCH   5   6
HETATM    6  N2  UNL     1      93.268  21.962  -1.002  1.00  0.00    -0.376 N 
ATOM      7  H2  UNL     1      93.268  22.919  -0.650  1.00  0.00     0.164 HD
BRANCH   6   8
HETATM    8  C5  UNL     1      94.484  21.261  -1.057  1.00  0.00     0.104 C 
BRANCH   8   9
HETATM    9  C6  UNL     1      94.362  19.930  -1.739  1.00  0.00     0.107 C 
BRANCH   9  10
HETATM   10  N3  UNL     1      94.495  18.786  -0.964  1.00  0.00    -0.369 N 
HETATM   11  C7  UNL     1      95.318  18.695   0.156  1.00  0.00     0.063 C 
HETATM   12  C8  UNL     1      96.773  18.380  -0.153  1.00  0.00     0.044 C 
HETATM   13  C9  UNL     1      96.950  17.080  -0.860  1.00  0.00     0.005 C 
HETATM   14  C10 UNL     1      95.930  16.100  -0.388  1.00  0.00     0.002 C 
HETATM   15  C11 UNL     1      94.528  16.361  -0.811  1.00  0.00     0.020 C 
HETATM   16  C12 UNL     1      94.333  17.541  -1.696  1.00  0.00     0.127 C 
ENDBRANCH   9  10
ENDBRANCH   8   9
ENDBRANCH   6   8
ENDBRANCH   5   6
ENDBRANCH   2   5
TORSDOF 5
ENDMDL
