MODEL 1
REMARK VINA RESULT: -5.892745902      0.000      0.000
REMARK  6 active torsions:
REMARK  status: ('A' for Active; 'I' for Inactive)
REMARK    1  A    between atoms: C2_2  and  C3_3 
REMARK    2  A    between atoms: C5_5  and  C6_6 
REMARK    3  A    between atoms: C5_5  and  C7_11 
REMARK    4  A    between atoms: C6_6  and  N1_7 
REMARK    5  A    between atoms: C7_11  and  C8_12 
REMARK    6  A    between atoms: N2_13  and  C9_15 
ROOT
HETATM    1  C3  UNL     1      95.569  17.199  -3.407  1.00  0.00     0.078 C 
HETATM    2  C4  UNL     1      96.080  18.534  -2.842  1.00  0.00     0.028 C 
HETATM    3  C5  UNL     1      94.974  18.891  -1.888  1.00  0.00    -0.005 C 
HETATM    4  C12 UNL     1      93.711  18.391  -2.565  1.00  0.00     0.090 C 
HETATM    5  C13 UNL     1      94.176  17.588  -3.718  1.00  0.00     0.135 C 
HETATM    6  O1  UNL     1      93.558  17.307  -4.706  1.00  0.00    -0.297 OA
ENDROOT
BRANCH   3   7
HETATM    7  C6  UNL     1      95.172  18.096  -0.619  1.00  0.00     0.239 C 
BRANCH   7   8
HETATM    8  N1  UNL     1      96.350  18.557   0.094  1.00  0.00    -0.079 N 
ATOM      9  H13 UNL     1      96.335  18.270   1.073  1.00  0.00     0.274 HD
ATOM     10  H12 UNL     1      97.189  18.058  -0.199  1.00  0.00     0.274 HD
ATOM     11  H11 UNL     1      96.455  19.567  -0.004  1.00  0.00     0.274 HD
ENDBRANCH   7   8
ENDBRANCH   3   7
BRANCH   3  12
HETATM   12  C7  UNL     1      94.909  20.335  -1.536  1.00  0.00     0.056 C 
BRANCH  12  13
HETATM   13  C8  UNL     1      93.663  20.789  -0.922  1.00  0.00     0.057 C 
HETATM   14  N2  UNL     1      93.059  21.772  -1.477  1.00  0.00    -0.398 N 
ATOM     15  H2  UNL     1      93.485  22.178  -2.311  1.00  0.00     0.159 HD
BRANCH  14  16
HETATM   16  C9  UNL     1      91.843  22.341  -1.018  1.00  0.00     0.080 A 
HETATM   17  C10 UNL     1      90.715  22.660  -1.881  1.00  0.00     0.027 A 
HETATM   18  C11 UNL     1      91.617  23.771  -1.515  1.00  0.00     0.027 A 
ENDBRANCH  14  16
ENDBRANCH  12  13
ENDBRANCH   3  12
BRANCH   1  19
HETATM   19  C2  UNL     1      96.341  16.805  -4.599  1.00  0.00    -0.025 C 
HETATM   20  C1  UNL     1      97.529  17.355  -4.791  1.00  0.00     0.007 C 
ENDBRANCH   1  19
TORSDOF 6
ENDMDL
MODEL 2
REMARK VINA RESULT: -5.578207134      3.217      6.276
REMARK  6 active torsions:
REMARK  status: ('A' for Active; 'I' for Inactive)
REMARK    1  A    between atoms: C2_2  and  C3_3 
REMARK    2  A    between atoms: C5_5  and  C6_6 
REMARK    3  A    between atoms: C5_5  and  C7_11 
REMARK    4  A    between atoms: C6_6  and  N1_7 
REMARK    5  A    between atoms: C7_11  and  C8_12 
REMARK    6  A    between atoms: N2_13  and  C9_15 
ROOT
HETATM    1  C3  UNL     1      94.381  19.763  -1.788  1.00  0.00     0.078 C 
HETATM    2  C4  UNL     1      94.844  18.614  -0.877  1.00  0.00     0.028 C 
HETATM    3  C5  UNL     1      95.078  17.520  -1.881  1.00  0.00    -0.005 C 
HETATM    4  C12 UNL     1      94.000  17.730  -2.930  1.00  0.00     0.090 C 
HETATM    5  C13 UNL     1      93.384  19.035  -2.602  1.00  0.00     0.135 C 
HETATM    6  O1  UNL     1      92.299  19.429  -2.924  1.00  0.00    -0.297 OA
ENDROOT
BRANCH   3   7
HETATM    7  C6  UNL     1      96.419  17.757  -2.533  1.00  0.00     0.239 C 
BRANCH   7   8
HETATM    8  N1  UNL     1      96.371  17.408  -3.942  1.00  0.00    -0.079 N 
ATOM      9  H13 UNL     1      95.600  16.773  -4.148  1.00  0.00     0.274 HD
ATOM     10  H12 UNL     1      96.076  18.197  -4.517  1.00  0.00     0.274 HD
ATOM     11  H11 UNL     1      97.267  17.029  -4.248  1.00  0.00     0.274 HD
ENDBRANCH   7   8
ENDBRANCH   3   7
BRANCH   3  12
HETATM   12  C7  UNL     1      95.066  16.147  -1.308  1.00  0.00     0.056 C 
BRANCH  12  13
HETATM   13  C8  UNL     1      94.161  15.194  -1.946  1.00  0.00     0.057 C 
HETATM   14  N2  UNL     1      94.573  13.989  -2.075  1.00  0.00    -0.398 N 
ATOM     15  H2  UNL     1      95.506  13.769  -1.726  1.00  0.00     0.159 HD
BRANCH  14  16
HETATM   16  C9  UNL     1      93.829  12.936  -2.668  1.00  0.00     0.080 A 
HETATM   17  C10 UNL     1      93.436  11.721  -1.970  1.00  0.00     0.027 A 
HETATM   18  C11 UNL     1      94.633  11.644  -2.832  1.00  0.00     0.027 A 
ENDBRANCH  14  16
ENDBRANCH  12  13
ENDBRANCH   3  12
BRANCH   1  19
HETATM   19  C2  UNL     1      93.795  20.857  -0.993  1.00  0.00    -0.025 C 
HETATM   20  C1  UNL     1      94.394  22.037  -1.005  1.00  0.00     0.007 C 
ENDBRANCH   1  19
TORSDOF 6
ENDMDL
MODEL 3
REMARK VINA RESULT: -5.499202349      3.701      6.896
REMARK  6 active torsions:
REMARK  status: ('A' for Active; 'I' for Inactive)
REMARK    1  A    between atoms: C2_2  and  C3_3 
REMARK    2  A    between atoms: C5_5  and  C6_6 
REMARK    3  A    between atoms: C5_5  and  C7_11 
REMARK    4  A    between atoms: C6_6  and  N1_7 
REMARK    5  A    between atoms: C7_11  and  C8_12 
REMARK    6  A    between atoms: N2_13  and  C9_15 
ROOT
HETATM    1  C3  UNL     1      94.274  18.884  -2.254  1.00  0.00     0.078 C 
HETATM    2  C4  UNL     1      94.365  17.398  -1.869  1.00  0.00     0.028 C 
HETATM    3  C5  UNL     1      93.994  16.736  -3.166  1.00  0.00    -0.005 C 
HETATM    4  C12 UNL     1      92.952  17.654  -3.778  1.00  0.00     0.090 C 
HETATM    5  C13 UNL     1      92.963  18.873  -2.938  1.00  0.00     0.135 C 
HETATM    6  O1  UNL     1      92.091  19.688  -2.828  1.00  0.00    -0.297 OA
ENDROOT
BRANCH   3   7
HETATM    7  C6  UNL     1      95.209  16.742  -4.063  1.00  0.00     0.239 C 
BRANCH   7   8
HETATM    8  N1  UNL     1      94.855  17.185  -5.400  1.00  0.00    -0.079 N 
ATOM      9  H13 UNL     1      94.427  16.437  -5.945  1.00  0.00     0.274 HD
ATOM     10  H12 UNL     1      94.068  17.834  -5.388  1.00  0.00     0.274 HD
ATOM     11  H11 UNL     1      95.666  17.582  -5.873  1.00  0.00     0.274 HD
ENDBRANCH   7   8
ENDBRANCH   3   7
BRANCH   3  12
HETATM   12  C7  UNL     1      93.518  15.333  -3.026  1.00  0.00     0.056 C 
BRANCH  12  13
HETATM   13  C8  UNL     1      94.551  14.327  -2.789  1.00  0.00     0.057 C 
HETATM   14  N2  UNL     1      94.208  13.098  -2.894  1.00  0.00    -0.398 N 
ATOM     15  H2  UNL     1      93.237  12.898  -3.135  1.00  0.00     0.159 HD
BRANCH  14  16
HETATM   16  C9  UNL     1      95.077  11.993  -2.700  1.00  0.00     0.080 A 
HETATM   17  C10 UNL     1      95.530  11.113  -3.767  1.00  0.00     0.027 A 
HETATM   18  C11 UNL     1      94.401  10.641  -2.939  1.00  0.00     0.027 A 
ENDBRANCH  14  16
ENDBRANCH  12  13
ENDBRANCH   3  12
BRANCH   1  19
HETATM   19  C2  UNL     1      94.295  19.737  -1.053  1.00  0.00    -0.025 C 
HETATM   20  C1  UNL     1      94.563  21.025  -1.199  1.00  0.00     0.007 C 
ENDBRANCH   1  19
TORSDOF 6
ENDMDL
MODEL 4
REMARK VINA RESULT: -5.490385810      3.110      5.881
REMARK  6 active torsions:
REMARK  status: ('A' for Active; 'I' for Inactive)
REMARK    1  A    between atoms: C2_2  and  C3_3 
REMARK    2  A    between atoms: C5_5  and  C6_6 
REMARK    3  A    between atoms: C5_5  and  C7_11 
REMARK    4  A    between atoms: C6_6  and  N1_7 
REMARK    5  A    between atoms: C7_11  and  C8_12 
REMARK    6  A    between atoms: N2_13  and  C9_15 
ROOT
HETATM    1  C3  UNL     1      96.648  17.838  -0.624  1.00  0.00     0.078 C 
HETATM    2  C4  UNL     1      96.511  17.870  -2.155  1.00  0.00     0.028 C 
HETATM    3  C5  UNL     1      95.025  17.716  -2.319  1.00  0.00    -0.005 C 
HETATM    4  C12 UNL     1      94.612  16.784  -1.195  1.00  0.00     0.090 C 
HETATM    5  C13 UNL     1      95.809  16.655  -0.334  1.00  0.00     0.135 C 
HETATM    6  O1  UNL     1      96.056  15.775   0.442  1.00  0.00    -0.297 OA
ENDROOT
BRANCH   3   7
HETATM    7  C6  UNL     1      94.382  19.060  -2.074  1.00  0.00     0.239 C 
BRANCH   7   8
HETATM    8  N1  UNL     1      93.106  19.149  -2.761  1.00  0.00    -0.079 N 
ATOM      9  H13 UNL     1      93.184  18.879  -3.741  1.00  0.00     0.274 HD
ATOM     10  H12 UNL     1      92.459  18.422  -2.454  1.00  0.00     0.274 HD
ATOM     11  H11 UNL     1      92.705  20.081  -2.655  1.00  0.00     0.274 HD
ENDBRANCH   7   8
ENDBRANCH   3   7
BRANCH   3  12
HETATM   12  C7  UNL     1      94.603  17.227  -3.659  1.00  0.00     0.056 C 
BRANCH  12  13
HETATM   13  C8  UNL     1      95.626  16.535  -4.441  1.00  0.00     0.057 C 
HETATM   14  N2  UNL     1      95.960  17.055  -5.562  1.00  0.00    -0.398 N 
ATOM     15  H2  UNL     1      95.491  17.918  -5.841  1.00  0.00     0.159 HD
BRANCH  14  16
HETATM   16  C9  UNL     1      96.932  16.521  -6.447  1.00  0.00     0.080 A 
HETATM   17  C10 UNL     1      98.347  16.404  -6.130  1.00  0.00     0.027 A 
HETATM   18  C11 UNL     1      97.935  17.564  -6.946  1.00  0.00     0.027 A 
ENDBRANCH  14  16
ENDBRANCH  12  13
ENDBRANCH   3  12
BRANCH   1  19
HETATM   19  C2  UNL     1      98.057  17.661  -0.228  1.00  0.00    -0.025 C 
HETATM   20  C1  UNL     1      98.574  18.502   0.653  1.00  0.00     0.007 C 
ENDBRANCH   1  19
TORSDOF 6
ENDMDL
MODEL 5
REMARK VINA RESULT: -5.470215429      5.024      7.978
REMARK  6 active torsions:
REMARK  status: ('A' for Active; 'I' for Inactive)
REMARK    1  A    between atoms: C2_2  and  C3_3 
REMARK    2  A    between atoms: C5_5  and  C6_6 
REMARK    3  A    between atoms: C5_5  and  C7_11 
REMARK    4  A    between atoms: C6_6  and  N1_7 
REMARK    5  A    between atoms: C7_11  and  C8_12 
REMARK    6  A    between atoms: N2_13  and  C9_15 
ROOT
HETATM    1  C3  UNL     1      96.618  16.895  -5.991  1.00  0.00     0.078 C 
HETATM    2  C4  UNL     1      97.814  17.656  -5.395  1.00  0.00     0.028 C 
HETATM    3  C5  UNL     1      98.884  17.360  -6.408  1.00  0.00    -0.005 C 
HETATM    4  C12 UNL     1      98.596  15.941  -6.862  1.00  0.00     0.090 C 
HETATM    5  C13 UNL     1      97.278  15.603  -6.280  1.00  0.00     0.135 C 
HETATM    6  O1  UNL     1      96.829  14.510  -6.080  1.00  0.00    -0.297 OA
ENDROOT
BRANCH   3   7
HETATM    7  C6  UNL     1      98.683  18.280  -7.589  1.00  0.00     0.239 C 
BRANCH   7   8
HETATM    8  N1  UNL     1      99.917  18.975  -7.910  1.00  0.00    -0.079 N 
ATOM      9  H13 UNL     1      99.899  19.361  -8.854  1.00  0.00     0.274 HD
ATOM     10  H12 UNL     1     100.006  19.848  -7.390  1.00  0.00     0.274 HD
ATOM     11  H11 UNL     1     100.721  18.364  -7.766  1.00  0.00     0.274 HD
ENDBRANCH   7   8
ENDBRANCH   3   7
BRANCH   3  12
HETATM   12  C7  UNL     1     100.272  17.535  -5.903  1.00  0.00     0.056 C 
BRANCH  12  13
HETATM   13  C8  UNL     1     100.443  17.450  -4.454  1.00  0.00     0.057 C 
HETATM   14  N2  UNL     1     101.223  16.539  -4.007  1.00  0.00    -0.398 N 
ATOM     15  H2  UNL     1     101.675  15.929  -4.688  1.00  0.00     0.159 HD
BRANCH  14  16
HETATM   16  C9  UNL     1     101.504  16.313  -2.635  1.00  0.00     0.080 A 
HETATM   17  C10 UNL     1     102.706  16.782  -1.960  1.00  0.00     0.027 A 
HETATM   18  C11 UNL     1     102.691  15.373  -2.406  1.00  0.00     0.027 A 
ENDBRANCH  14  16
ENDBRANCH  12  13
ENDBRANCH   3  12
BRANCH   1  19
HETATM   19  C2  UNL     1      95.526  16.782  -5.008  1.00  0.00    -0.025 C 
HETATM   20  C1  UNL     1      95.724  17.258  -3.789  1.00  0.00     0.007 C 
ENDBRANCH   1  19
TORSDOF 6
ENDMDL
