MODEL 1
REMARK VINA RESULT: -6.185156186      0.000      0.000
REMARK  7 active torsions:
REMARK  status: ('A' for Active; 'I' for Inactive)
REMARK    1  A    between atoms: C2_3  and  C3_4 
REMARK    2  A    between atoms: C3_4  and  C4_5 
REMARK    3  A    between atoms: C8_10  and  C9_11 
REMARK    4  A    between atoms: C9_11  and  C10_12 
REMARK    5  A    between atoms: C10_12  and  C11_13 
REMARK    6  A    between atoms: C11_13  and  C12_14 
REMARK    7  A    between atoms: C12_14  and  O2_15 
ROOT
HETATM    1  N1  UNL     1      90.342  17.636  -3.418  1.00  0.00    -0.197 NA
HETATM    2  C1  UNL     1      91.496  17.434  -3.505  1.00  0.00     0.059 C 
HETATM    3  C2  UNL     1      92.923  17.176  -3.645  1.00  0.00     0.124 C 
ENDROOT
BRANCH   3   4
HETATM    4  C3  UNL     1      93.771  18.274  -3.105  1.00  0.00     0.026 C 
BRANCH   4   5
HETATM    5  C4  UNL     1      94.561  18.059  -1.938  1.00  0.00    -0.010 C 
HETATM    6  C5  UNL     1      94.430  16.894  -1.021  1.00  0.00     0.178 C 
HETATM    7  O1  UNL     1      95.379  17.259  -0.023  1.00  0.00    -0.385 OA
HETATM    8  C6  UNL     1      95.866  18.481  -0.490  1.00  0.00     0.127 C 
HETATM    9  C7  UNL     1      96.067  18.185  -1.972  1.00  0.00     0.044 C 
HETATM   10  C8  UNL     1      94.617  19.183  -0.883  1.00  0.00     0.025 C 
BRANCH  10  11
HETATM   11  C9  UNL     1      94.652  20.505  -1.531  1.00  0.00     0.008 C 
BRANCH  11  12
HETATM   12  C10 UNL     1      93.994  21.606  -0.733  1.00  0.00     0.002 C 
BRANCH  12  13
HETATM   13  C11 UNL     1      92.556  21.755  -1.175  1.00  0.00     0.026 C 
BRANCH  13  14
HETATM   14  C12 UNL     1      92.318  23.228  -1.423  1.00  0.00     0.164 C 
BRANCH  14  15
HETATM   15  O2  UNL     1      91.933  23.915  -0.294  1.00  0.00    -0.401 OA
ATOM     16  H2  UNL     1      92.663  24.290   0.185  1.00  0.00     0.209 HD
ENDBRANCH  14  15
ENDBRANCH  13  14
ENDBRANCH  12  13
ENDBRANCH  11  12
ENDBRANCH  10  11
ENDBRANCH   4   5
ENDBRANCH   3   4
TORSDOF 7
ENDMDL
MODEL 2
REMARK VINA RESULT: -5.714885183      2.869      4.949
REMARK  7 active torsions:
REMARK  status: ('A' for Active; 'I' for Inactive)
REMARK    1  A    between atoms: C2_3  and  C3_4 
REMARK    2  A    between atoms: C3_4  and  C4_5 
REMARK    3  A    between atoms: C8_10  and  C9_11 
REMARK    4  A    between atoms: C9_11  and  C10_12 
REMARK    5  A    between atoms: C10_12  and  C11_13 
REMARK    6  A    between atoms: C11_13  and  C12_14 
REMARK    7  A    between atoms: C12_14  and  O2_15 
ROOT
HETATM    1  N1  UNL     1      93.498  22.495  -1.105  1.00  0.00    -0.197 NA
HETATM    2  C1  UNL     1      93.952  21.421  -0.960  1.00  0.00     0.059 C 
HETATM    3  C2  UNL     1      94.488  20.082  -0.762  1.00  0.00     0.124 C 
ENDROOT
BRANCH   3   4
HETATM    4  C3  UNL     1      94.894  19.421  -2.033  1.00  0.00     0.026 C 
BRANCH   4   5
HETATM    5  C4  UNL     1      94.116  18.349  -2.561  1.00  0.00    -0.010 C 
HETATM    6  C5  UNL     1      92.665  18.424  -2.881  1.00  0.00     0.178 C 
HETATM    7  O1  UNL     1      92.429  17.072  -3.268  1.00  0.00    -0.385 OA
HETATM    8  C6  UNL     1      93.686  16.483  -3.119  1.00  0.00     0.127 C 
HETATM    9  C7  UNL     1      94.594  17.536  -3.743  1.00  0.00     0.044 C 
HETATM   10  C8  UNL     1      94.121  17.008  -1.799  1.00  0.00     0.025 C 
BRANCH  10  11
HETATM   11  C9  UNL     1      95.460  16.717  -1.261  1.00  0.00     0.008 C 
BRANCH  11  12
HETATM   12  C10 UNL     1      95.457  15.897   0.007  1.00  0.00     0.002 C 
BRANCH  12  13
HETATM   13  C11 UNL     1      96.754  16.121   0.752  1.00  0.00     0.026 C 
BRANCH  13  14
HETATM   14  C12 UNL     1      97.052  17.603   0.688  1.00  0.00     0.164 C 
BRANCH  14  15
HETATM   15  O2  UNL     1      96.709  18.278   1.838  1.00  0.00    -0.401 OA
ATOM     16  H2  UNL     1      97.425  18.351   2.458  1.00  0.00     0.209 HD
ENDBRANCH  14  15
ENDBRANCH  13  14
ENDBRANCH  12  13
ENDBRANCH  11  12
ENDBRANCH  10  11
ENDBRANCH   4   5
ENDBRANCH   3   4
TORSDOF 7
ENDMDL
MODEL 3
REMARK VINA RESULT: -5.494957782      2.945      5.032
REMARK  7 active torsions:
REMARK  status: ('A' for Active; 'I' for Inactive)
REMARK    1  A    between atoms: C2_3  and  C3_4 
REMARK    2  A    between atoms: C3_4  and  C4_5 
REMARK    3  A    between atoms: C8_10  and  C9_11 
REMARK    4  A    between atoms: C9_11  and  C10_12 
REMARK    5  A    between atoms: C10_12  and  C11_13 
REMARK    6  A    between atoms: C11_13  and  C12_14 
REMARK    7  A    between atoms: C12_14  and  O2_15 
ROOT
HETATM    1  N1  UNL     1      93.194  22.979  -1.398  1.00  0.00    -0.197 NA
HETATM    2  C1  UNL     1      93.641  21.956  -1.030  1.00  0.00     0.059 C 
HETATM    3  C2  UNL     1      94.168  20.685  -0.554  1.00  0.00     0.124 C 
ENDROOT
BRANCH   3   4
HETATM    4  C3  UNL     1      94.625  19.793  -1.656  1.00  0.00     0.026 C 
BRANCH   4   5
HETATM    5  C4  UNL     1      95.227  18.536  -1.354  1.00  0.00    -0.010 C 
HETATM    6  C5  UNL     1      96.493  18.357  -0.593  1.00  0.00     0.178 C 
HETATM    7  O1  UNL     1      96.638  16.942  -0.688  1.00  0.00    -0.385 OA
HETATM    8  C6  UNL     1      95.518  16.564  -1.431  1.00  0.00     0.127 C 
HETATM    9  C7  UNL     1      94.421  17.395  -0.776  1.00  0.00     0.044 C 
HETATM   10  C8  UNL     1      95.516  17.572  -2.523  1.00  0.00     0.025 C 
BRANCH  10  11
HETATM   11  C9  UNL     1      94.433  17.620  -3.520  1.00  0.00     0.008 C 
BRANCH  11  12
HETATM   12  C10 UNL     1      94.551  16.589  -4.617  1.00  0.00     0.002 C 
BRANCH  12  13
HETATM   13  C11 UNL     1      93.684  15.397  -4.279  1.00  0.00     0.026 C 
BRANCH  13  14
HETATM   14  C12 UNL     1      92.255  15.891  -4.221  1.00  0.00     0.164 C 
BRANCH  14  15
HETATM   15  O2  UNL     1      91.433  15.089  -3.461  1.00  0.00    -0.401 OA
ATOM     16  H2  UNL     1      91.369  15.368  -2.555  1.00  0.00     0.209 HD
ENDBRANCH  14  15
ENDBRANCH  13  14
ENDBRANCH  12  13
ENDBRANCH  11  12
ENDBRANCH  10  11
ENDBRANCH   4   5
ENDBRANCH   3   4
TORSDOF 7
ENDMDL
MODEL 4
REMARK VINA RESULT: -5.488708971      3.108      5.211
REMARK  7 active torsions:
REMARK  status: ('A' for Active; 'I' for Inactive)
REMARK    1  A    between atoms: C2_3  and  C3_4 
REMARK    2  A    between atoms: C3_4  and  C4_5 
REMARK    3  A    between atoms: C8_10  and  C9_11 
REMARK    4  A    between atoms: C9_11  and  C10_12 
REMARK    5  A    between atoms: C10_12  and  C11_13 
REMARK    6  A    between atoms: C11_13  and  C12_14 
REMARK    7  A    between atoms: C12_14  and  O2_15 
ROOT
HETATM    1  N1  UNL     1      90.509  17.611  -3.501  1.00  0.00    -0.197 NA
HETATM    2  C1  UNL     1      91.537  17.160  -3.849  1.00  0.00     0.059 C 
HETATM    3  C2  UNL     1      92.795  16.589  -4.307  1.00  0.00     0.124 C 
ENDROOT
BRANCH   3   4
HETATM    4  C3  UNL     1      93.917  17.568  -4.302  1.00  0.00     0.026 C 
BRANCH   4   5
HETATM    5  C4  UNL     1      94.651  17.808  -3.103  1.00  0.00    -0.010 C 
HETATM    6  C5  UNL     1      94.331  18.863  -2.103  1.00  0.00     0.178 C 
HETATM    7  O1  UNL     1      95.424  18.689  -1.206  1.00  0.00    -0.385 OA
HETATM    8  C6  UNL     1      96.142  17.643  -1.788  1.00  0.00     0.127 C 
HETATM    9  C7  UNL     1      95.024  16.679  -2.168  1.00  0.00     0.044 C 
HETATM   10  C8  UNL     1      96.170  18.045  -3.218  1.00  0.00     0.025 C 
BRANCH  10  11
HETATM   11  C9  UNL     1      96.758  17.173  -4.249  1.00  0.00     0.008 C 
BRANCH  11  12
HETATM   12  C10 UNL     1      98.149  17.572  -4.682  1.00  0.00     0.002 C 
BRANCH  12  13
HETATM   13  C11 UNL     1      98.226  17.562  -6.192  1.00  0.00     0.026 C 
BRANCH  13  14
HETATM   14  C12 UNL     1      96.978  16.872  -6.696  1.00  0.00     0.164 C 
BRANCH  14  15
HETATM   15  O2  UNL     1      97.106  16.380  -7.975  1.00  0.00    -0.401 OA
ATOM     16  H2  UNL     1      97.172  15.433  -8.009  1.00  0.00     0.209 HD
ENDBRANCH  14  15
ENDBRANCH  13  14
ENDBRANCH  12  13
ENDBRANCH  11  12
ENDBRANCH  10  11
ENDBRANCH   4   5
ENDBRANCH   3   4
TORSDOF 7
ENDMDL
MODEL 5
REMARK VINA RESULT: -5.487447317      2.774      3.871
REMARK  7 active torsions:
REMARK  status: ('A' for Active; 'I' for Inactive)
REMARK    1  A    between atoms: C2_3  and  C3_4 
REMARK    2  A    between atoms: C3_4  and  C4_5 
REMARK    3  A    between atoms: C8_10  and  C9_11 
REMARK    4  A    between atoms: C9_11  and  C10_12 
REMARK    5  A    between atoms: C10_12  and  C11_13 
REMARK    6  A    between atoms: C11_13  and  C12_14 
REMARK    7  A    between atoms: C12_14  and  O2_15 
ROOT
HETATM    1  N1  UNL     1      98.164  15.549   1.065  1.00  0.00    -0.197 NA
HETATM    2  C1  UNL     1      97.408  16.439   0.931  1.00  0.00     0.059 C 
HETATM    3  C2  UNL     1      96.478  17.551   0.794  1.00  0.00     0.124 C 
ENDROOT
BRANCH   3   4
HETATM    4  C3  UNL     1      96.684  18.336  -0.454  1.00  0.00     0.026 C 
BRANCH   4   5
HETATM    5  C4  UNL     1      95.802  18.163  -1.561  1.00  0.00    -0.010 C 
HETATM    6  C5  UNL     1      96.212  17.697  -2.914  1.00  0.00     0.178 C 
HETATM    7  O1  UNL     1      94.967  17.808  -3.599  1.00  0.00    -0.385 OA
HETATM    8  C6  UNL     1      94.108  18.284  -2.606  1.00  0.00     0.127 C 
HETATM    9  C7  UNL     1      94.498  17.411  -1.419  1.00  0.00     0.044 C 
HETATM   10  C8  UNL     1      94.922  19.357  -1.980  1.00  0.00     0.025 C 
BRANCH  10  11
HETATM   11  C9  UNL     1      94.442  20.092  -0.797  1.00  0.00     0.008 C 
BRANCH  11  12
HETATM   12  C10 UNL     1      94.106  21.541  -1.059  1.00  0.00     0.002 C 
BRANCH  12  13
HETATM   13  C11 UNL     1      92.604  21.718  -1.044  1.00  0.00     0.026 C 
BRANCH  13  14
HETATM   14  C12 UNL     1      92.325  23.168  -1.372  1.00  0.00     0.164 C 
BRANCH  14  15
HETATM   15  O2  UNL     1      91.933  23.909  -0.280  1.00  0.00    -0.401 OA
ATOM     16  H2  UNL     1      91.141  23.582   0.130  1.00  0.00     0.209 HD
ENDBRANCH  14  15
ENDBRANCH  13  14
ENDBRANCH  12  13
ENDBRANCH  11  12
ENDBRANCH  10  11
ENDBRANCH   4   5
ENDBRANCH   3   4
TORSDOF 7
ENDMDL
