MODEL 1
REMARK VINA RESULT: -6.338213264      0.000      0.000
REMARK  5 active torsions:
REMARK  status: ('A' for Active; 'I' for Inactive)
REMARK    1  A    between atoms: C2_2  and  C3_3 
REMARK    2  A    between atoms: C3_3  and  C4_4 
REMARK    3  A    between atoms: C4_4  and  C5_5 
REMARK    4  A    between atoms: C5_5  and  C6_6 
REMARK    5  A    between atoms: C6_6  and  N1_7 
ROOT
HETATM    1  C3  UNL     1      95.344  17.984  -1.505  1.00  0.00    -0.020 C 
HETATM    2  C8  UNL     1      94.127  17.058  -1.774  1.00  0.00     0.144 C 
HETATM    3  N2  UNL     1      93.583  17.194  -3.084  1.00  0.00    -0.319 N 
HETATM    4  C9  UNL     1      92.229  17.403  -3.292  1.00  0.00     0.179 C 
HETATM    5  N3  UNL     1      91.095  17.596  -3.466  1.00  0.00    -0.172 NA
HETATM    6  C10 UNL     1      94.434  17.121  -4.300  1.00  0.00     0.139 C 
HETATM    7  C11 UNL     1      95.784  17.030  -3.652  1.00  0.00     0.009 A 
HETATM    8  C12 UNL     1      96.899  17.903  -3.649  1.00  0.00     0.012 A 
HETATM    9  C13 UNL     1      95.827  18.358  -2.853  1.00  0.00     0.002 A 
ENDROOT
BRANCH   1  10
HETATM   10  C2  UNL     1      96.382  17.188  -0.786  1.00  0.00     0.007 C 
HETATM   11  C1  UNL     1      97.355  17.937   0.058  1.00  0.00     0.006 C 
ENDBRANCH   1  10
BRANCH   1  12
HETATM   12  C4  UNL     1      94.889  19.236  -0.836  1.00  0.00     0.013 C 
BRANCH  12  13
HETATM   13  C5  UNL     1      94.124  20.237  -1.580  1.00  0.00     0.028 C 
BRANCH  13  14
HETATM   14  C6  UNL     1      94.219  21.610  -0.875  1.00  0.00     0.231 C 
BRANCH  14  15
HETATM   15  N1  UNL     1      93.047  22.411  -1.217  1.00  0.00    -0.079 N 
HETATM   16  C7  UNL     1      91.882  21.596  -1.390  1.00  0.00     0.266 C 
ATOM     17  H12 UNL     1      92.886  23.148  -0.530  1.00  0.00     0.276 HD
ATOM     18  H11 UNL     1      93.220  22.992  -2.037  1.00  0.00     0.276 HD
ENDBRANCH  14  15
ENDBRANCH  13  14
ENDBRANCH  12  13
ENDBRANCH   1  12
TORSDOF 5
ENDMDL
MODEL 2
REMARK VINA RESULT: -5.844492512      2.121      3.598
REMARK  5 active torsions:
REMARK  status: ('A' for Active; 'I' for Inactive)
REMARK    1  A    between atoms: C2_2  and  C3_3 
REMARK    2  A    between atoms: C3_3  and  C4_4 
REMARK    3  A    between atoms: C4_4  and  C5_5 
REMARK    4  A    between atoms: C5_5  and  C6_6 
REMARK    5  A    between atoms: C6_6  and  N1_7 
ROOT
HETATM    1  C3  UNL     1      95.541  18.089  -2.312  1.00  0.00    -0.020 C 
HETATM    2  C8  UNL     1      96.710  17.735  -1.354  1.00  0.00     0.144 C 
HETATM    3  N2  UNL     1      96.287  17.152  -0.125  1.00  0.00    -0.319 N 
HETATM    4  C9  UNL     1      96.722  17.634   1.099  1.00  0.00     0.179 C 
HETATM    5  N3  UNL     1      97.073  18.052   2.126  1.00  0.00    -0.172 NA
HETATM    6  C10 UNL     1      95.355  15.994  -0.084  1.00  0.00     0.139 C 
HETATM    7  C11 UNL     1      95.036  15.882  -1.546  1.00  0.00     0.009 A 
HETATM    8  C12 UNL     1      93.835  16.061  -2.275  1.00  0.00     0.012 A 
HETATM    9  C13 UNL     1      94.407  17.270  -1.827  1.00  0.00     0.002 A 
ENDROOT
BRANCH   1  10
HETATM   10  C2  UNL     1      95.928  17.670  -3.692  1.00  0.00     0.007 C 
HETATM   11  C1  UNL     1      97.380  17.668  -4.024  1.00  0.00     0.006 C 
ENDBRANCH   1  10
BRANCH   1  12
HETATM   12  C4  UNL     1      95.159  19.518  -2.138  1.00  0.00     0.013 C 
BRANCH  12  13
HETATM   13  C5  UNL     1      94.399  19.945  -0.963  1.00  0.00     0.028 C 
BRANCH  13  14
HETATM   14  C6  UNL     1      94.133  21.467  -1.024  1.00  0.00     0.231 C 
BRANCH  14  15
HETATM   15  N1  UNL     1      92.695  21.703  -1.110  1.00  0.00    -0.079 N 
HETATM   16  C7  UNL     1      92.399  23.085  -1.343  1.00  0.00     0.266 C 
ATOM     17  H12 UNL     1      92.260  21.106  -1.813  1.00  0.00     0.276 HD
ATOM     18  H11 UNL     1      92.210  21.353  -0.283  1.00  0.00     0.276 HD
ENDBRANCH  14  15
ENDBRANCH  13  14
ENDBRANCH  12  13
ENDBRANCH   1  12
TORSDOF 5
ENDMDL
MODEL 3
REMARK VINA RESULT: -5.812237233      2.318      4.962
REMARK  5 active torsions:
REMARK  status: ('A' for Active; 'I' for Inactive)
REMARK    1  A    between atoms: C2_2  and  C3_3 
REMARK    2  A    between atoms: C3_3  and  C4_4 
REMARK    3  A    between atoms: C4_4  and  C5_5 
REMARK    4  A    between atoms: C5_5  and  C6_6 
REMARK    5  A    between atoms: C6_6  and  N1_7 
ROOT
HETATM    1  C3  UNL     1      95.274  16.513  -3.973  1.00  0.00    -0.020 C 
HETATM    2  C8  UNL     1      94.079  17.310  -4.562  1.00  0.00     0.144 C 
HETATM    3  N2  UNL     1      93.216  17.861  -3.572  1.00  0.00    -0.319 N 
HETATM    4  C9  UNL     1      91.844  17.669  -3.613  1.00  0.00     0.179 C 
HETATM    5  N3  UNL     1      90.695  17.492  -3.638  1.00  0.00    -0.172 NA
HETATM    6  C10 UNL     1      93.734  18.672  -2.439  1.00  0.00     0.139 C 
HETATM    7  C11 UNL     1      95.207  18.525  -2.684  1.00  0.00     0.009 A 
HETATM    8  C12 UNL     1      96.240  17.907  -1.937  1.00  0.00     0.012 A 
HETATM    9  C13 UNL     1      95.381  16.988  -2.575  1.00  0.00     0.002 A 
ENDROOT
BRANCH   1  10
HETATM   10  C2  UNL     1      96.501  16.882  -4.740  1.00  0.00     0.007 C 
HETATM   11  C1  UNL     1      96.383  16.959  -6.223  1.00  0.00     0.006 C 
ENDBRANCH   1  10
BRANCH   1  12
HETATM   12  C4  UNL     1      94.939  15.062  -3.921  1.00  0.00     0.013 C 
BRANCH  12  13
HETATM   13  C5  UNL     1      94.516  14.444  -2.664  1.00  0.00     0.028 C 
BRANCH  13  14
HETATM   14  C6  UNL     1      92.994  14.174  -2.689  1.00  0.00     0.231 C 
BRANCH  14  15
HETATM   15  N1  UNL     1      92.666  13.161  -1.690  1.00  0.00    -0.079 N 
HETATM   16  C7  UNL     1      93.295  11.908  -1.981  1.00  0.00     0.266 C 
ATOM     17  H12 UNL     1      92.891  13.480  -0.748  1.00  0.00     0.276 HD
ATOM     18  H11 UNL     1      91.657  13.055  -1.585  1.00  0.00     0.276 HD
ENDBRANCH  14  15
ENDBRANCH  13  14
ENDBRANCH  12  13
ENDBRANCH   1  12
TORSDOF 5
ENDMDL
MODEL 4
REMARK VINA RESULT: -5.728709719      2.642      5.517
REMARK  5 active torsions:
REMARK  status: ('A' for Active; 'I' for Inactive)
REMARK    1  A    between atoms: C2_2  and  C3_3 
REMARK    2  A    between atoms: C3_3  and  C4_4 
REMARK    3  A    between atoms: C4_4  and  C5_5 
REMARK    4  A    between atoms: C5_5  and  C6_6 
REMARK    5  A    between atoms: C6_6  and  N1_7 
ROOT
HETATM    1  C3  UNL     1      95.157  16.447  -4.265  1.00  0.00    -0.020 C 
HETATM    2  C8  UNL     1      93.948  17.307  -4.721  1.00  0.00     0.144 C 
HETATM    3  N2  UNL     1      93.162  17.807  -3.643  1.00  0.00    -0.319 N 
HETATM    4  C9  UNL     1      91.785  17.647  -3.610  1.00  0.00     0.179 C 
HETATM    5  N3  UNL     1      90.633  17.496  -3.573  1.00  0.00    -0.172 NA
HETATM    6  C10 UNL     1      93.770  18.528  -2.495  1.00  0.00     0.139 C 
HETATM    7  C11 UNL     1      95.221  18.367  -2.842  1.00  0.00     0.009 A 
HETATM    8  C12 UNL     1      96.282  17.679  -2.206  1.00  0.00     0.012 A 
HETATM    9  C13 UNL     1      95.362  16.823  -2.848  1.00  0.00     0.002 A 
ENDROOT
BRANCH   1  10
HETATM   10  C2  UNL     1      96.342  16.842  -5.082  1.00  0.00     0.007 C 
HETATM   11  C1  UNL     1      97.055  15.761  -5.819  1.00  0.00     0.006 C 
ENDBRANCH   1  10
BRANCH   1  12
HETATM   12  C4  UNL     1      94.789  15.003  -4.288  1.00  0.00     0.013 C 
BRANCH  12  13
HETATM   13  C5  UNL     1      94.400  14.317  -3.055  1.00  0.00     0.028 C 
BRANCH  13  14
HETATM   14  C6  UNL     1      94.852  12.839  -3.104  1.00  0.00     0.231 C 
BRANCH  14  15
HETATM   15  N1  UNL     1      95.661  12.620  -4.300  1.00  0.00    -0.079 N 
HETATM   16  C7  UNL     1      96.080  11.255  -4.411  1.00  0.00     0.266 C 
ATOM     17  H12 UNL     1      95.173  12.928  -5.141  1.00  0.00     0.276 HD
ATOM     18  H11 UNL     1      96.455  13.258  -4.334  1.00  0.00     0.276 HD
ENDBRANCH  14  15
ENDBRANCH  13  14
ENDBRANCH  12  13
ENDBRANCH   1  12
TORSDOF 5
ENDMDL
MODEL 5
REMARK VINA RESULT: -5.684698373      2.862      4.406
REMARK  5 active torsions:
REMARK  status: ('A' for Active; 'I' for Inactive)
REMARK    1  A    between atoms: C2_2  and  C3_3 
REMARK    2  A    between atoms: C3_3  and  C4_4 
REMARK    3  A    between atoms: C4_4  and  C5_5 
REMARK    4  A    between atoms: C5_5  and  C6_6 
REMARK    5  A    between atoms: C6_6  and  N1_7 
ROOT
HETATM    1  C3  UNL     1      94.688  17.247  -2.279  1.00  0.00    -0.020 C 
HETATM    2  C8  UNL     1      95.027  15.911  -2.994  1.00  0.00     0.144 C 
HETATM    3  N2  UNL     1      93.879  15.191  -3.436  1.00  0.00    -0.319 N 
HETATM    4  C9  UNL     1      93.698  13.851  -3.132  1.00  0.00     0.179 C 
HETATM    5  N3  UNL     1      93.537  12.732  -2.860  1.00  0.00    -0.172 NA
HETATM    6  C10 UNL     1      92.811  15.834  -4.246  1.00  0.00     0.139 C 
HETATM    7  C11 UNL     1      93.308  17.250  -4.231  1.00  0.00     0.009 A 
HETATM    8  C12 UNL     1      92.777  18.439  -3.675  1.00  0.00     0.012 A 
HETATM    9  C13 UNL     1      93.306  17.555  -2.711  1.00  0.00     0.002 A 
ENDROOT
BRANCH   1  10
HETATM   10  C2  UNL     1      95.631  18.292  -2.776  1.00  0.00     0.007 C 
HETATM   11  C1  UNL     1      96.886  17.825  -3.429  1.00  0.00     0.006 C 
ENDBRANCH   1  10
BRANCH   1  12
HETATM   12  C4  UNL     1      94.652  17.036  -0.804  1.00  0.00     0.013 C 
BRANCH  12  13
HETATM   13  C5  UNL     1      95.633  16.166  -0.156  1.00  0.00     0.028 C 
BRANCH  13  14
HETATM   14  C6  UNL     1      96.679  17.015   0.602  1.00  0.00     0.231 C 
BRANCH  14  15
HETATM   15  N1  UNL     1      97.050  16.334   1.840  1.00  0.00    -0.079 N 
HETATM   16  C7  UNL     1      97.877  15.193   1.587  1.00  0.00     0.266 C 
ATOM     17  H12 UNL     1      97.491  16.975   2.500  1.00  0.00     0.276 HD
ATOM     18  H11 UNL     1      96.227  16.083   2.387  1.00  0.00     0.276 HD
ENDBRANCH  14  15
ENDBRANCH  13  14
ENDBRANCH  12  13
ENDBRANCH   1  12
TORSDOF 5
ENDMDL
