MODEL 1
REMARK VINA RESULT: -5.771899891      0.000      0.000
REMARK  5 active torsions:
REMARK  status: ('A' for Active; 'I' for Inactive)
REMARK    1  A    between atoms: C2_2  and  C3_3 
REMARK    2  A    between atoms: C3_3  and  N1_4 
REMARK    3  A    between atoms: N1_4  and  C4_7 
REMARK    4  A    between atoms: C4_7  and  C5_8 
REMARK    5  A    between atoms: C5_8  and  N2_9 
ROOT
HETATM    1  N2  UNL     1      93.812  21.148  -0.188  1.00  0.00    -0.373 N 
ATOM      2  H2  UNL     1      93.659  21.173   0.820  1.00  0.00     0.161 HD
HETATM    3  C6  UNL     1      94.507  20.195  -0.689  1.00  0.00     0.117 C 
HETATM    4  C7  UNL     1      94.936  19.827  -2.058  1.00  0.00     0.122 C 
HETATM    5  C8  UNL     1      95.158  18.503  -1.356  1.00  0.00     0.076 C 
HETATM    6  C9  UNL     1      94.062  17.482  -1.617  1.00  0.00     0.039 C 
HETATM    7  C10 UNL     1      94.699  16.382  -2.433  1.00  0.00     0.003 C 
HETATM    8  C11 UNL     1      96.031  16.947  -2.882  1.00  0.00     0.003 C 
HETATM    9  C12 UNL     1      96.430  17.788  -1.690  1.00  0.00     0.039 C 
HETATM   10  O1  UNL     1      95.140  19.112  -0.100  1.00  0.00    -0.328 OA
ENDROOT
BRANCH   1  11
HETATM   11  C5  UNL     1      93.232  22.200  -1.022  1.00  0.00     0.149 C 
BRANCH  11  12
HETATM   12  C4  UNL     1      91.811  21.838  -1.278  1.00  0.00     0.252 C 
BRANCH  12  13
HETATM   13  N1  UNL     1      90.858  22.557  -0.487  1.00  0.00    -0.071 N 
ATOM     14  H12 UNL     1      91.184  23.510  -0.320  1.00  0.00     0.277 HD
ATOM     15  H11 UNL     1      90.852  22.204   0.470  1.00  0.00     0.277 HD
BRANCH  13  16
HETATM   16  C3  UNL     1      89.534  22.571  -1.018  1.00  0.00     0.259 C 
BRANCH  16  17
HETATM   17  C2  UNL     1      88.739  21.530  -0.272  1.00  0.00    -0.010 C 
HETATM   18  C1  UNL     1      88.172  21.797   0.889  1.00  0.00     0.008 C 
ENDBRANCH  16  17
ENDBRANCH  13  16
ENDBRANCH  12  13
ENDBRANCH  11  12
ENDBRANCH   1  11
TORSDOF 5
ENDMDL
MODEL 2
REMARK VINA RESULT: -5.566996450      1.505      2.117
REMARK  5 active torsions:
REMARK  status: ('A' for Active; 'I' for Inactive)
REMARK    1  A    between atoms: C2_2  and  C3_3 
REMARK    2  A    between atoms: C3_3  and  N1_4 
REMARK    3  A    between atoms: N1_4  and  C4_7 
REMARK    4  A    between atoms: C4_7  and  C5_8 
REMARK    5  A    between atoms: C5_8  and  N2_9 
ROOT
HETATM    1  N2  UNL     1      95.035  20.099  -1.062  1.00  0.00    -0.373 N 
ATOM      2  H2  UNL     1      95.990  20.284  -0.755  1.00  0.00     0.161 HD
HETATM    3  C6  UNL     1      94.834  19.236  -1.989  1.00  0.00     0.117 C 
HETATM    4  C7  UNL     1      93.634  18.711  -2.682  1.00  0.00     0.122 C 
HETATM    5  C8  UNL     1      94.629  17.625  -3.034  1.00  0.00     0.076 C 
HETATM    6  C9  UNL     1      94.477  16.364  -2.196  1.00  0.00     0.039 C 
HETATM    7  C10 UNL     1      93.997  15.288  -3.142  1.00  0.00     0.003 C 
HETATM    8  C11 UNL     1      93.585  16.025  -4.399  1.00  0.00     0.003 C 
HETATM    9  C12 UNL     1      94.602  17.144  -4.451  1.00  0.00     0.039 C 
HETATM   10  O1  UNL     1      95.711  18.445  -2.712  1.00  0.00    -0.328 OA
ENDROOT
BRANCH   1  11
HETATM   11  C5  UNL     1      93.932  20.825  -0.432  1.00  0.00     0.149 C 
BRANCH  11  12
HETATM   12  C4  UNL     1      93.863  22.171  -1.063  1.00  0.00     0.252 C 
BRANCH  12  13
HETATM   13  N1  UNL     1      92.551  22.744  -1.107  1.00  0.00    -0.071 N 
ATOM     14  H12 UNL     1      92.533  23.538  -1.748  1.00  0.00     0.277 HD
ATOM     15  H11 UNL     1      92.344  23.221  -0.230  1.00  0.00     0.277 HD
BRANCH  13  16
HETATM   16  C3  UNL     1      91.510  21.823  -1.428  1.00  0.00     0.259 C 
BRANCH  16  17
HETATM   17  C2  UNL     1      90.198  22.534  -1.213  1.00  0.00    -0.010 C 
HETATM   18  C1  UNL     1      89.377  22.187  -0.240  1.00  0.00     0.008 C 
ENDBRANCH  16  17
ENDBRANCH  13  16
ENDBRANCH  12  13
ENDBRANCH  11  12
ENDBRANCH   1  11
TORSDOF 5
ENDMDL
MODEL 3
REMARK VINA RESULT: -5.556589673      4.297      6.457
REMARK  5 active torsions:
REMARK  status: ('A' for Active; 'I' for Inactive)
REMARK    1  A    between atoms: C2_2  and  C3_3 
REMARK    2  A    between atoms: C3_3  and  N1_4 
REMARK    3  A    between atoms: N1_4  and  C4_7 
REMARK    4  A    between atoms: C4_7  and  C5_8 
REMARK    5  A    between atoms: C5_8  and  N2_9 
ROOT
HETATM    1  N2  UNL     1      93.762  15.155  -1.905  1.00  0.00    -0.373 N 
ATOM      2  H2  UNL     1      93.026  15.636  -2.423  1.00  0.00     0.161 HD
HETATM    3  C6  UNL     1      93.995  13.920  -2.156  1.00  0.00     0.117 C 
HETATM    4  C7  UNL     1      94.947  12.912  -1.633  1.00  0.00     0.122 C 
HETATM    5  C8  UNL     1      94.548  12.239  -2.929  1.00  0.00     0.076 C 
HETATM    6  C9  UNL     1      95.584  12.382  -4.034  1.00  0.00     0.039 C 
HETATM    7  C10 UNL     1      96.135  10.996  -4.273  1.00  0.00     0.003 C 
HETATM    8  C11 UNL     1      95.645  10.170  -3.102  1.00  0.00     0.003 C 
HETATM    9  C12 UNL     1      94.278  10.769  -2.850  1.00  0.00     0.039 C 
HETATM   10  O1  UNL     1      93.411  13.039  -3.051  1.00  0.00    -0.328 OA
ENDROOT
BRANCH   1  11
HETATM   11  C5  UNL     1      94.522  15.894  -0.897  1.00  0.00     0.149 C 
BRANCH  11  12
HETATM   12  C4  UNL     1      95.143  17.066  -1.574  1.00  0.00     0.252 C 
BRANCH  12  13
HETATM   13  N1  UNL     1      94.427  17.545  -2.718  1.00  0.00    -0.071 N 
ATOM     14  H12 UNL     1      93.747  16.850  -3.027  1.00  0.00     0.277 HD
ATOM     15  H11 UNL     1      95.038  17.568  -3.534  1.00  0.00     0.277 HD
BRANCH  13  16
HETATM   16  C3  UNL     1      93.796  18.811  -2.536  1.00  0.00     0.259 C 
BRANCH  16  17
HETATM   17  C2  UNL     1      94.695  19.640  -1.654  1.00  0.00    -0.010 C 
HETATM   18  C1  UNL     1      94.274  20.760  -1.097  1.00  0.00     0.008 C 
ENDBRANCH  16  17
ENDBRANCH  13  16
ENDBRANCH  12  13
ENDBRANCH  11  12
ENDBRANCH   1  11
TORSDOF 5
ENDMDL
MODEL 4
REMARK VINA RESULT: -5.505520402      1.917      2.880
REMARK  5 active torsions:
REMARK  status: ('A' for Active; 'I' for Inactive)
REMARK    1  A    between atoms: C2_2  and  C3_3 
REMARK    2  A    between atoms: C3_3  and  N1_4 
REMARK    3  A    between atoms: N1_4  and  C4_7 
REMARK    4  A    between atoms: C4_7  and  C5_8 
REMARK    5  A    between atoms: C5_8  and  N2_9 
ROOT
HETATM    1  N2  UNL     1      93.613  19.709  -2.252  1.00  0.00    -0.373 N 
ATOM      2  H2  UNL     1      93.004  20.330  -2.784  1.00  0.00     0.161 HD
HETATM    3  C6  UNL     1      93.619  18.457  -2.526  1.00  0.00     0.117 C 
HETATM    4  C7  UNL     1      94.340  17.277  -1.994  1.00  0.00     0.122 C 
HETATM    5  C8  UNL     1      93.876  16.716  -3.322  1.00  0.00     0.076 C 
HETATM    6  C9  UNL     1      94.966  16.680  -4.383  1.00  0.00     0.039 C 
HETATM    7  C10 UNL     1      95.254  15.220  -4.638  1.00  0.00     0.003 C 
HETATM    8  C11 UNL     1      94.568  14.480  -3.508  1.00  0.00     0.003 C 
HETATM    9  C12 UNL     1      93.330  15.323  -3.292  1.00  0.00     0.039 C 
HETATM   10  O1  UNL     1      92.917  17.719  -3.465  1.00  0.00    -0.328 OA
ENDROOT
BRANCH   1  11
HETATM   11  C5  UNL     1      94.456  20.271  -1.197  1.00  0.00     0.149 C 
BRANCH  11  12
HETATM   12  C4  UNL     1      93.941  21.633  -0.889  1.00  0.00     0.252 C 
BRANCH  12  13
HETATM   13  N1  UNL     1      92.547  21.821  -1.160  1.00  0.00    -0.071 N 
ATOM     14  H12 UNL     1      91.982  21.385  -0.430  1.00  0.00     0.277 HD
ATOM     15  H11 UNL     1      92.262  21.258  -1.961  1.00  0.00     0.277 HD
BRANCH  13  16
HETATM   16  C3  UNL     1      92.155  23.180  -1.345  1.00  0.00     0.259 C 
BRANCH  16  17
HETATM   17  C2  UNL     1      90.674  23.262  -1.080  1.00  0.00    -0.010 C 
HETATM   18  C1  UNL     1      89.976  22.199  -0.728  1.00  0.00     0.008 C 
ENDBRANCH  16  17
ENDBRANCH  13  16
ENDBRANCH  12  13
ENDBRANCH  11  12
ENDBRANCH   1  11
TORSDOF 5
ENDMDL
MODEL 5
REMARK VINA RESULT: -5.441109448      3.657      5.563
REMARK  5 active torsions:
REMARK  status: ('A' for Active; 'I' for Inactive)
REMARK    1  A    between atoms: C2_2  and  C3_3 
REMARK    2  A    between atoms: C3_3  and  N1_4 
REMARK    3  A    between atoms: N1_4  and  C4_7 
REMARK    4  A    between atoms: C4_7  and  C5_8 
REMARK    5  A    between atoms: C5_8  and  N2_9 
ROOT
HETATM    1  N2  UNL     1      92.914  16.162  -4.412  1.00  0.00    -0.373 N 
ATOM      2  H2  UNL     1      92.286  15.951  -5.188  1.00  0.00     0.161 HD
HETATM    3  C6  UNL     1      93.102  15.276  -3.505  1.00  0.00     0.117 C 
HETATM    4  C7  UNL     1      93.910  15.209  -2.265  1.00  0.00     0.122 C 
HETATM    5  C8  UNL     1      93.651  13.732  -2.481  1.00  0.00     0.076 C 
HETATM    6  C9  UNL     1      94.834  12.987  -3.079  1.00  0.00     0.039 C 
HETATM    7  C10 UNL     1      95.326  12.049  -2.001  1.00  0.00     0.003 C 
HETATM    8  C11 UNL     1      94.631  12.505  -0.735  1.00  0.00     0.003 C 
HETATM    9  C12 UNL     1      93.283  12.945  -1.262  1.00  0.00     0.039 C 
HETATM   10  O1  UNL     1      92.592  13.997  -3.351  1.00  0.00    -0.328 OA
ENDROOT
BRANCH   1  11
HETATM   11  C5  UNL     1      93.574  17.466  -4.364  1.00  0.00     0.149 C 
BRANCH  11  12
HETATM   12  C4  UNL     1      92.591  18.447  -3.827  1.00  0.00     0.252 C 
BRANCH  12  13
HETATM   13  N1  UNL     1      93.062  19.217  -2.715  1.00  0.00    -0.071 N 
ATOM     14  H12 UNL     1      92.405  19.155  -1.937  1.00  0.00     0.277 HD
ATOM     15  H11 UNL     1      92.995  20.214  -2.921  1.00  0.00     0.277 HD
BRANCH  13  16
HETATM   16  C3  UNL     1      94.380  18.888  -2.280  1.00  0.00     0.259 C 
BRANCH  16  17
HETATM   17  C2  UNL     1      94.719  19.809  -1.135  1.00  0.00    -0.010 C 
HETATM   18  C1  UNL     1      94.236  21.035  -1.070  1.00  0.00     0.008 C 
ENDBRANCH  16  17
ENDBRANCH  13  16
ENDBRANCH  12  13
ENDBRANCH  11  12
ENDBRANCH   1  11
TORSDOF 5
ENDMDL
