MODEL 1
REMARK VINA RESULT: -8.756808706      0.000      0.000
REMARK  8 active torsions:
REMARK  status: ('A' for Active; 'I' for Inactive)
REMARK    1  A    between atoms: C2_2  and  C4_4 
REMARK    2  A    between atoms: C4_4  and  C5_5 
REMARK    3  A    between atoms: C5_5  and  N1_6 
REMARK    4  A    between atoms: C7_8  and  C8_9 
REMARK    5  A    between atoms: C21_23  and  N2_24 
REMARK       I    between atoms: N2_24  and  C22_26 
REMARK    6  A    between atoms: C22_26  and  C23_28 
REMARK    7  A    between atoms: C23_28  and  C24_29 
REMARK    8  A    between atoms: C24_29  and  C25_30 
ROOT
HETATM    1  C8  UNL     1      38.877   1.725  15.048  1.00  0.00     0.028 C 
HETATM    2  C9  UNL     1      39.884   2.813  14.628  1.00  0.00     0.027 C 
HETATM    3  C10 UNL     1      39.495   4.184  14.924  1.00  0.00     0.021 C 
HETATM    4  C11 UNL     1      40.753   4.950  15.360  1.00  0.00     0.024 C 
HETATM    5  C12 UNL     1      38.855   4.918  13.808  1.00  0.00     0.135 C 
HETATM    6  O1  UNL     1      39.421   5.487  12.907  1.00  0.00    -0.297 OA
HETATM    7  C13 UNL     1      37.384   4.853  13.959  1.00  0.00     0.079 C 
HETATM    8  C14 UNL     1      37.141   4.410  15.407  1.00  0.00     0.013 C 
HETATM    9  C15 UNL     1      38.485   4.224  16.008  1.00  0.00     0.006 C 
HETATM   10  C16 UNL     1      38.616   3.138  17.032  1.00  0.00    -0.004 C 
HETATM   11  C17 UNL     1      37.454   3.394  17.945  1.00  0.00     0.006 C 
HETATM   12  C18 UNL     1      37.203   2.369  18.959  1.00  0.00     0.006 C 
HETATM   13  C19 UNL     1      37.733   1.013  18.650  1.00  0.00    -0.004 C 
HETATM   14  C20 UNL     1      36.855   0.030  19.355  1.00  0.00     0.030 C 
HETATM   15  C21 UNL     1      35.600  -0.324  18.611  1.00  0.00     0.084 C 
HETATM   16  C26 UNL     1      35.822  -0.561  17.143  1.00  0.00     0.026 C 
HETATM   17  C27 UNL     1      36.566   0.583  16.497  1.00  0.00     0.012 C 
HETATM   18  C28 UNL     1      37.888   0.729  17.157  1.00  0.00    -0.036 C 
HETATM   19  C29 UNL     1      38.518  -0.678  17.166  1.00  0.00     0.016 C 
HETATM   20  C30 UNL     1      38.811   1.745  16.536  1.00  0.00     0.007 C 
ENDROOT
BRANCH   1  21
HETATM   21  C7  UNL     1      39.527   0.531  14.433  1.00  0.00    -0.020 A 
HETATM   22  C6  UNL     1      38.920  -0.527  13.786  1.00  0.00     0.119 A 
HETATM   23  N1  UNL     1      39.852  -1.373  13.367  1.00  0.00    -0.303 N 
HETATM   24  N4  UNL     1      41.026  -0.905  13.716  1.00  0.00    -0.310 N 
HETATM   25  C31 UNL     1      40.868   0.245  14.363  1.00  0.00     0.116 A 
ATOM     26  H4  UNL     1      41.922  -1.354  13.521  1.00  0.00     0.186 HD
BRANCH  23  27
HETATM   27  C5  UNL     1      39.576  -2.626  12.631  1.00  0.00     0.148 C 
BRANCH  27  28
HETATM   28  C4  UNL     1      38.702  -3.499  13.510  1.00  0.00     0.025 C 
BRANCH  28  29
HETATM   29  C2  UNL     1      39.511  -4.680  13.996  1.00  0.00    -0.021 C 
HETATM   30  C1  UNL     1      38.566  -5.833  14.259  1.00  0.00     0.009 C 
HETATM   31  C3  UNL     1      40.245  -4.366  15.279  1.00  0.00     0.009 C 
ENDBRANCH  28  29
ENDBRANCH  27  28
ENDBRANCH  23  27
ENDBRANCH   1  21
BRANCH  15  32
HETATM   32  N2  UNL     1      34.974  -1.444  19.219  1.00  0.00    -0.356 N 
HETATM   33  C22 UNL     1      33.805  -2.003  18.653  1.00  0.00     0.218 C 
HETATM   34  O2  UNL     1      33.301  -1.519  17.605  1.00  0.00    -0.274 OA
ATOM     35  H2  UNL     1      35.369  -1.847  20.069  1.00  0.00     0.162 HD
BRANCH  33  36
HETATM   36  C23 UNL     1      33.134  -3.167  19.264  1.00  0.00     0.111 C 
BRANCH  36  37
HETATM   37  C24 UNL     1      33.950  -3.735  20.415  1.00  0.00     0.109 C 
BRANCH  37  38
HETATM   38  C25 UNL     1      34.526  -5.050  20.038  1.00  0.00     0.231 C 
HETATM   39  N3  UNL     1      35.546  -5.600  20.858  1.00  0.00    -0.062 NA
HETATM   40  O3  UNL     1      34.166  -5.705  19.037  1.00  0.00    -0.277 OA
ENDBRANCH  37  38
ENDBRANCH  36  37
ENDBRANCH  33  36
ENDBRANCH  15  32
TORSDOF 8
ENDMDL
MODEL 2
REMARK VINA RESULT: -8.720466051      1.051      1.104
REMARK  8 active torsions:
REMARK  status: ('A' for Active; 'I' for Inactive)
REMARK    1  A    between atoms: C2_2  and  C4_4 
REMARK    2  A    between atoms: C4_4  and  C5_5 
REMARK    3  A    between atoms: C5_5  and  N1_6 
REMARK    4  A    between atoms: C7_8  and  C8_9 
REMARK    5  A    between atoms: C21_23  and  N2_24 
REMARK       I    between atoms: N2_24  and  C22_26 
REMARK    6  A    between atoms: C22_26  and  C23_28 
REMARK    7  A    between atoms: C23_28  and  C24_29 
REMARK    8  A    between atoms: C24_29  and  C25_30 
ROOT
HETATM    1  C8  UNL     1      38.795   1.627  15.012  1.00  0.00     0.028 C 
HETATM    2  C9  UNL     1      39.690   2.717  14.390  1.00  0.00     0.027 C 
HETATM    3  C10 UNL     1      39.249   4.090  14.593  1.00  0.00     0.021 C 
HETATM    4  C11 UNL     1      40.496   4.958  14.824  1.00  0.00     0.024 C 
HETATM    5  C12 UNL     1      38.462   4.675  13.482  1.00  0.00     0.135 C 
HETATM    6  O1  UNL     1      38.904   5.177  12.478  1.00  0.00    -0.297 OA
HETATM    7  C13 UNL     1      37.019   4.552  13.788  1.00  0.00     0.079 C 
HETATM    8  C14 UNL     1      36.944   4.245  15.288  1.00  0.00     0.013 C 
HETATM    9  C15 UNL     1      38.348   4.189  15.765  1.00  0.00     0.006 C 
HETATM   10  C16 UNL     1      38.641   3.219  16.869  1.00  0.00    -0.004 C 
HETATM   11  C17 UNL     1      37.559   3.507  17.867  1.00  0.00     0.006 C 
HETATM   12  C18 UNL     1      37.468   2.578  18.994  1.00  0.00     0.006 C 
HETATM   13  C19 UNL     1      38.047   1.226  18.764  1.00  0.00    -0.004 C 
HETATM   14  C20 UNL     1      37.301   0.277  19.644  1.00  0.00     0.030 C 
HETATM   15  C21 UNL     1      36.004  -0.214  19.069  1.00  0.00     0.084 C 
HETATM   16  C26 UNL     1      36.098  -0.586  17.615  1.00  0.00     0.026 C 
HETATM   17  C27 UNL     1      36.707   0.524  16.791  1.00  0.00     0.012 C 
HETATM   18  C28 UNL     1      38.074   0.801  17.297  1.00  0.00    -0.036 C 
HETATM   19  C29 UNL     1      38.785  -0.564  17.375  1.00  0.00     0.016 C 
HETATM   20  C30 UNL     1      38.870   1.794  16.491  1.00  0.00     0.007 C 
ENDROOT
BRANCH   1  21
HETATM   21  C7  UNL     1      39.453   0.412  14.451  1.00  0.00    -0.020 A 
HETATM   22  C6  UNL     1      38.858  -0.655  13.807  1.00  0.00     0.119 A 
HETATM   23  N1  UNL     1      39.795  -1.521  13.445  1.00  0.00    -0.303 N 
HETATM   24  N4  UNL     1      40.961  -1.057  13.825  1.00  0.00    -0.310 N 
HETATM   25  C31 UNL     1      40.792   0.110  14.438  1.00  0.00     0.116 A 
ATOM     26  H4  UNL     1      41.857  -1.520  13.675  1.00  0.00     0.186 HD
BRANCH  23  27
HETATM   27  C5  UNL     1      39.531  -2.789  12.729  1.00  0.00     0.148 C 
BRANCH  27  28
HETATM   28  C4  UNL     1      38.632  -3.639  13.605  1.00  0.00     0.025 C 
BRANCH  28  29
HETATM   29  C2  UNL     1      39.381  -4.883  14.024  1.00  0.00    -0.021 C 
HETATM   30  C1  UNL     1      38.374  -5.976  14.310  1.00  0.00     0.009 C 
HETATM   31  C3  UNL     1      40.197  -4.650  15.276  1.00  0.00     0.009 C 
ENDBRANCH  28  29
ENDBRANCH  27  28
ENDBRANCH  23  27
ENDBRANCH   1  21
BRANCH  15  32
HETATM   32  N2  UNL     1      35.508  -1.296  19.841  1.00  0.00    -0.356 N 
HETATM   33  C22 UNL     1      34.429  -2.078  19.365  1.00  0.00     0.218 C 
HETATM   34  O2  UNL     1      33.893  -1.828  18.253  1.00  0.00    -0.274 OA
ATOM     35  H2  UNL     1      35.930  -1.511  20.745  1.00  0.00     0.162 HD
BRANCH  33  36
HETATM   36  C23 UNL     1      33.894  -3.209  20.147  1.00  0.00     0.111 C 
BRANCH  36  37
HETATM   37  C24 UNL     1      33.691  -2.828  21.605  1.00  0.00     0.109 C 
BRANCH  37  38
HETATM   38  C25 UNL     1      34.613  -3.602  22.473  1.00  0.00     0.231 C 
HETATM   39  N3  UNL     1      35.917  -3.886  21.989  1.00  0.00    -0.062 NA
HETATM   40  O3  UNL     1      34.309  -4.020  23.610  1.00  0.00    -0.277 OA
ENDBRANCH  37  38
ENDBRANCH  36  37
ENDBRANCH  33  36
ENDBRANCH  15  32
TORSDOF 8
ENDMDL
MODEL 3
REMARK VINA RESULT: -8.539998597      0.996      1.327
REMARK  8 active torsions:
REMARK  status: ('A' for Active; 'I' for Inactive)
REMARK    1  A    between atoms: C2_2  and  C4_4 
REMARK    2  A    between atoms: C4_4  and  C5_5 
REMARK    3  A    between atoms: C5_5  and  N1_6 
REMARK    4  A    between atoms: C7_8  and  C8_9 
REMARK    5  A    between atoms: C21_23  and  N2_24 
REMARK       I    between atoms: N2_24  and  C22_26 
REMARK    6  A    between atoms: C22_26  and  C23_28 
REMARK    7  A    between atoms: C23_28  and  C24_29 
REMARK    8  A    between atoms: C24_29  and  C25_30 
ROOT
HETATM    1  C8  UNL     1      38.643   2.018  15.285  1.00  0.00     0.028 C 
HETATM    2  C9  UNL     1      39.662   3.133  14.977  1.00  0.00     0.027 C 
HETATM    3  C10 UNL     1      39.346   4.447  15.518  1.00  0.00     0.021 C 
HETATM    4  C11 UNL     1      40.659   5.096  15.982  1.00  0.00     0.024 C 
HETATM    5  C12 UNL     1      38.664   5.371  14.583  1.00  0.00     0.135 C 
HETATM    6  O1  UNL     1      39.191   6.064  13.748  1.00  0.00    -0.297 OA
HETATM    7  C13 UNL     1      37.204   5.323  14.825  1.00  0.00     0.079 C 
HETATM    8  C14 UNL     1      37.039   4.655  16.195  1.00  0.00     0.013 C 
HETATM    9  C15 UNL     1      38.411   4.337  16.662  1.00  0.00     0.006 C 
HETATM   10  C16 UNL     1      38.566   3.094  17.486  1.00  0.00    -0.004 C 
HETATM   11  C17 UNL     1      37.476   3.228  18.507  1.00  0.00     0.006 C 
HETATM   12  C18 UNL     1      37.252   2.058  19.357  1.00  0.00     0.006 C 
HETATM   13  C19 UNL     1      37.709   0.757  18.797  1.00  0.00    -0.004 C 
HETATM   14  C20 UNL     1      36.841  -0.303  19.393  1.00  0.00     0.030 C 
HETATM   15  C21 UNL     1      35.528  -0.497  18.691  1.00  0.00     0.084 C 
HETATM   16  C26 UNL     1      35.645  -0.496  17.193  1.00  0.00     0.026 C 
HETATM   17  C27 UNL     1      36.389   0.719  16.690  1.00  0.00     0.012 C 
HETATM   18  C28 UNL     1      37.755   0.717  17.270  1.00  0.00    -0.036 C 
HETATM   19  C29 UNL     1      38.330  -0.688  17.007  1.00  0.00     0.016 C 
HETATM   20  C30 UNL     1      38.674   1.796  16.758  1.00  0.00     0.007 C 
ENDROOT
BRANCH   1  21
HETATM   21  C7  UNL     1      39.205   0.925  14.441  1.00  0.00    -0.020 A 
HETATM   22  C6  UNL     1      40.468   0.368  14.502  1.00  0.00     0.119 A 
HETATM   23  N1  UNL     1      40.564  -0.592  13.593  1.00  0.00    -0.303 N 
HETATM   24  N4  UNL     1      39.422  -0.677  12.954  1.00  0.00    -0.310 N 
HETATM   25  C31 UNL     1      38.577   0.226  13.440  1.00  0.00     0.116 A 
ATOM     26  H4  UNL     1      39.215  -1.333  12.200  1.00  0.00     0.186 HD
BRANCH  23  27
HETATM   27  C5  UNL     1      41.775  -1.413  13.366  1.00  0.00     0.148 C 
BRANCH  27  28
HETATM   28  C4  UNL     1      42.197  -1.997  14.699  1.00  0.00     0.025 C 
BRANCH  28  29
HETATM   29  C2  UNL     1      41.854  -3.469  14.726  1.00  0.00    -0.021 C 
HETATM   30  C1  UNL     1      41.743  -3.962  13.299  1.00  0.00     0.009 C 
HETATM   31  C3  UNL     1      40.536  -3.724  15.421  1.00  0.00     0.009 C 
ENDBRANCH  28  29
ENDBRANCH  27  28
ENDBRANCH  23  27
ENDBRANCH   1  21
BRANCH  15  32
HETATM   32  N2  UNL     1      34.900  -1.683  19.153  1.00  0.00    -0.356 N 
HETATM   33  C22 UNL     1      33.672  -2.105  18.594  1.00  0.00     0.218 C 
HETATM   34  O2  UNL     1      33.116  -1.438  17.681  1.00  0.00    -0.274 OA
ATOM     35  H2  UNL     1      35.337  -2.234  19.893  1.00  0.00     0.162 HD
BRANCH  33  36
HETATM   36  C23 UNL     1      32.998  -3.335  19.055  1.00  0.00     0.111 C 
BRANCH  36  37
HETATM   37  C24 UNL     1      33.661  -3.896  20.302  1.00  0.00     0.109 C 
BRANCH  37  38
HETATM   38  C25 UNL     1      34.413  -5.133  19.973  1.00  0.00     0.231 C 
HETATM   39  N3  UNL     1      35.469  -5.530  20.834  1.00  0.00    -0.062 NA
HETATM   40  O3  UNL     1      34.171  -5.850  18.979  1.00  0.00    -0.277 OA
ENDBRANCH  37  38
ENDBRANCH  36  37
ENDBRANCH  33  36
ENDBRANCH  15  32
TORSDOF 8
ENDMDL
MODEL 4
REMARK VINA RESULT: -8.504146882      1.421      1.716
REMARK  8 active torsions:
REMARK  status: ('A' for Active; 'I' for Inactive)
REMARK    1  A    between atoms: C2_2  and  C4_4 
REMARK    2  A    between atoms: C4_4  and  C5_5 
REMARK    3  A    between atoms: C5_5  and  N1_6 
REMARK    4  A    between atoms: C7_8  and  C8_9 
REMARK    5  A    between atoms: C21_23  and  N2_24 
REMARK       I    between atoms: N2_24  and  C22_26 
REMARK    6  A    between atoms: C22_26  and  C23_28 
REMARK    7  A    between atoms: C23_28  and  C24_29 
REMARK    8  A    between atoms: C24_29  and  C25_30 
ROOT
HETATM    1  C8  UNL     1      38.617   1.988  15.370  1.00  0.00     0.028 C 
HETATM    2  C9  UNL     1      39.612   3.115  15.031  1.00  0.00     0.027 C 
HETATM    3  C10 UNL     1      39.287   4.429  15.567  1.00  0.00     0.021 C 
HETATM    4  C11 UNL     1      40.599   5.101  15.998  1.00  0.00     0.024 C 
HETATM    5  C12 UNL     1      38.571   5.334  14.640  1.00  0.00     0.135 C 
HETATM    6  O1  UNL     1      39.070   6.028  13.788  1.00  0.00    -0.297 OA
HETATM    7  C13 UNL     1      37.118   5.266  14.913  1.00  0.00     0.079 C 
HETATM    8  C14 UNL     1      36.992   4.608  16.292  1.00  0.00     0.013 C 
HETATM    9  C15 UNL     1      38.378   4.314  16.733  1.00  0.00     0.006 C 
HETATM   10  C16 UNL     1      38.570   3.081  17.563  1.00  0.00    -0.004 C 
HETATM   11  C17 UNL     1      37.500   3.208  18.607  1.00  0.00     0.006 C 
HETATM   12  C18 UNL     1      37.312   2.042  19.471  1.00  0.00     0.006 C 
HETATM   13  C19 UNL     1      37.776   0.744  18.912  1.00  0.00    -0.004 C 
HETATM   14  C20 UNL     1      36.938  -0.325  19.535  1.00  0.00     0.030 C 
HETATM   15  C21 UNL     1      35.613  -0.544  18.864  1.00  0.00     0.084 C 
HETATM   16  C26 UNL     1      35.698  -0.554  17.363  1.00  0.00     0.026 C 
HETATM   17  C27 UNL     1      36.413   0.667  16.834  1.00  0.00     0.012 C 
HETATM   18  C28 UNL     1      37.791   0.691  17.385  1.00  0.00    -0.036 C 
HETATM   19  C29 UNL     1      38.381  -0.708  17.121  1.00  0.00     0.016 C 
HETATM   20  C30 UNL     1      38.682   1.779  16.844  1.00  0.00     0.007 C 
ENDROOT
BRANCH   1  21
HETATM   21  C7  UNL     1      39.177   0.895  14.524  1.00  0.00    -0.020 A 
HETATM   22  C6  UNL     1      40.446   0.352  14.569  1.00  0.00     0.119 A 
HETATM   23  N1  UNL     1      40.539  -0.612  13.663  1.00  0.00    -0.303 N 
HETATM   24  N4  UNL     1      39.388  -0.712  13.042  1.00  0.00    -0.310 N 
HETATM   25  C31 UNL     1      38.541   0.185  13.536  1.00  0.00     0.116 A 
ATOM     26  H4  UNL     1      39.177  -1.374  12.295  1.00  0.00     0.186 HD
BRANCH  23  27
HETATM   27  C5  UNL     1      41.754  -1.421  13.423  1.00  0.00     0.148 C 
BRANCH  27  28
HETATM   28  C4  UNL     1      42.178  -2.028  14.745  1.00  0.00     0.025 C 
BRANCH  28  29
HETATM   29  C2  UNL     1      41.864  -3.507  14.735  1.00  0.00    -0.021 C 
HETATM   30  C1  UNL     1      41.781  -3.970  13.296  1.00  0.00     0.009 C 
HETATM   31  C3  UNL     1      40.543  -3.804  15.407  1.00  0.00     0.009 C 
ENDBRANCH  28  29
ENDBRANCH  27  28
ENDBRANCH  23  27
ENDBRANCH   1  21
BRANCH  15  32
HETATM   32  N2  UNL     1      35.014  -1.736  19.349  1.00  0.00    -0.356 N 
HETATM   33  C22 UNL     1      33.809  -2.211  18.781  1.00  0.00     0.218 C 
HETATM   34  O2  UNL     1      33.249  -1.587  17.840  1.00  0.00    -0.274 OA
ATOM     35  H2  UNL     1      35.453  -2.252  20.111  1.00  0.00     0.162 HD
BRANCH  33  36
HETATM   36  C23 UNL     1      33.164  -3.447  19.266  1.00  0.00     0.111 C 
BRANCH  36  37
HETATM   37  C24 UNL     1      32.132  -3.149  20.342  1.00  0.00     0.109 C 
BRANCH  37  38
HETATM   38  C25 UNL     1      32.703  -3.405  21.688  1.00  0.00     0.231 C 
HETATM   39  N3  UNL     1      33.591  -2.443  22.238  1.00  0.00    -0.062 NA
HETATM   40  O3  UNL     1      32.449  -4.420  22.369  1.00  0.00    -0.277 OA
ENDBRANCH  37  38
ENDBRANCH  36  37
ENDBRANCH  33  36
ENDBRANCH  15  32
TORSDOF 8
ENDMDL
MODEL 5
REMARK VINA RESULT: -8.341026997      2.983      6.143
REMARK  8 active torsions:
REMARK  status: ('A' for Active; 'I' for Inactive)
REMARK    1  A    between atoms: C2_2  and  C4_4 
REMARK    2  A    between atoms: C4_4  and  C5_5 
REMARK    3  A    between atoms: C5_5  and  N1_6 
REMARK    4  A    between atoms: C7_8  and  C8_9 
REMARK    5  A    between atoms: C21_23  and  N2_24 
REMARK       I    between atoms: N2_24  and  C22_26 
REMARK    6  A    between atoms: C22_26  and  C23_28 
REMARK    7  A    between atoms: C23_28  and  C24_29 
REMARK    8  A    between atoms: C24_29  and  C25_30 
ROOT
HETATM    1  C8  UNL     1      38.464   1.864  16.316  1.00  0.00     0.028 C 
HETATM    2  C9  UNL     1      39.008   2.406  14.979  1.00  0.00     0.027 C 
HETATM    3  C10 UNL     1      39.343   1.403  13.980  1.00  0.00     0.021 C 
HETATM    4  C11 UNL     1      38.939   1.952  12.603  1.00  0.00     0.024 C 
HETATM    5  C12 UNL     1      40.769   1.006  13.932  1.00  0.00     0.135 C 
HETATM    6  O1  UNL     1      41.656   1.586  13.356  1.00  0.00    -0.297 OA
HETATM    7  C13 UNL     1      40.958  -0.237  14.714  1.00  0.00     0.079 C 
HETATM    8  C14 UNL     1      39.551  -0.816  14.906  1.00  0.00     0.013 C 
HETATM    9  C15 UNL     1      38.624   0.133  14.242  1.00  0.00     0.006 C 
HETATM   10  C16 UNL     1      37.270   0.293  14.863  1.00  0.00    -0.004 C 
HETATM   11  C17 UNL     1      36.820  -1.124  15.061  1.00  0.00     0.006 C 
HETATM   12  C18 UNL     1      35.588  -1.300  15.831  1.00  0.00     0.006 C 
HETATM   13  C19 UNL     1      35.236  -0.183  16.748  1.00  0.00    -0.004 C 
HETATM   14  C20 UNL     1      34.446  -0.772  17.871  1.00  0.00     0.030 C 
HETATM   15  C21 UNL     1      35.279  -1.369  18.968  1.00  0.00     0.084 C 
HETATM   16  C26 UNL     1      36.455  -0.518  19.356  1.00  0.00     0.026 C 
HETATM   17  C27 UNL     1      37.285  -0.129  18.155  1.00  0.00     0.012 C 
HETATM   18  C28 UNL     1      36.434   0.642  17.215  1.00  0.00    -0.036 C 
HETATM   19  C29 UNL     1      35.754   1.740  18.057  1.00  0.00     0.016 C 
HETATM   20  C30 UNL     1      37.151   1.223  16.024  1.00  0.00     0.007 C 
ENDROOT
BRANCH   1  21
HETATM   21  C7  UNL     1      38.418   3.132  17.100  1.00  0.00    -0.020 A 
HETATM   22  C6  UNL     1      38.146   4.406  16.641  1.00  0.00     0.119 A 
HETATM   23  N1  UNL     1      38.184   5.253  17.660  1.00  0.00    -0.303 N 
HETATM   24  N4  UNL     1      38.467   4.582  18.750  1.00  0.00    -0.310 N 
HETATM   25  C31 UNL     1      38.616   3.296  18.449  1.00  0.00     0.116 A 
ATOM     26  H4  UNL     1      38.559   4.983  19.683  1.00  0.00     0.186 HD
BRANCH  23  27
HETATM   27  C5  UNL     1      37.941   6.709  17.548  1.00  0.00     0.148 C 
BRANCH  27  28
HETATM   28  C4  UNL     1      39.213   7.425  17.956  1.00  0.00     0.025 C 
BRANCH  28  29
HETATM   29  C2  UNL     1      38.921   8.320  19.138  1.00  0.00    -0.021 C 
HETATM   30  C1  UNL     1      39.559   7.713  20.369  1.00  0.00     0.009 C 
HETATM   31  C3  UNL     1      37.436   8.451  19.388  1.00  0.00     0.009 C 
ENDBRANCH  28  29
ENDBRANCH  27  28
ENDBRANCH  23  27
ENDBRANCH   1  21
BRANCH  15  32
HETATM   32  N2  UNL     1      34.464  -1.657  20.094  1.00  0.00    -0.356 N 
HETATM   33  C22 UNL     1      33.827  -2.914  20.212  1.00  0.00     0.218 C 
HETATM   34  O2  UNL     1      33.969  -3.795  19.323  1.00  0.00    -0.274 OA
ATOM     35  H2  UNL     1      34.338  -0.955  20.823  1.00  0.00     0.162 HD
BRANCH  33  36
HETATM   36  C23 UNL     1      32.976  -3.241  21.373  1.00  0.00     0.111 C 
BRANCH  36  37
HETATM   37  C24 UNL     1      33.447  -2.520  22.626  1.00  0.00     0.109 C 
BRANCH  37  38
HETATM   38  C25 UNL     1      33.932  -3.499  23.631  1.00  0.00     0.231 C 
HETATM   39  N3  UNL     1      35.106  -4.241  23.339  1.00  0.00    -0.062 NA
HETATM   40  O3  UNL     1      33.366  -3.710  24.724  1.00  0.00    -0.277 OA
ENDBRANCH  37  38
ENDBRANCH  36  37
ENDBRANCH  33  36
ENDBRANCH  15  32
TORSDOF 8
ENDMDL
