MODEL 1
REMARK VINA RESULT: -8.469702154      0.000      0.000
REMARK  9 active torsions:
REMARK  status: ('A' for Active; 'I' for Inactive)
REMARK    1  A    between atoms: C5_5  and  C6_6 
REMARK    2  A    between atoms: C6_6  and  O1_7 
REMARK    3  A    between atoms: C7_9  and  N1_10 
REMARK       I    between atoms: N1_10  and  C8_12 
REMARK    4  A    between atoms: C8_12  and  C9_14 
REMARK    5  A    between atoms: C9_14  and  C10_15 
REMARK    6  A    between atoms: C10_15  and  C11_16 
REMARK    7  A    between atoms: C11_16  and  C12_17 
REMARK    8  A    between atoms: C12_17  and  C13_18 
REMARK    9  A    between atoms: C13_18  and  N2_19 
ROOT
HETATM    1  C1  UNL     1      37.863   1.961  12.994  1.00  0.00     0.020 C 
HETATM    2  C2  UNL     1      38.526   1.722  14.331  1.00  0.00    -0.022 C 
HETATM    3  C3  UNL     1      38.106   2.810  15.255  1.00  0.00    -0.021 C 
HETATM    4  C4  UNL     1      36.926   3.033  15.778  1.00  0.00    -0.021 C 
HETATM    5  C5  UNL     1      35.666   2.317  15.641  1.00  0.00     0.054 C 
HETATM    6  C7  UNL     1      35.859   0.824  15.929  1.00  0.00     0.094 C 
HETATM    7  C18 UNL     1      36.688   0.138  14.930  1.00  0.00     0.032 C 
HETATM    8  C19 UNL     1      38.158   0.432  14.970  1.00  0.00     0.004 C 
HETATM    9  C20 UNL     1      38.869  -0.792  14.444  1.00  0.00    -0.005 C 
HETATM   10  C21 UNL     1      38.955  -1.773  15.593  1.00  0.00     0.006 C 
HETATM   11  C22 UNL     1      39.927  -2.892  15.381  1.00  0.00     0.006 C 
HETATM   12  C23 UNL     1      41.270  -2.476  14.883  1.00  0.00     0.001 C 
HETATM   13  C24 UNL     1      42.078  -3.685  14.565  1.00  0.00     0.083 C 
HETATM   14  C25 UNL     1      43.144  -3.485  13.577  1.00  0.00     0.127 C 
HETATM   15  O4  UNL     1      43.943  -4.405  13.419  1.00  0.00    -0.298 OA
HETATM   16  C26 UNL     1      43.347  -2.278  12.752  1.00  0.00     0.079 C 
HETATM   17  C27 UNL     1      42.469  -1.140  13.264  1.00  0.00     0.017 C 
HETATM   18  C28 UNL     1      41.074  -1.663  13.628  1.00  0.00    -0.036 C 
HETATM   19  C29 UNL     1      40.501  -2.503  12.490  1.00  0.00     0.016 C 
HETATM   20  C30 UNL     1      40.175  -0.492  13.810  1.00  0.00    -0.002 C 
HETATM   21  C31 UNL     1      40.804   0.658  14.559  1.00  0.00     0.007 C 
HETATM   22  C32 UNL     1      40.010   1.882  14.160  1.00  0.00     0.014 C 
ENDROOT
BRANCH   6  23
HETATM   23  N1  UNL     1      36.209   0.635  17.293  1.00  0.00    -0.356 N 
HETATM   24  C8  UNL     1      35.777  -0.415  18.128  1.00  0.00     0.217 C 
HETATM   25  O2  UNL     1      34.998  -1.245  17.553  1.00  0.00    -0.274 OA
ATOM     26  H1  UNL     1      36.833   1.326  17.709  1.00  0.00     0.162 HD
BRANCH  24  27
HETATM   27  C9  UNL     1      36.156  -0.586  19.529  1.00  0.00     0.103 C 
BRANCH  27  28
HETATM   28  C10 UNL     1      35.135  -1.225  20.413  1.00  0.00     0.009 C 
BRANCH  28  29
HETATM   29  C11 UNL     1      35.721  -2.365  21.170  1.00  0.00     0.002 C 
BRANCH  29  30
HETATM   30  C12 UNL     1      34.710  -3.120  22.012  1.00  0.00     0.030 C 
BRANCH  30  31
HETATM   31  C13 UNL     1      33.327  -2.529  21.907  1.00  0.00     0.272 C 
BRANCH  31  32
HETATM   32  N2  UNL     1      32.618  -2.571  23.151  1.00  0.00     0.092 N 
HETATM   33  C14 UNL     1      32.419  -1.256  23.722  1.00  0.00     0.298 C 
HETATM   34  C15 UNL     1      31.338  -1.352  24.802  1.00  0.00     0.198 C 
HETATM   35  O3  UNL     1      31.400  -2.607  25.420  1.00  0.00    -0.388 OA
HETATM   36  C16 UNL     1      32.707  -3.062  25.543  1.00  0.00     0.198 C 
HETATM   37  C17 UNL     1      33.183  -3.441  24.143  1.00  0.00     0.298 C 
ENDBRANCH  31  32
ENDBRANCH  30  31
ENDBRANCH  29  30
ENDBRANCH  28  29
ENDBRANCH  27  28
ENDBRANCH  24  27
ENDBRANCH   6  23
BRANCH   5  38
HETATM   38  C6  UNL     1      34.589   2.873  16.579  1.00  0.00     0.174 C 
BRANCH  38  39
HETATM   39  O1  UNL     1      33.720   3.678  15.877  1.00  0.00    -0.400 OA
ATOM     40  H1  UNL     1      32.958   3.179  15.608  1.00  0.00     0.209 HD
ENDBRANCH  38  39
ENDBRANCH   5  38
TORSDOF 9
ENDMDL
MODEL 2
REMARK VINA RESULT: -8.354021752      1.496      2.116
REMARK  9 active torsions:
REMARK  status: ('A' for Active; 'I' for Inactive)
REMARK    1  A    between atoms: C5_5  and  C6_6 
REMARK    2  A    between atoms: C6_6  and  O1_7 
REMARK    3  A    between atoms: C7_9  and  N1_10 
REMARK       I    between atoms: N1_10  and  C8_12 
REMARK    4  A    between atoms: C8_12  and  C9_14 
REMARK    5  A    between atoms: C9_14  and  C10_15 
REMARK    6  A    between atoms: C10_15  and  C11_16 
REMARK    7  A    between atoms: C11_16  and  C12_17 
REMARK    8  A    between atoms: C12_17  and  C13_18 
REMARK    9  A    between atoms: C13_18  and  N2_19 
ROOT
HETATM    1  C1  UNL     1      37.762   2.507  12.073  1.00  0.00     0.020 C 
HETATM    2  C2  UNL     1      38.369   2.523  13.457  1.00  0.00    -0.022 C 
HETATM    3  C3  UNL     1      38.094   3.852  14.066  1.00  0.00    -0.021 C 
HETATM    4  C4  UNL     1      36.951   4.352  14.463  1.00  0.00    -0.021 C 
HETATM    5  C5  UNL     1      35.605   3.798  14.447  1.00  0.00     0.054 C 
HETATM    6  C7  UNL     1      35.584   2.412  15.101  1.00  0.00     0.094 C 
HETATM    7  C18 UNL     1      36.322   1.395  14.340  1.00  0.00     0.032 C 
HETATM    8  C19 UNL     1      37.817   1.492  14.375  1.00  0.00     0.004 C 
HETATM    9  C20 UNL     1      38.357   0.093  14.197  1.00  0.00    -0.005 C 
HETATM   10  C21 UNL     1      38.291  -0.574  15.555  1.00  0.00     0.006 C 
HETATM   11  C22 UNL     1      39.100  -1.829  15.668  1.00  0.00     0.006 C 
HETATM   12  C23 UNL     1      40.494  -1.731  15.145  1.00  0.00     0.001 C 
HETATM   13  C24 UNL     1      41.129  -3.077  15.171  1.00  0.00     0.083 C 
HETATM   14  C25 UNL     1      42.224  -3.272  14.215  1.00  0.00     0.127 C 
HETATM   15  O4  UNL     1      42.889  -4.299  14.323  1.00  0.00    -0.298 OA
HETATM   16  C26 UNL     1      42.603  -2.346  13.130  1.00  0.00     0.079 C 
HETATM   17  C27 UNL     1      41.887  -1.011  13.306  1.00  0.00     0.017 C 
HETATM   18  C28 UNL     1      40.428  -1.237  13.722  1.00  0.00    -0.036 C 
HETATM   19  C29 UNL     1      39.758  -2.251  12.799  1.00  0.00     0.016 C 
HETATM   20  C30 UNL     1      39.699   0.050  13.570  1.00  0.00    -0.002 C 
HETATM   21  C31 UNL     1      40.474   1.257  14.044  1.00  0.00     0.007 C 
HETATM   22  C32 UNL     1      39.863   2.437  13.321  1.00  0.00     0.014 C 
ENDROOT
BRANCH   6  23
HETATM   23  N1  UNL     1      35.888   2.523  16.485  1.00  0.00    -0.356 N 
HETATM   24  C8  UNL     1      35.600   1.570  17.482  1.00  0.00     0.217 C 
HETATM   25  O2  UNL     1      35.008   0.529  17.046  1.00  0.00    -0.274 OA
ATOM     26  H1  UNL     1      36.360   3.375  16.786  1.00  0.00     0.162 HD
BRANCH  24  27
HETATM   27  C9  UNL     1      35.927   1.711  18.899  1.00  0.00     0.103 C 
BRANCH  27  28
HETATM   28  C10 UNL     1      37.249   1.162  19.326  1.00  0.00     0.009 C 
BRANCH  28  29
HETATM   29  C11 UNL     1      37.177  -0.312  19.527  1.00  0.00     0.002 C 
BRANCH  29  30
HETATM   30  C12 UNL     1      35.834  -0.790  20.046  1.00  0.00     0.030 C 
BRANCH  30  31
HETATM   31  C13 UNL     1      35.946  -2.086  20.808  1.00  0.00     0.272 C 
BRANCH  31  32
HETATM   32  N2  UNL     1      34.730  -2.432  21.482  1.00  0.00     0.092 N 
HETATM   33  C14 UNL     1      34.907  -3.516  22.424  1.00  0.00     0.298 C 
HETATM   34  C15 UNL     1      33.696  -3.549  23.361  1.00  0.00     0.198 C 
HETATM   35  O3  UNL     1      32.554  -3.127  22.670  1.00  0.00    -0.388 OA
HETATM   36  C16 UNL     1      32.562  -3.549  21.346  1.00  0.00     0.198 C 
HETATM   37  C17 UNL     1      33.621  -2.725  20.619  1.00  0.00     0.298 C 
ENDBRANCH  31  32
ENDBRANCH  30  31
ENDBRANCH  29  30
ENDBRANCH  28  29
ENDBRANCH  27  28
ENDBRANCH  24  27
ENDBRANCH   6  23
BRANCH   5  38
HETATM   38  C6  UNL     1      34.605   4.707  15.170  1.00  0.00     0.174 C 
BRANCH  38  39
HETATM   39  O1  UNL     1      33.599   3.951  15.732  1.00  0.00    -0.400 OA
ATOM     40  H1  UNL     1      33.282   4.368  16.524  1.00  0.00     0.209 HD
ENDBRANCH  38  39
ENDBRANCH   5  38
TORSDOF 9
ENDMDL
MODEL 3
REMARK VINA RESULT: -8.329176289      3.844      6.006
REMARK  9 active torsions:
REMARK  status: ('A' for Active; 'I' for Inactive)
REMARK    1  A    between atoms: C5_5  and  C6_6 
REMARK    2  A    between atoms: C6_6  and  O1_7 
REMARK    3  A    between atoms: C7_9  and  N1_10 
REMARK       I    between atoms: N1_10  and  C8_12 
REMARK    4  A    between atoms: C8_12  and  C9_14 
REMARK    5  A    between atoms: C9_14  and  C10_15 
REMARK    6  A    between atoms: C10_15  and  C11_16 
REMARK    7  A    between atoms: C11_16  and  C12_17 
REMARK    8  A    between atoms: C12_17  and  C13_18 
REMARK    9  A    between atoms: C13_18  and  N2_19 
ROOT
HETATM    1  C1  UNL     1      37.648   2.509  12.165  1.00  0.00     0.020 C 
HETATM    2  C2  UNL     1      38.259   2.544  13.547  1.00  0.00    -0.022 C 
HETATM    3  C3  UNL     1      37.971   3.876  14.145  1.00  0.00    -0.021 C 
HETATM    4  C4  UNL     1      36.822   4.366  14.542  1.00  0.00    -0.021 C 
HETATM    5  C5  UNL     1      35.483   3.796  14.535  1.00  0.00     0.054 C 
HETATM    6  C7  UNL     1      35.481   2.416  15.202  1.00  0.00     0.094 C 
HETATM    7  C18 UNL     1      36.228   1.401  14.447  1.00  0.00     0.032 C 
HETATM    8  C19 UNL     1      37.722   1.516  14.476  1.00  0.00     0.004 C 
HETATM    9  C20 UNL     1      38.277   0.122  14.309  1.00  0.00    -0.005 C 
HETATM   10  C21 UNL     1      38.224  -0.534  15.673  1.00  0.00     0.006 C 
HETATM   11  C22 UNL     1      39.047  -1.778  15.795  1.00  0.00     0.006 C 
HETATM   12  C23 UNL     1      40.438  -1.669  15.267  1.00  0.00     0.001 C 
HETATM   13  C24 UNL     1      41.089  -3.007  15.303  1.00  0.00     0.083 C 
HETATM   14  C25 UNL     1      42.184  -3.198  14.345  1.00  0.00     0.127 C 
HETATM   15  O4  UNL     1      42.861  -4.216  14.461  1.00  0.00    -0.298 OA
HETATM   16  C26 UNL     1      42.549  -2.277  13.250  1.00  0.00     0.079 C 
HETATM   17  C27 UNL     1      41.818  -0.949  13.416  1.00  0.00     0.017 C 
HETATM   18  C28 UNL     1      40.363  -1.189  13.839  1.00  0.00    -0.036 C 
HETATM   19  C29 UNL     1      39.701  -2.218  12.928  1.00  0.00     0.016 C 
HETATM   20  C30 UNL     1      39.619   0.089  13.678  1.00  0.00    -0.002 C 
HETATM   21  C31 UNL     1      40.380   1.308  14.138  1.00  0.00     0.007 C 
HETATM   22  C32 UNL     1      39.753   2.475  13.407  1.00  0.00     0.014 C 
ENDROOT
BRANCH   6  23
HETATM   23  N1  UNL     1      35.787   2.543  16.583  1.00  0.00    -0.356 N 
HETATM   24  C8  UNL     1      35.618   1.553  17.570  1.00  0.00     0.217 C 
HETATM   25  O2  UNL     1      35.138   0.457  17.127  1.00  0.00    -0.274 OA
ATOM     26  H1  UNL     1      36.167   3.438  16.890  1.00  0.00     0.162 HD
BRANCH  24  27
HETATM   27  C9  UNL     1      35.945   1.712  18.986  1.00  0.00     0.103 C 
BRANCH  27  28
HETATM   28  C10 UNL     1      37.192   2.477  19.291  1.00  0.00     0.009 C 
BRANCH  28  29
HETATM   29  C11 UNL     1      38.307   2.061  18.398  1.00  0.00     0.002 C 
BRANCH  29  30
HETATM   30  C12 UNL     1      38.879   3.195  17.568  1.00  0.00     0.030 C 
BRANCH  30  31
HETATM   31  C13 UNL     1      38.553   4.547  18.151  1.00  0.00     0.272 C 
BRANCH  31  32
HETATM   32  N2  UNL     1      39.726   5.274  18.536  1.00  0.00     0.092 N 
HETATM   33  C14 UNL     1      39.414   6.485  19.264  1.00  0.00     0.298 C 
HETATM   34  C15 UNL     1      40.685   6.972  19.967  1.00  0.00     0.198 C 
HETATM   35  O3  UNL     1      41.805   6.643  19.195  1.00  0.00    -0.388 OA
HETATM   36  C16 UNL     1      41.547   6.743  17.834  1.00  0.00     0.198 C 
HETATM   37  C17 UNL     1      40.630   5.581  17.465  1.00  0.00     0.298 C 
ENDBRANCH  31  32
ENDBRANCH  30  31
ENDBRANCH  29  30
ENDBRANCH  28  29
ENDBRANCH  27  28
ENDBRANCH  24  27
ENDBRANCH   6  23
BRANCH   5  38
HETATM   38  C6  UNL     1      34.475   4.699  15.253  1.00  0.00     0.174 C 
BRANCH  38  39
HETATM   39  O1  UNL     1      33.475   3.938  15.817  1.00  0.00    -0.400 OA
ATOM     40  H1  UNL     1      32.908   4.485  16.347  1.00  0.00     0.209 HD
ENDBRANCH  38  39
ENDBRANCH   5  38
TORSDOF 9
ENDMDL
MODEL 4
REMARK VINA RESULT: -8.231555282      1.798      2.301
REMARK  9 active torsions:
REMARK  status: ('A' for Active; 'I' for Inactive)
REMARK    1  A    between atoms: C5_5  and  C6_6 
REMARK    2  A    between atoms: C6_6  and  O1_7 
REMARK    3  A    between atoms: C7_9  and  N1_10 
REMARK       I    between atoms: N1_10  and  C8_12 
REMARK    4  A    between atoms: C8_12  and  C9_14 
REMARK    5  A    between atoms: C9_14  and  C10_15 
REMARK    6  A    between atoms: C10_15  and  C11_16 
REMARK    7  A    between atoms: C11_16  and  C12_17 
REMARK    8  A    between atoms: C12_17  and  C13_18 
REMARK    9  A    between atoms: C13_18  and  N2_19 
ROOT
HETATM    1  C1  UNL     1      37.850   2.015  12.855  1.00  0.00     0.020 C 
HETATM    2  C2  UNL     1      38.550   1.798  14.178  1.00  0.00    -0.022 C 
HETATM    3  C3  UNL     1      38.136   2.888  15.102  1.00  0.00    -0.021 C 
HETATM    4  C4  UNL     1      36.966   3.097  15.653  1.00  0.00    -0.021 C 
HETATM    5  C5  UNL     1      35.714   2.361  15.552  1.00  0.00     0.054 C 
HETATM    6  C7  UNL     1      35.938   0.873  15.849  1.00  0.00     0.094 C 
HETATM    7  C18 UNL     1      36.753   0.191  14.835  1.00  0.00     0.032 C 
HETATM    8  C19 UNL     1      38.218   0.508  14.836  1.00  0.00     0.004 C 
HETATM    9  C20 UNL     1      38.935  -0.709  14.303  1.00  0.00    -0.005 C 
HETATM   10  C21 UNL     1      39.065  -1.679  15.458  1.00  0.00     0.006 C 
HETATM   11  C22 UNL     1      40.048  -2.785  15.231  1.00  0.00     0.006 C 
HETATM   12  C23 UNL     1      41.372  -2.352  14.696  1.00  0.00     0.001 C 
HETATM   13  C24 UNL     1      42.191  -3.551  14.369  1.00  0.00     0.083 C 
HETATM   14  C25 UNL     1      43.229  -3.344  13.353  1.00  0.00     0.127 C 
HETATM   15  O4  UNL     1      44.038  -4.252  13.183  1.00  0.00    -0.298 OA
HETATM   16  C26 UNL     1      43.393  -2.140  12.513  1.00  0.00     0.079 C 
HETATM   17  C27 UNL     1      42.511  -1.012  13.037  1.00  0.00     0.017 C 
HETATM   18  C28 UNL     1      41.133  -1.553  13.440  1.00  0.00    -0.036 C 
HETATM   19  C29 UNL     1      40.546  -2.412  12.323  1.00  0.00     0.016 C 
HETATM   20  C30 UNL     1      40.220  -0.394  13.634  1.00  0.00    -0.002 C 
HETATM   21  C31 UNL     1      40.850   0.771  14.358  1.00  0.00     0.007 C 
HETATM   22  C32 UNL     1      40.027   1.979  13.968  1.00  0.00     0.014 C 
ENDROOT
BRANCH   6  23
HETATM   23  N1  UNL     1      36.324   0.701  17.205  1.00  0.00    -0.356 N 
HETATM   24  C8  UNL     1      35.935  -0.351  18.057  1.00  0.00     0.217 C 
HETATM   25  O2  UNL     1      35.160  -1.202  17.507  1.00  0.00    -0.274 OA
ATOM     26  H1  UNL     1      36.942   1.408  17.601  1.00  0.00     0.162 HD
BRANCH  24  27
HETATM   27  C9  UNL     1      36.351  -0.504  19.449  1.00  0.00     0.103 C 
BRANCH  27  28
HETATM   28  C10 UNL     1      35.297  -0.961  20.404  1.00  0.00     0.009 C 
BRANCH  28  29
HETATM   29  C11 UNL     1      35.598  -2.324  20.922  1.00  0.00     0.002 C 
BRANCH  29  30
HETATM   30  C12 UNL     1      34.568  -3.366  20.529  1.00  0.00     0.030 C 
BRANCH  30  31
HETATM   31  C13 UNL     1      33.222  -3.101  21.155  1.00  0.00     0.272 C 
BRANCH  31  32
HETATM   32  N2  UNL     1      32.201  -2.863  20.179  1.00  0.00     0.092 N 
HETATM   33  C14 UNL     1      30.963  -3.542  20.493  1.00  0.00     0.298 C 
HETATM   34  C15 UNL     1      29.843  -2.929  19.648  1.00  0.00     0.198 C 
HETATM   35  O3  UNL     1      30.358  -2.510  18.415  1.00  0.00    -0.388 OA
HETATM   36  C16 UNL     1      31.346  -3.367  17.947  1.00  0.00     0.198 C 
HETATM   37  C17 UNL     1      32.576  -3.155  18.824  1.00  0.00     0.298 C 
ENDBRANCH  31  32
ENDBRANCH  30  31
ENDBRANCH  29  30
ENDBRANCH  28  29
ENDBRANCH  27  28
ENDBRANCH  24  27
ENDBRANCH   6  23
BRANCH   5  38
HETATM   38  C6  UNL     1      34.652   2.907  16.512  1.00  0.00     0.174 C 
BRANCH  38  39
HETATM   39  O1  UNL     1      33.718   3.642  15.816  1.00  0.00    -0.400 OA
ATOM     40  H1  UNL     1      34.149   4.193  15.174  1.00  0.00     0.209 HD
ENDBRANCH  38  39
ENDBRANCH   5  38
TORSDOF 9
ENDMDL
MODEL 5
REMARK VINA RESULT: -8.118996798      2.136      2.757
REMARK  9 active torsions:
REMARK  status: ('A' for Active; 'I' for Inactive)
REMARK    1  A    between atoms: C5_5  and  C6_6 
REMARK    2  A    between atoms: C6_6  and  O1_7 
REMARK    3  A    between atoms: C7_9  and  N1_10 
REMARK       I    between atoms: N1_10  and  C8_12 
REMARK    4  A    between atoms: C8_12  and  C9_14 
REMARK    5  A    between atoms: C9_14  and  C10_15 
REMARK    6  A    between atoms: C10_15  and  C11_16 
REMARK    7  A    between atoms: C11_16  and  C12_17 
REMARK    8  A    between atoms: C12_17  and  C13_18 
REMARK    9  A    between atoms: C13_18  and  N2_19 
ROOT
HETATM    1  C1  UNL     1      37.867   2.076  12.972  1.00  0.00     0.020 C 
HETATM    2  C2  UNL     1      38.522   1.837  14.313  1.00  0.00    -0.022 C 
HETATM    3  C3  UNL     1      38.113   2.936  15.229  1.00  0.00    -0.021 C 
HETATM    4  C4  UNL     1      36.934   3.176  15.747  1.00  0.00    -0.021 C 
HETATM    5  C5  UNL     1      35.666   2.475  15.609  1.00  0.00     0.054 C 
HETATM    6  C7  UNL     1      35.839   0.982  15.907  1.00  0.00     0.094 C 
HETATM    7  C18 UNL     1      36.663   0.280  14.914  1.00  0.00     0.032 C 
HETATM    8  C19 UNL     1      38.136   0.555  14.958  1.00  0.00     0.004 C 
HETATM    9  C20 UNL     1      38.834  -0.680  14.441  1.00  0.00    -0.005 C 
HETATM   10  C21 UNL     1      38.904  -1.656  15.597  1.00  0.00     0.006 C 
HETATM   11  C22 UNL     1      39.862  -2.788  15.394  1.00  0.00     0.006 C 
HETATM   12  C23 UNL     1      41.212  -2.392  14.898  1.00  0.00     0.001 C 
HETATM   13  C24 UNL     1      42.006  -3.613  14.590  1.00  0.00     0.083 C 
HETATM   14  C25 UNL     1      43.077  -3.432  13.605  1.00  0.00     0.127 C 
HETATM   15  O4  UNL     1      43.866  -4.362  13.455  1.00  0.00    -0.298 OA
HETATM   16  C26 UNL     1      43.299  -2.232  12.774  1.00  0.00     0.079 C 
HETATM   17  C27 UNL     1      42.434  -1.080  13.276  1.00  0.00     0.017 C 
HETATM   18  C28 UNL     1      41.030  -1.584  13.638  1.00  0.00    -0.036 C 
HETATM   19  C29 UNL     1      40.451  -2.423  12.503  1.00  0.00     0.016 C 
HETATM   20  C30 UNL     1      40.146  -0.400  13.810  1.00  0.00    -0.002 C 
HETATM   21  C31 UNL     1      40.786   0.746  14.555  1.00  0.00     0.007 C 
HETATM   22  C32 UNL     1      40.009   1.977  14.146  1.00  0.00     0.014 C 
ENDROOT
BRANCH   6  23
HETATM   23  N1  UNL     1      36.182   0.796  17.273  1.00  0.00    -0.356 N 
HETATM   24  C8  UNL     1      35.815  -0.296  18.085  1.00  0.00     0.217 C 
HETATM   25  O2  UNL     1      35.106  -1.170  17.486  1.00  0.00    -0.274 OA
ATOM     26  H1  UNL     1      36.748   1.523  17.709  1.00  0.00     0.162 HD
BRANCH  24  27
HETATM   27  C9  UNL     1      36.185  -0.462  19.488  1.00  0.00     0.103 C 
BRANCH  27  28
HETATM   28  C10 UNL     1      35.269  -1.305  20.314  1.00  0.00     0.009 C 
BRANCH  28  29
HETATM   29  C11 UNL     1      36.037  -2.279  21.139  1.00  0.00     0.002 C 
BRANCH  29  30
HETATM   30  C12 UNL     1      35.398  -3.653  21.209  1.00  0.00     0.030 C 
BRANCH  30  31
HETATM   31  C13 UNL     1      35.389  -4.207  22.611  1.00  0.00     0.272 C 
BRANCH  31  32
HETATM   32  N2  UNL     1      36.391  -5.212  22.809  1.00  0.00     0.092 N 
HETATM   33  C14 UNL     1      37.243  -4.930  23.944  1.00  0.00     0.298 C 
HETATM   34  C15 UNL     1      37.997  -6.210  24.317  1.00  0.00     0.198 C 
HETATM   35  O3  UNL     1      38.245  -6.963  23.164  1.00  0.00    -0.388 OA
HETATM   36  C16 UNL     1      38.516  -6.158  22.065  1.00  0.00     0.198 C 
HETATM   37  C17 UNL     1      37.203  -5.494  21.660  1.00  0.00     0.298 C 
ENDBRANCH  31  32
ENDBRANCH  30  31
ENDBRANCH  29  30
ENDBRANCH  28  29
ENDBRANCH  27  28
ENDBRANCH  24  27
ENDBRANCH   6  23
BRANCH   5  38
HETATM   38  C6  UNL     1      34.592   3.050  16.540  1.00  0.00     0.174 C 
BRANCH  38  39
HETATM   39  O1  UNL     1      33.768   3.904  15.842  1.00  0.00    -0.400 OA
ATOM     40  H1  UNL     1      32.988   3.443  15.557  1.00  0.00     0.209 HD
ENDBRANCH  38  39
ENDBRANCH   5  38
TORSDOF 9
ENDMDL
