MODEL 1
REMARK VINA RESULT: -7.249245036      0.000      0.000
REMARK  10 active torsions:
REMARK  status: ('A' for Active; 'I' for Inactive)
REMARK    1  A    between atoms: S1_2  and  C2_3 
REMARK    2  A    between atoms: C2_3  and  C3_4 
REMARK    3  A    between atoms: C3_4  and  C4_5 
REMARK    4  A    between atoms: C4_5  and  N1_6 
REMARK    5  A    between atoms: C4_5  and  C29_35 
REMARK       I    between atoms: N1_6  and  C5_7 
REMARK    6  A    between atoms: C5_7  and  C6_9 
REMARK    7  A    between atoms: C6_9  and  C7_11 
REMARK    8  A    between atoms: C7_11  and  C9_13 
REMARK    9  A    between atoms: C19_23  and  O3_24 
REMARK   10  A    between atoms: C29_35  and  O4_37 
ROOT
HETATM    1  C9  UNL     1      37.004   0.255  16.088  1.00  0.00     0.005 C 
HETATM    2  C10 UNL     1      37.670   1.568  16.391  1.00  0.00     0.006 C 
HETATM    3  C11 UNL     1      38.880   1.745  15.546  1.00  0.00     0.006 C 
HETATM    4  C12 UNL     1      38.932   0.499  14.737  1.00  0.00    -0.002 C 
HETATM    5  C13 UNL     1      40.311   0.098  14.233  1.00  0.00    -0.004 C 
HETATM    6  C14 UNL     1      40.584   0.954  13.067  1.00  0.00     0.009 C 
HETATM    7  C15 UNL     1      42.032   1.195  12.798  1.00  0.00     0.028 C 
HETATM    8  C16 UNL     1      42.864  -0.072  12.801  1.00  0.00    -0.023 C 
HETATM    9  C17 UNL     1      42.636  -1.278  13.014  1.00  0.00    -0.072 C 
HETATM   10  C18 UNL     1      43.892  -2.145  12.890  1.00  0.00     0.066 C 
HETATM   11  C19 UNL     1      43.342  -3.254  12.090  1.00  0.00     0.122 C 
HETATM   12  C20 UNL     1      42.074  -3.463  11.421  1.00  0.00     0.033 C 
HETATM   13  C21 UNL     1      40.981  -2.505  11.930  1.00  0.00     0.016 C 
HETATM   14  C22 UNL     1      41.455  -2.035  13.325  1.00  0.00    -0.017 C 
HETATM   15  C23 UNL     1      41.698  -3.360  14.067  1.00  0.00     0.020 C 
HETATM   16  C24 UNL     1      40.385  -1.365  14.109  1.00  0.00     0.002 C 
HETATM   17  C25 UNL     1      38.979  -1.889  13.706  1.00  0.00     0.007 C 
HETATM   18  C26 UNL     1      38.081  -1.729  14.959  1.00  0.00     0.010 C 
HETATM   19  C27 UNL     1      38.329  -0.494  15.680  1.00  0.00    -0.036 C 
HETATM   20  C28 UNL     1      39.139  -0.560  16.906  1.00  0.00     0.016 C 
ENDROOT
BRANCH   1  21
HETATM   21  C7  UNL     1      36.437  -0.422  17.253  1.00  0.00     0.067 C 
HETATM   22  C8  UNL     1      34.981  -0.924  16.700  1.00  0.00     0.019 C 
BRANCH  21  23
HETATM   23  C6  UNL     1      36.078   0.201  18.464  1.00  0.00     0.235 C 
HETATM   24  O2  UNL     1      35.441   1.042  18.756  1.00  0.00    -0.286 OA
BRANCH  23  25
HETATM   25  C5  UNL     1      36.854  -0.548  19.839  1.00  0.00     0.362 C 
HETATM   26  N1  UNL     1      35.858  -1.363  20.251  1.00  0.00    -0.370 NA
HETATM   27  O1  UNL     1      37.828   0.057  19.671  1.00  0.00    -0.248 OA
BRANCH  26  28
HETATM   28  C4  UNL     1      34.844  -2.204  20.686  1.00  0.00     0.095 C 
BRANCH  28  29
HETATM   29  C3  UNL     1      33.563  -2.347  19.940  1.00  0.00     0.081 C 
BRANCH  29  30
HETATM   30  C2  UNL     1      33.335  -3.626  19.206  1.00  0.00     0.080 C 
BRANCH  30  31
HETATM   31  S1  UNL     1      32.196  -3.547  17.786  1.00  0.00    -0.173 SA
HETATM   32  C1  UNL     1      31.184  -2.050  17.796  1.00  0.00     0.089 C 
ENDBRANCH  30  31
ENDBRANCH  29  30
ENDBRANCH  28  29
BRANCH  28  33
HETATM   33  C29 UNL     1      35.216  -3.492  21.368  1.00  0.00     0.174 C 
HETATM   34  C30 UNL     1      34.446  -3.591  22.694  1.00  0.00     0.046 C 
BRANCH  33  35
HETATM   35  O4  UNL     1      36.548  -3.557  21.729  1.00  0.00    -0.389 OA
ATOM     36  H4  UNL     1      36.974  -4.362  21.457  1.00  0.00     0.210 HD
ENDBRANCH  33  35
ENDBRANCH  28  33
ENDBRANCH  26  28
ENDBRANCH  23  25
ENDBRANCH  21  23
ENDBRANCH   1  21
BRANCH  11  37
HETATM   37  O3  UNL     1      44.187  -4.299  11.956  1.00  0.00    -0.395 OA
ATOM     38  H3  UNL     1      44.859  -4.166  11.298  1.00  0.00     0.210 HD
ENDBRANCH  11  37
TORSDOF 10
ENDMDL
MODEL 2
REMARK VINA RESULT: -7.174957350      5.454     13.311
REMARK  10 active torsions:
REMARK  status: ('A' for Active; 'I' for Inactive)
REMARK    1  A    between atoms: S1_2  and  C2_3 
REMARK    2  A    between atoms: C2_3  and  C3_4 
REMARK    3  A    between atoms: C3_4  and  C4_5 
REMARK    4  A    between atoms: C4_5  and  N1_6 
REMARK    5  A    between atoms: C4_5  and  C29_35 
REMARK       I    between atoms: N1_6  and  C5_7 
REMARK    6  A    between atoms: C5_7  and  C6_9 
REMARK    7  A    between atoms: C6_9  and  C7_11 
REMARK    8  A    between atoms: C7_11  and  C9_13 
REMARK    9  A    between atoms: C19_23  and  O3_24 
REMARK   10  A    between atoms: C29_35  and  O4_37 
ROOT
HETATM    1  C9  UNL     1      32.482  -3.251  23.117  1.00  0.00     0.005 C 
HETATM    2  C10 UNL     1      33.766  -3.479  23.866  1.00  0.00     0.006 C 
HETATM    3  C11 UNL     1      33.622  -3.064  25.286  1.00  0.00     0.006 C 
HETATM    4  C12 UNL     1      32.223  -2.568  25.369  1.00  0.00    -0.002 C 
HETATM    5  C13 UNL     1      31.948  -1.553  26.469  1.00  0.00    -0.004 C 
HETATM    6  C14 UNL     1      31.827  -2.326  27.716  1.00  0.00     0.009 C 
HETATM    7  C15 UNL     1      32.174  -1.568  28.954  1.00  0.00     0.028 C 
HETATM    8  C16 UNL     1      31.502  -0.211  29.039  1.00  0.00    -0.023 C 
HETATM    9  C17 UNL     1      30.749   0.449  28.297  1.00  0.00    -0.072 C 
HETATM   10  C18 UNL     1      30.376   1.807  28.898  1.00  0.00     0.066 C 
HETATM   11  C19 UNL     1      28.929   1.804  28.621  1.00  0.00     0.122 C 
HETATM   12  C20 UNL     1      28.016   0.799  28.113  1.00  0.00     0.033 C 
HETATM   13  C21 UNL     1      28.753  -0.357  27.412  1.00  0.00     0.016 C 
HETATM   14  C22 UNL     1      30.138   0.208  27.020  1.00  0.00    -0.017 C 
HETATM   15  C23 UNL     1      29.777   1.468  26.214  1.00  0.00     0.020 C 
HETATM   16  C24 UNL     1      30.866  -0.651  26.050  1.00  0.00     0.002 C 
HETATM   17  C25 UNL     1      29.879  -1.459  25.162  1.00  0.00     0.007 C 
HETATM   18  C26 UNL     1      30.610  -1.711  23.819  1.00  0.00     0.010 C 
HETATM   19  C27 UNL     1      32.017  -2.024  23.990  1.00  0.00    -0.036 C 
HETATM   20  C28 UNL     1      32.999  -0.960  23.731  1.00  0.00     0.016 C 
ENDROOT
BRANCH   1  21
HETATM   21  C7  UNL     1      32.654  -2.792  21.740  1.00  0.00     0.067 C 
HETATM   22  C8  UNL     1      31.257  -3.262  21.031  1.00  0.00     0.019 C 
BRANCH  21  23
HETATM   23  C6  UNL     1      33.610  -3.285  20.830  1.00  0.00     0.235 C 
HETATM   24  O2  UNL     1      33.818  -4.248  20.354  1.00  0.00    -0.286 OA
BRANCH  23  25
HETATM   25  C5  UNL     1      34.755  -2.052  20.354  1.00  0.00     0.362 C 
HETATM   26  N1  UNL     1      34.300  -1.781  19.111  1.00  0.00    -0.370 NA
HETATM   27  O1  UNL     1      35.309  -2.119  21.370  1.00  0.00    -0.248 OA
BRANCH  26  28
HETATM   28  C4  UNL     1      33.844  -1.493  17.833  1.00  0.00     0.095 C 
BRANCH  28  29
HETATM   29  C3  UNL     1      34.738  -0.926  16.786  1.00  0.00     0.081 C 
BRANCH  29  30
HETATM   30  C2  UNL     1      36.057  -0.386  17.228  1.00  0.00     0.080 C 
BRANCH  30  31
HETATM   31  S1  UNL     1      36.063   1.337  17.821  1.00  0.00    -0.173 SA
HETATM   32  C1  UNL     1      36.039   1.447  19.625  1.00  0.00     0.089 C 
ENDBRANCH  30  31
ENDBRANCH  29  30
ENDBRANCH  28  29
BRANCH  28  33
HETATM   33  C29 UNL     1      32.796  -2.384  17.222  1.00  0.00     0.174 C 
HETATM   34  C30 UNL     1      31.418  -1.965  17.758  1.00  0.00     0.046 C 
BRANCH  33  35
HETATM   35  O4  UNL     1      32.926  -3.711  17.583  1.00  0.00    -0.389 OA
ATOM     36  H4  UNL     1      32.729  -4.315  16.876  1.00  0.00     0.210 HD
ENDBRANCH  33  35
ENDBRANCH  28  33
ENDBRANCH  26  28
ENDBRANCH  23  25
ENDBRANCH  21  23
ENDBRANCH   1  21
BRANCH  11  37
HETATM   37  O3  UNL     1      28.322   2.981  28.885  1.00  0.00    -0.395 OA
ATOM     38  H3  UNL     1      27.478   3.080  28.461  1.00  0.00     0.210 HD
ENDBRANCH  11  37
TORSDOF 10
ENDMDL
MODEL 3
REMARK VINA RESULT: -7.092925874      1.434      2.083
REMARK  10 active torsions:
REMARK  status: ('A' for Active; 'I' for Inactive)
REMARK    1  A    between atoms: S1_2  and  C2_3 
REMARK    2  A    between atoms: C2_3  and  C3_4 
REMARK    3  A    between atoms: C3_4  and  C4_5 
REMARK    4  A    between atoms: C4_5  and  N1_6 
REMARK    5  A    between atoms: C4_5  and  C29_35 
REMARK       I    between atoms: N1_6  and  C5_7 
REMARK    6  A    between atoms: C5_7  and  C6_9 
REMARK    7  A    between atoms: C6_9  and  C7_11 
REMARK    8  A    between atoms: C7_11  and  C9_13 
REMARK    9  A    between atoms: C19_23  and  O3_24 
REMARK   10  A    between atoms: C29_35  and  O4_37 
ROOT
HETATM    1  C9  UNL     1      36.890   0.274  16.202  1.00  0.00     0.005 C 
HETATM    2  C10 UNL     1      37.601   1.549  16.565  1.00  0.00     0.006 C 
HETATM    3  C11 UNL     1      38.824   1.717  15.738  1.00  0.00     0.006 C 
HETATM    4  C12 UNL     1      38.838   0.505  14.878  1.00  0.00    -0.002 C 
HETATM    5  C13 UNL     1      40.206   0.074  14.367  1.00  0.00    -0.004 C 
HETATM    6  C14 UNL     1      40.521   0.969  13.241  1.00  0.00     0.009 C 
HETATM    7  C15 UNL     1      41.979   1.167  12.993  1.00  0.00     0.028 C 
HETATM    8  C16 UNL     1      42.765  -0.129  12.949  1.00  0.00    -0.023 C 
HETATM    9  C17 UNL     1      42.491  -1.333  13.109  1.00  0.00    -0.072 C 
HETATM   10  C18 UNL     1      43.715  -2.240  12.958  1.00  0.00     0.066 C 
HETATM   11  C19 UNL     1      43.134  -3.293  12.108  1.00  0.00     0.122 C 
HETATM   12  C20 UNL     1      41.864  -3.428  11.421  1.00  0.00     0.033 C 
HETATM   13  C21 UNL     1      40.802  -2.452  11.962  1.00  0.00     0.016 C 
HETATM   14  C22 UNL     1      41.280  -2.058  13.379  1.00  0.00    -0.017 C 
HETATM   15  C23 UNL     1      41.468  -3.422  14.067  1.00  0.00     0.020 C 
HETATM   16  C24 UNL     1      40.229  -1.384  14.183  1.00  0.00     0.002 C 
HETATM   17  C25 UNL     1      38.808  -1.838  13.747  1.00  0.00     0.007 C 
HETATM   18  C26 UNL     1      37.905  -1.698  14.998  1.00  0.00     0.010 C 
HETATM   19  C27 UNL     1      38.191  -0.505  15.773  1.00  0.00    -0.036 C 
HETATM   20  C28 UNL     1      38.987  -0.651  17.002  1.00  0.00     0.016 C 
ENDROOT
BRANCH   1  21
HETATM   21  C7  UNL     1      36.289  -0.430  17.333  1.00  0.00     0.067 C 
HETATM   22  C8  UNL     1      34.806  -0.819  16.762  1.00  0.00     0.019 C 
BRANCH  21  23
HETATM   23  C6  UNL     1      35.967   0.149  18.577  1.00  0.00     0.235 C 
HETATM   24  O2  UNL     1      35.409   1.027  18.914  1.00  0.00    -0.286 OA
BRANCH  23  25
HETATM   25  C5  UNL     1      36.642  -0.757  19.912  1.00  0.00     0.362 C 
HETATM   26  N1  UNL     1      35.608  -1.586  20.174  1.00  0.00    -0.370 NA
HETATM   27  O1  UNL     1      37.634  -0.159  19.868  1.00  0.00    -0.248 OA
BRANCH  26  28
HETATM   28  C4  UNL     1      34.554  -2.444  20.455  1.00  0.00     0.095 C 
BRANCH  28  29
HETATM   29  C3  UNL     1      33.516  -2.111  21.469  1.00  0.00     0.081 C 
BRANCH  29  30
HETATM   30  C2  UNL     1      33.613  -2.782  22.798  1.00  0.00     0.080 C 
BRANCH  30  31
HETATM   31  S1  UNL     1      32.624  -2.051  24.143  1.00  0.00    -0.173 SA
HETATM   32  C1  UNL     1      32.376  -3.196  25.519  1.00  0.00     0.089 C 
ENDBRANCH  30  31
ENDBRANCH  29  30
ENDBRANCH  28  29
BRANCH  28  33
HETATM   33  C29 UNL     1      33.971  -3.263  19.336  1.00  0.00     0.174 C 
HETATM   34  C30 UNL     1      32.453  -3.033  19.294  1.00  0.00     0.046 C 
BRANCH  33  35
HETATM   35  O4  UNL     1      34.116  -4.624  19.518  1.00  0.00    -0.389 OA
ATOM     36  H4  UNL     1      34.514  -5.064  18.776  1.00  0.00     0.210 HD
ENDBRANCH  33  35
ENDBRANCH  28  33
ENDBRANCH  26  28
ENDBRANCH  23  25
ENDBRANCH  21  23
ENDBRANCH   1  21
BRANCH  11  37
HETATM   37  O3  UNL     1      43.941  -4.362  11.936  1.00  0.00    -0.395 OA
ATOM     38  H3  UNL     1      43.907  -4.987  12.651  1.00  0.00     0.210 HD
ENDBRANCH  11  37
TORSDOF 10
ENDMDL
MODEL 4
REMARK VINA RESULT: -7.041988475      2.892      8.694
REMARK  10 active torsions:
REMARK  status: ('A' for Active; 'I' for Inactive)
REMARK    1  A    between atoms: S1_2  and  C2_3 
REMARK    2  A    between atoms: C2_3  and  C3_4 
REMARK    3  A    between atoms: C3_4  and  C4_5 
REMARK    4  A    between atoms: C4_5  and  N1_6 
REMARK    5  A    between atoms: C4_5  and  C29_35 
REMARK       I    between atoms: N1_6  and  C5_7 
REMARK    6  A    between atoms: C5_7  and  C6_9 
REMARK    7  A    between atoms: C6_9  and  C7_11 
REMARK    8  A    between atoms: C7_11  and  C9_13 
REMARK    9  A    between atoms: C19_23  and  O3_24 
REMARK   10  A    between atoms: C29_35  and  O4_37 
ROOT
HETATM    1  C9  UNL     1      37.034   1.361  16.506  1.00  0.00     0.005 C 
HETATM    2  C10 UNL     1      36.543   0.600  15.306  1.00  0.00     0.006 C 
HETATM    3  C11 UNL     1      35.491  -0.372  15.700  1.00  0.00     0.006 C 
HETATM    4  C12 UNL     1      35.370  -0.187  17.170  1.00  0.00    -0.002 C 
HETATM    5  C13 UNL     1      34.848  -1.388  17.946  1.00  0.00    -0.004 C 
HETATM    6  C14 UNL     1      33.389  -1.395  17.752  1.00  0.00     0.009 C 
HETATM    7  C15 UNL     1      32.753  -2.740  17.865  1.00  0.00     0.028 C 
HETATM    8  C16 UNL     1      33.184  -3.508  19.100  1.00  0.00    -0.023 C 
HETATM    9  C17 UNL     1      33.979  -3.301  20.035  1.00  0.00    -0.072 C 
HETATM   10  C18 UNL     1      34.028  -4.461  21.034  1.00  0.00     0.066 C 
HETATM   11  C19 UNL     1      33.972  -3.699  22.293  1.00  0.00     0.122 C 
HETATM   12  C20 UNL     1      33.751  -2.300  22.599  1.00  0.00     0.033 C 
HETATM   13  C21 UNL     1      33.957  -1.394  21.371  1.00  0.00     0.016 C 
HETATM   14  C22 UNL     1      34.840  -2.208  20.396  1.00  0.00    -0.017 C 
HETATM   15  C23 UNL     1      36.052  -2.584  21.266  1.00  0.00     0.020 C 
HETATM   16  C24 UNL     1      35.415  -1.384  19.302  1.00  0.00     0.002 C 
HETATM   17  C25 UNL     1      35.597   0.093  19.746  1.00  0.00     0.007 C 
HETATM   18  C26 UNL     1      36.779   0.654  18.915  1.00  0.00     0.010 C 
HETATM   19  C27 UNL     1      36.769   0.199  17.537  1.00  0.00    -0.036 C 
HETATM   20  C28 UNL     1      37.691  -0.883  17.159  1.00  0.00     0.016 C 
ENDROOT
BRANCH   1  21
HETATM   21  C7  UNL     1      38.468   1.647  16.500  1.00  0.00     0.067 C 
HETATM   22  C8  UNL     1      38.603   2.814  17.639  1.00  0.00     0.019 C 
BRANCH  21  23
HETATM   23  C6  UNL     1      39.181   2.218  15.427  1.00  0.00     0.235 C 
HETATM   24  O2  UNL     1      39.594   3.204  15.195  1.00  0.00    -0.286 OA
BRANCH  23  25
HETATM   25  C5  UNL     1      39.464   1.065  14.144  1.00  0.00     0.362 C 
HETATM   26  N1  UNL     1      40.206   0.154  14.811  1.00  0.00    -0.370 NA
HETATM   27  O1  UNL     1      38.857   1.699  13.386  1.00  0.00    -0.248 OA
BRANCH  26  28
HETATM   28  C4  UNL     1      40.970  -0.789  15.483  1.00  0.00     0.095 C 
BRANCH  28  29
HETATM   29  C3  UNL     1      40.419  -2.114  15.878  1.00  0.00     0.081 C 
BRANCH  29  30
HETATM   30  C2  UNL     1      39.720  -2.909  14.826  1.00  0.00     0.080 C 
BRANCH  30  31
HETATM   31  S1  UNL     1      40.224  -4.652  14.666  1.00  0.00    -0.173 SA
HETATM   32  C1  UNL     1      38.826  -5.746  14.321  1.00  0.00     0.089 C 
ENDBRANCH  30  31
ENDBRANCH  29  30
ENDBRANCH  28  29
BRANCH  28  33
HETATM   33  C29 UNL     1      42.438  -0.889  15.166  1.00  0.00     0.174 C 
HETATM   34  C30 UNL     1      42.608  -0.985  13.642  1.00  0.00     0.046 C 
BRANCH  33  35
HETATM   35  O4  UNL     1      43.030  -2.035  15.660  1.00  0.00    -0.389 OA
ATOM     36  H4  UNL     1      43.792  -1.863  16.200  1.00  0.00     0.210 HD
ENDBRANCH  33  35
ENDBRANCH  28  33
ENDBRANCH  26  28
ENDBRANCH  23  25
ENDBRANCH  21  23
ENDBRANCH   1  21
BRANCH  11  37
HETATM   37  O3  UNL     1      34.178  -4.453  23.395  1.00  0.00    -0.395 OA
ATOM     38  H3  UNL     1      34.856  -4.115  23.968  1.00  0.00     0.210 HD
ENDBRANCH  11  37
TORSDOF 10
ENDMDL
MODEL 5
REMARK VINA RESULT: -7.018978907      3.679      6.178
REMARK  10 active torsions:
REMARK  status: ('A' for Active; 'I' for Inactive)
REMARK    1  A    between atoms: S1_2  and  C2_3 
REMARK    2  A    between atoms: C2_3  and  C3_4 
REMARK    3  A    between atoms: C3_4  and  C4_5 
REMARK    4  A    between atoms: C4_5  and  N1_6 
REMARK    5  A    between atoms: C4_5  and  C29_35 
REMARK       I    between atoms: N1_6  and  C5_7 
REMARK    6  A    between atoms: C5_7  and  C6_9 
REMARK    7  A    between atoms: C6_9  and  C7_11 
REMARK    8  A    between atoms: C7_11  and  C9_13 
REMARK    9  A    between atoms: C19_23  and  O3_24 
REMARK   10  A    between atoms: C29_35  and  O4_37 
ROOT
HETATM    1  C9  UNL     1      37.069   0.226  17.382  1.00  0.00     0.005 C 
HETATM    2  C10 UNL     1      35.907  -0.249  16.555  1.00  0.00     0.006 C 
HETATM    3  C11 UNL     1      36.367  -1.201  15.509  1.00  0.00     0.006 C 
HETATM    4  C12 UNL     1      37.836  -1.275  15.721  1.00  0.00    -0.002 C 
HETATM    5  C13 UNL     1      38.659  -1.664  14.501  1.00  0.00    -0.004 C 
HETATM    6  C14 UNL     1      38.529  -3.125  14.369  1.00  0.00     0.009 C 
HETATM    7  C15 UNL     1      38.697  -3.642  12.980  1.00  0.00     0.028 C 
HETATM    8  C16 UNL     1      39.928  -3.099  12.281  1.00  0.00    -0.023 C 
HETATM    9  C17 UNL     1      40.825  -2.285  12.575  1.00  0.00    -0.072 C 
HETATM   10  C18 UNL     1      41.844  -2.100  11.448  1.00  0.00     0.066 C 
HETATM   11  C19 UNL     1      43.089  -2.167  12.234  1.00  0.00     0.122 C 
HETATM   12  C20 UNL     1      43.374  -2.491  13.618  1.00  0.00     0.033 C 
HETATM   13  C21 UNL     1      42.119  -2.410  14.506  1.00  0.00     0.016 C 
HETATM   14  C22 UNL     1      41.125  -1.504  13.743  1.00  0.00    -0.017 C 
HETATM   15  C23 UNL     1      41.950  -0.230  13.490  1.00  0.00     0.020 C 
HETATM   16  C24 UNL     1      39.990  -1.045  14.584  1.00  0.00     0.002 C 
HETATM   17  C25 UNL     1      40.394  -0.967  16.082  1.00  0.00     0.007 C 
HETATM   18  C26 UNL     1      39.502   0.129  16.717  1.00  0.00     0.010 C 
HETATM   19  C27 UNL     1      38.135   0.100  16.228  1.00  0.00    -0.036 C 
HETATM   20  C28 UNL     1      37.741   1.092  15.216  1.00  0.00     0.016 C 
ENDROOT
BRANCH   1  21
HETATM   21  C7  UNL     1      36.995   1.630  17.785  1.00  0.00     0.067 C 
HETATM   22  C8  UNL     1      37.675   1.610  19.272  1.00  0.00     0.019 C 
BRANCH  21  23
HETATM   23  C6  UNL     1      35.807   2.347  18.028  1.00  0.00     0.235 C 
HETATM   24  O2  UNL     1      35.091   2.424  18.851  1.00  0.00    -0.286 OA
BRANCH  23  25
HETATM   25  C5  UNL     1      35.364   3.355  16.671  1.00  0.00     0.362 C 
HETATM   26  N1  UNL     1      36.439   4.172  16.628  1.00  0.00    -0.370 NA
HETATM   27  O1  UNL     1      34.367   2.783  16.521  1.00  0.00    -0.248 OA
BRANCH  26  28
HETATM   28  C4  UNL     1      37.536   5.019  16.573  1.00  0.00     0.095 C 
BRANCH  28  29
HETATM   29  C3  UNL     1      38.860   4.632  17.134  1.00  0.00     0.081 C 
BRANCH  29  30
HETATM   30  C2  UNL     1      39.092   4.887  18.585  1.00  0.00     0.080 C 
BRANCH  30  31
HETATM   31  S1  UNL     1      39.850   6.489  19.010  1.00  0.00    -0.173 SA
HETATM   32  C1  UNL     1      41.600   6.565  18.562  1.00  0.00     0.089 C 
ENDBRANCH  30  31
ENDBRANCH  29  30
ENDBRANCH  28  29
BRANCH  28  33
HETATM   33  C29 UNL     1      37.699   5.912  15.373  1.00  0.00     0.174 C 
HETATM   34  C30 UNL     1      37.822   7.367  15.853  1.00  0.00     0.046 C 
BRANCH  33  35
HETATM   35  O4  UNL     1      36.603   5.910  14.533  1.00  0.00    -0.389 OA
ATOM     36  H4  UNL     1      35.957   6.571  14.754  1.00  0.00     0.210 HD
ENDBRANCH  33  35
ENDBRANCH  28  33
ENDBRANCH  26  28
ENDBRANCH  23  25
ENDBRANCH  21  23
ENDBRANCH   1  21
BRANCH  11  37
HETATM   37  O3  UNL     1      44.196  -1.855  11.527  1.00  0.00    -0.395 OA
ATOM     38  H3  UNL     1      44.115  -1.054  11.022  1.00  0.00     0.210 HD
ENDBRANCH  11  37
TORSDOF 10
ENDMDL
