MODEL 1
REMARK VINA RESULT: -7.784939806      0.000      0.000
REMARK  9 active torsions:
REMARK  status: ('A' for Active; 'I' for Inactive)
REMARK    1  A    between atoms: C2_2  and  C3_3 
REMARK    2  A    between atoms: C3_3  and  S1_4 
REMARK    3  A    between atoms: C3_3  and  C17_18 
REMARK    4  A    between atoms: S1_4  and  C4_5 
REMARK    5  A    between atoms: C10_11  and  C11_12 
REMARK    6  A    between atoms: C11_12  and  C14_15 
REMARK       I    between atoms: C17_18  and  N1_20 
REMARK    7  A    between atoms: N1_20  and  C18_21 
REMARK    8  A    between atoms: C20_25  and  C21_26 
REMARK    9  A    between atoms: C23_30  and  O5_31 
ROOT
HETATM    1  C17 UNL     1      35.736   1.077  17.408  1.00  0.00     0.301 C 
HETATM    2  O1  UNL     1      34.932   2.034  17.416  1.00  0.00    -0.256 OA
HETATM    3  N1  UNL     1      36.459   0.628  16.308  1.00  0.00    -0.396 NA
ENDROOT
BRANCH   1   4
HETATM    4  C3  UNL     1      35.875   0.406  18.758  1.00  0.00     0.154 C 
BRANCH   4   5
HETATM    5  C2  UNL     1      37.287   0.650  19.236  1.00  0.00     0.021 C 
HETATM    6  C1  UNL     1      37.455   2.116  19.640  1.00  0.00     0.007 C 
ENDBRANCH   4   5
BRANCH   4   7
HETATM    7  S1  UNL     1      35.565  -1.324  18.763  1.00  0.00    -0.148 SA
BRANCH   7   8
HETATM    8  C4  UNL     1      34.173  -1.853  19.794  1.00  0.00     0.056 C 
HETATM    9  C5  UNL     1      34.773  -1.991  21.205  1.00  0.00    -0.004 C 
HETATM   10  C6  UNL     1      35.838  -3.028  21.265  1.00  0.00     0.011 C 
HETATM   11  C7  UNL     1      33.601  -2.202  22.101  1.00  0.00     0.005 C 
HETATM   12  C8  UNL     1      32.975  -3.506  21.786  1.00  0.00     0.001 C 
HETATM   13  C9  UNL     1      33.257  -4.098  20.440  1.00  0.00     0.006 C 
HETATM   14  C10 UNL     1      33.592  -3.195  19.337  1.00  0.00     0.008 C 
BRANCH  14  15
HETATM   15  C11 UNL     1      32.601  -2.943  18.267  1.00  0.00    -0.040 C 
HETATM   16  C12 UNL     1      32.347  -4.306  17.575  1.00  0.00     0.015 C 
HETATM   17  C13 UNL     1      33.184  -2.080  17.129  1.00  0.00     0.015 C 
BRANCH  15  18
HETATM   18  C14 UNL     1      31.275  -2.390  18.570  1.00  0.00    -0.015 C 
HETATM   19  C15 UNL     1      30.579  -1.623  17.489  1.00  0.00     0.010 C 
HETATM   20  C16 UNL     1      30.307  -3.212  19.366  1.00  0.00     0.010 C 
ENDBRANCH  15  18
ENDBRANCH  14  15
ENDBRANCH   7   8
ENDBRANCH   4   7
ENDBRANCH   1   4
BRANCH   3  21
HETATM   21  C18 UNL     1      37.145   0.215  15.234  1.00  0.00     0.291 C 
HETATM   22  C19 UNL     1      36.950  -1.241  14.868  1.00  0.00     0.261 C 
HETATM   23  O2  UNL     1      35.973  -1.993  14.995  1.00  0.00    -0.270 OA
HETATM   24  N2  UNL     1      38.258  -1.310  14.371  1.00  0.00    -0.314 N 
HETATM   25  C20 UNL     1      39.365  -1.843  13.625  1.00  0.00     0.221 C 
HETATM   26  C26 UNL     1      38.584  -0.117  15.180  1.00  0.00     0.196 C 
HETATM   27  C22 UNL     1      40.425  -2.369  14.525  1.00  0.00    -0.016 C 
HETATM   28  C23 UNL     1      41.232  -3.268  13.992  1.00  0.00     0.140 C 
HETATM   29  C25 UNL     1      40.638  -2.003  15.940  1.00  0.00     0.115 C 
HETATM   30  S2  UNL     1      39.427  -0.836  16.610  1.00  0.00    -0.135 SA
BRANCH  25  31
HETATM   31  C21 UNL     1      39.799  -0.920  12.599  1.00  0.00     0.201 C 
HETATM   32  O3  UNL     1      38.963  -0.597  11.677  1.00  0.00    -0.646 OA
HETATM   33  O4  UNL     1      41.047  -0.327  12.491  1.00  0.00    -0.646 OA
ENDBRANCH  25  31
BRANCH  28  34
HETATM   34  O5  UNL     1      41.142  -3.720  12.704  1.00  0.00    -0.368 OA
HETATM   35  C24 UNL     1      42.217  -3.924  11.841  1.00  0.00     0.208 C 
ENDBRANCH  28  34
ENDBRANCH   3  21
TORSDOF 9
ENDMDL
MODEL 2
REMARK VINA RESULT: -7.459609385      6.224      9.485
REMARK  9 active torsions:
REMARK  status: ('A' for Active; 'I' for Inactive)
REMARK    1  A    between atoms: C2_2  and  C3_3 
REMARK    2  A    between atoms: C3_3  and  S1_4 
REMARK    3  A    between atoms: C3_3  and  C17_18 
REMARK    4  A    between atoms: S1_4  and  C4_5 
REMARK    5  A    between atoms: C10_11  and  C11_12 
REMARK    6  A    between atoms: C11_12  and  C14_15 
REMARK       I    between atoms: C17_18  and  N1_20 
REMARK    7  A    between atoms: N1_20  and  C18_21 
REMARK    8  A    between atoms: C20_25  and  C21_26 
REMARK    9  A    between atoms: C23_30  and  O5_31 
ROOT
HETATM    1  C17 UNL     1      32.622  -3.354  25.201  1.00  0.00     0.301 C 
HETATM    2  O1  UNL     1      32.998  -3.904  26.259  1.00  0.00    -0.256 OA
HETATM    3  N1  UNL     1      33.036  -3.690  23.916  1.00  0.00    -0.396 NA
ENDROOT
BRANCH   1   4
HETATM    4  C3  UNL     1      31.627  -2.237  25.433  1.00  0.00     0.154 C 
BRANCH   4   5
HETATM    5  C2  UNL     1      32.172  -1.004  24.751  1.00  0.00     0.021 C 
HETATM    6  C1  UNL     1      31.269  -0.615  23.580  1.00  0.00     0.007 C 
ENDBRANCH   4   5
BRANCH   4   7
HETATM    7  S1  UNL     1      31.314  -1.861  27.122  1.00  0.00    -0.148 SA
BRANCH   7   8
HETATM    8  C4  UNL     1      31.035  -0.108  27.479  1.00  0.00     0.056 C 
HETATM    9  C5  UNL     1      32.330   0.353  28.172  1.00  0.00    -0.004 C 
HETATM   10  C6  UNL     1      32.571  -0.367  29.451  1.00  0.00     0.011 C 
HETATM   11  C7  UNL     1      32.208   1.835  28.266  1.00  0.00     0.005 C 
HETATM   12  C8  UNL     1      31.100   2.176  29.187  1.00  0.00     0.001 C 
HETATM   13  C9  UNL     1      30.067   1.122  29.441  1.00  0.00     0.006 C 
HETATM   14  C10 UNL     1      29.836   0.109  28.410  1.00  0.00     0.008 C 
BRANCH  14  15
HETATM   15  C11 UNL     1      28.604   0.161  27.591  1.00  0.00    -0.040 C 
HETATM   16  C12 UNL     1      29.058   0.405  26.130  1.00  0.00     0.015 C 
HETATM   17  C13 UNL     1      27.754   1.410  27.903  1.00  0.00     0.015 C 
BRANCH  15  18
HETATM   18  C14 UNL     1      27.673  -0.973  27.541  1.00  0.00    -0.015 C 
HETATM   19  C15 UNL     1      26.265  -0.737  27.991  1.00  0.00     0.010 C 
HETATM   20  C16 UNL     1      27.722  -1.905  26.368  1.00  0.00     0.010 C 
ENDBRANCH  15  18
ENDBRANCH  14  15
ENDBRANCH   7   8
ENDBRANCH   4   7
ENDBRANCH   1   4
BRANCH   3  21
HETATM   21  C18 UNL     1      33.448  -4.032  22.688  1.00  0.00     0.291 C 
HETATM   22  C19 UNL     1      33.948  -2.885  21.836  1.00  0.00     0.261 C 
HETATM   23  O2  UNL     1      34.523  -1.829  22.139  1.00  0.00    -0.270 OA
HETATM   24  N2  UNL     1      33.499  -3.528  20.675  1.00  0.00    -0.314 N 
HETATM   25  C20 UNL     1      33.399  -3.804  19.268  1.00  0.00     0.221 C 
HETATM   26  C26 UNL     1      32.593  -4.332  21.521  1.00  0.00     0.196 C 
HETATM   27  C22 UNL     1      32.066  -3.421  18.731  1.00  0.00    -0.016 C 
HETATM   28  C23 UNL     1      32.018  -3.192  17.432  1.00  0.00     0.140 C 
HETATM   29  C25 UNL     1      30.821  -3.254  19.509  1.00  0.00     0.115 C 
HETATM   30  S2  UNL     1      31.004  -3.497  21.293  1.00  0.00    -0.135 SA
BRANCH  25  31
HETATM   31  C21 UNL     1      33.848  -5.145  18.963  1.00  0.00     0.201 C 
HETATM   32  O3  UNL     1      34.852  -5.614  19.617  1.00  0.00    -0.646 OA
HETATM   33  O4  UNL     1      33.309  -6.007  18.022  1.00  0.00    -0.646 OA
ENDBRANCH  25  31
BRANCH  28  34
HETATM   34  O5  UNL     1      33.093  -3.286  16.590  1.00  0.00    -0.368 OA
HETATM   35  C24 UNL     1      33.129  -4.013  15.402  1.00  0.00     0.208 C 
ENDBRANCH  28  34
ENDBRANCH   3  21
TORSDOF 9
ENDMDL
MODEL 3
REMARK VINA RESULT: -7.379130606      1.562      2.192
REMARK  9 active torsions:
REMARK  status: ('A' for Active; 'I' for Inactive)
REMARK    1  A    between atoms: C2_2  and  C3_3 
REMARK    2  A    between atoms: C3_3  and  S1_4 
REMARK    3  A    between atoms: C3_3  and  C17_18 
REMARK    4  A    between atoms: S1_4  and  C4_5 
REMARK    5  A    between atoms: C10_11  and  C11_12 
REMARK    6  A    between atoms: C11_12  and  C14_15 
REMARK       I    between atoms: C17_18  and  N1_20 
REMARK    7  A    between atoms: N1_20  and  C18_21 
REMARK    8  A    between atoms: C20_25  and  C21_26 
REMARK    9  A    between atoms: C23_30  and  O5_31 
ROOT
HETATM    1  C17 UNL     1      36.411   0.191  17.165  1.00  0.00     0.301 C 
HETATM    2  O1  UNL     1      35.685   0.895  16.431  1.00  0.00    -0.256 OA
HETATM    3  N1  UNL     1      37.637  -0.364  16.809  1.00  0.00    -0.396 NA
ENDROOT
BRANCH   1   4
HETATM    4  C3  UNL     1      35.831  -0.024  18.546  1.00  0.00     0.154 C 
BRANCH   4   5
HETATM    5  C2  UNL     1      36.817   0.544  19.539  1.00  0.00     0.021 C 
HETATM    6  C1  UNL     1      36.622   2.056  19.661  1.00  0.00     0.007 C 
ENDBRANCH   4   5
BRANCH   4   7
HETATM    7  S1  UNL     1      35.508  -1.701  18.963  1.00  0.00    -0.148 SA
BRANCH   7   8
HETATM    8  C4  UNL     1      34.016  -1.974  19.953  1.00  0.00     0.056 C 
HETATM    9  C5  UNL     1      34.532  -2.097  21.398  1.00  0.00    -0.004 C 
HETATM   10  C6  UNL     1      35.445  -3.258  21.573  1.00  0.00     0.011 C 
HETATM   11  C7  UNL     1      33.306  -2.092  22.245  1.00  0.00     0.005 C 
HETATM   12  C8  UNL     1      32.524  -3.320  21.977  1.00  0.00     0.001 C 
HETATM   13  C9  UNL     1      32.780  -4.032  20.684  1.00  0.00     0.006 C 
HETATM   14  C10 UNL     1      33.279  -3.255  19.547  1.00  0.00     0.008 C 
BRANCH  14  15
HETATM   15  C11 UNL     1      32.376  -2.945  18.416  1.00  0.00    -0.040 C 
HETATM   16  C12 UNL     1      32.173  -4.272  17.641  1.00  0.00     0.015 C 
HETATM   17  C13 UNL     1      33.050  -2.034  17.370  1.00  0.00     0.015 C 
BRANCH  15  18
HETATM   18  C14 UNL     1      31.033  -2.398  18.639  1.00  0.00    -0.015 C 
HETATM   19  C15 UNL     1      30.379  -1.676  17.502  1.00  0.00     0.010 C 
HETATM   20  C16 UNL     1      30.038  -3.204  19.418  1.00  0.00     0.010 C 
ENDBRANCH  15  18
ENDBRANCH  14  15
ENDBRANCH   7   8
ENDBRANCH   4   7
ENDBRANCH   1   4
BRANCH   3  21
HETATM   21  C18 UNL     1      38.814  -0.887  16.443  1.00  0.00     0.291 C 
HETATM   22  C19 UNL     1      39.551  -0.119  15.365  1.00  0.00     0.261 C 
HETATM   23  O2  UNL     1      39.584   1.091  15.100  1.00  0.00    -0.270 OA
HETATM   24  N2  UNL     1      40.112  -1.307  14.877  1.00  0.00    -0.314 N 
HETATM   25  C20 UNL     1      41.026  -2.134  14.140  1.00  0.00     0.221 C 
HETATM   26  C26 UNL     1      39.027  -2.048  15.554  1.00  0.00     0.196 C 
HETATM   27  C22 UNL     1      40.356  -2.801  12.993  1.00  0.00    -0.016 C 
HETATM   28  C23 UNL     1      41.151  -3.187  12.012  1.00  0.00     0.140 C 
HETATM   29  C25 UNL     1      38.906  -3.045  12.843  1.00  0.00     0.115 C 
HETATM   30  S2  UNL     1      37.888  -2.398  14.192  1.00  0.00    -0.135 SA
BRANCH  25  31
HETATM   31  C21 UNL     1      41.784  -2.994  15.024  1.00  0.00     0.201 C 
HETATM   32  O3  UNL     1      42.853  -2.523  15.563  1.00  0.00    -0.646 OA
HETATM   33  O4  UNL     1      41.485  -4.303  15.365  1.00  0.00    -0.646 OA
ENDBRANCH  25  31
BRANCH  28  34
HETATM   34  O5  UNL     1      42.508  -3.009  12.001  1.00  0.00    -0.368 OA
HETATM   35  C24 UNL     1      43.178  -1.929  11.429  1.00  0.00     0.208 C 
ENDBRANCH  28  34
ENDBRANCH   3  21
TORSDOF 9
ENDMDL
MODEL 4
REMARK VINA RESULT: -7.272367143      4.271      7.032
REMARK  9 active torsions:
REMARK  status: ('A' for Active; 'I' for Inactive)
REMARK    1  A    between atoms: C2_2  and  C3_3 
REMARK    2  A    between atoms: C3_3  and  S1_4 
REMARK    3  A    between atoms: C3_3  and  C17_18 
REMARK    4  A    between atoms: S1_4  and  C4_5 
REMARK    5  A    between atoms: C10_11  and  C11_12 
REMARK    6  A    between atoms: C11_12  and  C14_15 
REMARK       I    between atoms: C17_18  and  N1_20 
REMARK    7  A    between atoms: N1_20  and  C18_21 
REMARK    8  A    between atoms: C20_25  and  C21_26 
REMARK    9  A    between atoms: C23_30  and  O5_31 
ROOT
HETATM    1  C17 UNL     1      36.894   0.500  16.650  1.00  0.00     0.301 C 
HETATM    2  O1  UNL     1      35.651   0.425  16.749  1.00  0.00    -0.256 OA
HETATM    3  N1  UNL     1      37.752  -0.548  16.330  1.00  0.00    -0.396 NA
ENDROOT
BRANCH   1   4
HETATM    4  C3  UNL     1      37.429   1.891  16.914  1.00  0.00     0.154 C 
BRANCH   4   5
HETATM    5  C2  UNL     1      38.369   1.793  18.093  1.00  0.00     0.021 C 
HETATM    6  C1  UNL     1      37.608   2.071  19.390  1.00  0.00     0.007 C 
ENDBRANCH   4   5
BRANCH   4   7
HETATM    7  S1  UNL     1      36.205   3.103  17.265  1.00  0.00    -0.148 SA
BRANCH   7   8
HETATM    8  C4  UNL     1      36.171   4.513  16.129  1.00  0.00     0.056 C 
HETATM    9  C5  UNL     1      34.956   4.246  15.222  1.00  0.00    -0.004 C 
HETATM   10  C6  UNL     1      35.108   2.994  14.432  1.00  0.00     0.011 C 
HETATM   11  C7  UNL     1      34.780   5.500  14.437  1.00  0.00     0.005 C 
HETATM   12  C8  UNL     1      35.940   5.678  13.535  1.00  0.00     0.001 C 
HETATM   13  C9  UNL     1      37.200   4.946  13.881  1.00  0.00     0.006 C 
HETATM   14  C10 UNL     1      37.446   4.606  15.284  1.00  0.00     0.008 C 
BRANCH  14  15
HETATM   15  C11 UNL     1      38.471   5.350  16.051  1.00  0.00    -0.040 C 
HETATM   16  C12 UNL     1      38.848   6.585  15.195  1.00  0.00     0.015 C 
HETATM   17  C13 UNL     1      39.801   4.574  16.144  1.00  0.00     0.015 C 
BRANCH  15  18
HETATM   18  C14 UNL     1      38.193   5.861  17.398  1.00  0.00    -0.015 C 
HETATM   19  C15 UNL     1      39.083   5.404  18.513  1.00  0.00     0.010 C 
HETATM   20  C16 UNL     1      37.803   7.299  17.566  1.00  0.00     0.010 C 
ENDBRANCH  15  18
ENDBRANCH  14  15
ENDBRANCH   7   8
ENDBRANCH   4   7
ENDBRANCH   1   4
BRANCH   3  21
HETATM   21  C18 UNL     1      38.557  -1.572  16.020  1.00  0.00     0.291 C 
HETATM   22  C19 UNL     1      40.018  -1.212  15.846  1.00  0.00     0.261 C 
HETATM   23  O2  UNL     1      40.716  -0.342  16.385  1.00  0.00    -0.270 OA
HETATM   24  N2  UNL     1      40.172  -2.227  14.892  1.00  0.00    -0.314 N 
HETATM   25  C20 UNL     1      40.872  -3.160  14.053  1.00  0.00     0.221 C 
HETATM   26  C26 UNL     1      38.708  -2.207  14.695  1.00  0.00     0.196 C 
HETATM   27  C22 UNL     1      40.767  -2.788  12.617  1.00  0.00    -0.016 C 
HETATM   28  C23 UNL     1      41.713  -3.268  11.832  1.00  0.00     0.140 C 
HETATM   29  C25 UNL     1      39.732  -1.928  12.006  1.00  0.00     0.115 C 
HETATM   30  S2  UNL     1      38.533  -1.241  13.175  1.00  0.00    -0.135 SA
BRANCH  25  31
HETATM   31  C21 UNL     1      40.527  -4.525  14.386  1.00  0.00     0.201 C 
HETATM   32  O3  UNL     1      41.027  -5.036  15.455  1.00  0.00    -0.646 OA
HETATM   33  O4  UNL     1      39.699  -5.371  13.665  1.00  0.00    -0.646 OA
ENDBRANCH  25  31
BRANCH  28  34
HETATM   34  O5  UNL     1      42.745  -4.058  12.259  1.00  0.00    -0.368 OA
HETATM   35  C24 UNL     1      44.084  -3.903  11.905  1.00  0.00     0.208 C 
ENDBRANCH  28  34
ENDBRANCH   3  21
TORSDOF 9
ENDMDL
MODEL 5
REMARK VINA RESULT: -6.979790332      3.553      6.687
REMARK  9 active torsions:
REMARK  status: ('A' for Active; 'I' for Inactive)
REMARK    1  A    between atoms: C2_2  and  C3_3 
REMARK    2  A    between atoms: C3_3  and  S1_4 
REMARK    3  A    between atoms: C3_3  and  C17_18 
REMARK    4  A    between atoms: S1_4  and  C4_5 
REMARK    5  A    between atoms: C10_11  and  C11_12 
REMARK    6  A    between atoms: C11_12  and  C14_15 
REMARK       I    between atoms: C17_18  and  N1_20 
REMARK    7  A    between atoms: N1_20  and  C18_21 
REMARK    8  A    between atoms: C20_25  and  C21_26 
REMARK    9  A    between atoms: C23_30  and  O5_31 
ROOT
HETATM    1  C17 UNL     1      36.822   0.529  16.813  1.00  0.00     0.301 C 
HETATM    2  O1  UNL     1      35.738   0.790  16.248  1.00  0.00    -0.256 OA
HETATM    3  N1  UNL     1      37.673  -0.525  16.497  1.00  0.00    -0.396 NA
ENDROOT
BRANCH   1   4
HETATM    4  C3  UNL     1      37.162   1.498  17.925  1.00  0.00     0.154 C 
BRANCH   4   5
HETATM    5  C2  UNL     1      36.193   1.240  19.055  1.00  0.00     0.021 C 
HETATM    6  C1  UNL     1      36.410  -0.167  19.615  1.00  0.00     0.007 C 
ENDBRANCH   4   5
BRANCH   4   7
HETATM    7  S1  UNL     1      37.075   3.197  17.481  1.00  0.00    -0.148 SA
BRANCH   7   8
HETATM    8  C4  UNL     1      38.558   3.859  16.678  1.00  0.00     0.056 C 
HETATM    9  C5  UNL     1      39.125   4.867  17.693  1.00  0.00    -0.004 C 
HETATM   10  C6  UNL     1      38.183   5.986  17.962  1.00  0.00     0.011 C 
HETATM   11  C7  UNL     1      40.459   5.249  17.150  1.00  0.00     0.005 C 
HETATM   12  C8  UNL     1      40.276   5.993  15.884  1.00  0.00     0.001 C 
HETATM   13  C9  UNL     1      38.974   5.815  15.163  1.00  0.00     0.006 C 
HETATM   14  C10 UNL     1      38.234   4.567  15.359  1.00  0.00     0.008 C 
BRANCH  14  15
HETATM   15  C11 UNL     1      38.193   3.559  14.276  1.00  0.00    -0.040 C 
HETATM   16  C12 UNL     1      39.138   2.410  14.711  1.00  0.00     0.015 C 
HETATM   17  C13 UNL     1      38.851   4.075  12.979  1.00  0.00     0.015 C 
BRANCH  15  18
HETATM   18  C14 UNL     1      36.935   2.918  13.876  1.00  0.00    -0.015 C 
HETATM   19  C15 UNL     1      35.673   3.707  14.032  1.00  0.00     0.010 C 
HETATM   20  C16 UNL     1      36.906   2.082  12.632  1.00  0.00     0.010 C 
ENDBRANCH  15  18
ENDBRANCH  14  15
ENDBRANCH   7   8
ENDBRANCH   4   7
ENDBRANCH   1   4
BRANCH   3  21
HETATM   21  C18 UNL     1      38.477  -1.547  16.174  1.00  0.00     0.291 C 
HETATM   22  C19 UNL     1      39.937  -1.186  15.997  1.00  0.00     0.261 C 
HETATM   23  O2  UNL     1      40.638  -0.321  16.541  1.00  0.00    -0.270 OA
HETATM   24  N2  UNL     1      40.087  -2.192  15.032  1.00  0.00    -0.314 N 
HETATM   25  C20 UNL     1      40.783  -3.117  14.182  1.00  0.00     0.221 C 
HETATM   26  C26 UNL     1      38.622  -2.170  14.842  1.00  0.00     0.196 C 
HETATM   27  C22 UNL     1      40.671  -2.732  12.751  1.00  0.00    -0.016 C 
HETATM   28  C23 UNL     1      41.613  -3.205  11.956  1.00  0.00     0.140 C 
HETATM   29  C25 UNL     1      39.634  -1.866  12.152  1.00  0.00     0.115 C 
HETATM   30  S2  UNL     1      38.440  -1.189  13.333  1.00  0.00    -0.135 SA
BRANCH  25  31
HETATM   31  C21 UNL     1      40.439  -4.486  14.504  1.00  0.00     0.201 C 
HETATM   32  O3  UNL     1      40.904  -4.991  15.591  1.00  0.00    -0.646 OA
HETATM   33  O4  UNL     1      39.645  -5.339  13.755  1.00  0.00    -0.646 OA
ENDBRANCH  25  31
BRANCH  28  34
HETATM   34  O5  UNL     1      42.647  -4.000  12.372  1.00  0.00    -0.368 OA
HETATM   35  C24 UNL     1      43.993  -3.802  12.068  1.00  0.00     0.208 C 
ENDBRANCH  28  34
ENDBRANCH   3  21
TORSDOF 9
ENDMDL
