MODEL 1
REMARK VINA RESULT: -7.905493849      0.000      0.000
REMARK  9 active torsions:
REMARK  status: ('A' for Active; 'I' for Inactive)
REMARK    1  A    between atoms: O1_2  and  C2_3 
REMARK    2  A    between atoms: C5_6  and  C6_7 
REMARK    3  A    between atoms: C6_7  and  O2_8 
REMARK    4  A    between atoms: C7_10  and  C8_11 
REMARK    5  A    between atoms: C7_10  and  C19_26 
REMARK    6  A    between atoms: C9_12  and  C10_13 
REMARK    7  A    between atoms: C12_15  and  O3_16 
REMARK    8  A    between atoms: C14_18  and  O4_19 
REMARK    9  A    between atoms: C16_21  and  O5_22 
ROOT
HETATM    1  C6  UNL     1     -19.311  79.863  32.746  1.00  0.00     0.086 C 
HETATM    2  C7  UNL     1     -20.491  79.113  32.998  1.00  0.00     0.000 C 
ENDROOT
BRANCH   2   3
HETATM    3  C8  UNL     1     -20.283  77.710  33.505  1.00  0.00     0.015 C 
HETATM    4  C9  UNL     1     -20.966  77.078  34.382  1.00  0.00     0.014 C 
BRANCH   4   5
HETATM    5  C10 UNL     1     -20.664  75.687  34.796  1.00  0.00    -0.013 A 
HETATM    6  C11 UNL     1     -19.830  75.402  35.864  1.00  0.00     0.052 A 
HETATM    7  C12 UNL     1     -19.616  74.073  36.240  1.00  0.00     0.105 A 
HETATM    8  C14 UNL     1     -20.202  73.040  35.583  1.00  0.00     0.136 A 
HETATM    9  C16 UNL     1     -21.033  73.331  34.515  1.00  0.00     0.122 A 
HETATM   10  C18 UNL     1     -21.264  74.646  34.125  1.00  0.00     0.057 A 
HETATM   11 BR1  UNL     1     -22.426  75.009  32.634  1.00  0.00    -0.047 Br
BRANCH   7  12
HETATM   12  O3  UNL     1     -18.759  73.836  37.331  1.00  0.00    -0.353 OA
HETATM   13  C13 UNL     1     -17.872  74.779  37.844  1.00  0.00     0.210 C 
ENDBRANCH   7  12
BRANCH   8  14
HETATM   14  O4  UNL     1     -19.953  71.744  35.998  1.00  0.00    -0.351 OA
HETATM   15  C15 UNL     1     -18.915  70.920  35.566  1.00  0.00     0.210 C 
ENDBRANCH   8  14
BRANCH   9  16
HETATM   16  O5  UNL     1     -21.638  72.312  33.830  1.00  0.00    -0.352 OA
HETATM   17  C17 UNL     1     -22.832  71.746  34.275  1.00  0.00     0.210 C 
ENDBRANCH   9  16
ENDBRANCH   4   5
ENDBRANCH   2   3
BRANCH   2  18
HETATM   18  C19 UNL     1     -21.750  79.498  33.171  1.00  0.00    -0.065 C 
HETATM   19  C20 UNL     1     -22.494  80.349  34.116  1.00  0.00     0.036 C 
HETATM   20  C21 UNL     1     -23.263  81.282  33.185  1.00  0.00     0.025 C 
HETATM   21  C22 UNL     1     -23.545  80.467  31.963  1.00  0.00     0.086 C 
HETATM   22 CL1  UNL     1     -25.304  80.274  31.704  1.00  0.00    -0.125 Cl
HETATM   23  C23 UNL     1     -22.884  79.135  32.198  1.00  0.00     0.055 C 
ENDBRANCH   2  18
BRANCH   1  24
HETATM   24  C5  UNL     1     -19.029  81.112  32.098  1.00  0.00     0.001 A 
HETATM   25  C4  UNL     1     -17.699  81.458  31.778  1.00  0.00     0.017 A 
HETATM   26  C3  UNL     1     -17.394  82.586  31.048  1.00  0.00     0.041 A 
HETATM   27  C2  UNL     1     -18.375  83.428  30.596  1.00  0.00     0.106 A 
HETATM   28  C25 UNL     1     -19.665  83.100  30.900  1.00  0.00     0.150 A 
HETATM   29  C24 UNL     1     -19.987  81.959  31.640  1.00  0.00     0.059 A 
HETATM   30  F1  UNL     1     -20.683  83.908  30.477  1.00  0.00    -0.203 F 
BRANCH  27  31
HETATM   31  O1  UNL     1     -18.086  84.576  29.857  1.00  0.00    -0.353 OA
HETATM   32  C1  UNL     1     -18.156  84.549  28.426  1.00  0.00     0.210 C 
ENDBRANCH  27  31
ENDBRANCH   1  24
BRANCH   1  33
HETATM   33  O2  UNL     1     -18.180  79.317  33.193  1.00  0.00    -0.359 OA
ATOM     34  H2  UNL     1     -18.260  79.116  34.118  1.00  0.00     0.217 HD
ENDBRANCH   1  33
TORSDOF 9
ENDMDL
MODEL 2
REMARK VINA RESULT: -7.882817482      1.540      2.752
REMARK  9 active torsions:
REMARK  status: ('A' for Active; 'I' for Inactive)
REMARK    1  A    between atoms: O1_2  and  C2_3 
REMARK    2  A    between atoms: C5_6  and  C6_7 
REMARK    3  A    between atoms: C6_7  and  O2_8 
REMARK    4  A    between atoms: C7_10  and  C8_11 
REMARK    5  A    between atoms: C7_10  and  C19_26 
REMARK    6  A    between atoms: C9_12  and  C10_13 
REMARK    7  A    between atoms: C12_15  and  O3_16 
REMARK    8  A    between atoms: C14_18  and  O4_19 
REMARK    9  A    between atoms: C16_21  and  O5_22 
ROOT
HETATM    1  C6  UNL     1     -18.998  79.474  32.387  1.00  0.00     0.086 C 
HETATM    2  C7  UNL     1     -20.183  78.790  32.770  1.00  0.00     0.000 C 
ENDROOT
BRANCH   2   3
HETATM    3  C8  UNL     1     -19.994  77.393  33.300  1.00  0.00     0.015 C 
HETATM    4  C9  UNL     1     -20.148  76.976  34.500  1.00  0.00     0.014 C 
BRANCH   4   5
HETATM    5  C10 UNL     1     -19.936  75.565  34.900  1.00  0.00    -0.013 A 
HETATM    6  C11 UNL     1     -20.704  74.532  34.388  1.00  0.00     0.052 A 
HETATM    7  C12 UNL     1     -20.433  73.215  34.767  1.00  0.00     0.105 A 
HETATM    8  C14 UNL     1     -19.431  72.910  35.632  1.00  0.00     0.136 A 
HETATM    9  C16 UNL     1     -18.669  73.946  36.141  1.00  0.00     0.122 A 
HETATM   10  C18 UNL     1     -18.919  75.265  35.777  1.00  0.00     0.057 A 
HETATM   11 BR1  UNL     1     -17.837  76.678  36.509  1.00  0.00    -0.047 Br
BRANCH   7  12
HETATM   12  O3  UNL     1     -21.241  72.201  34.219  1.00  0.00    -0.353 OA
HETATM   13  C13 UNL     1     -22.631  72.176  34.315  1.00  0.00     0.210 C 
ENDBRANCH   7  12
BRANCH   8  14
HETATM   14  O4  UNL     1     -19.209  71.587  35.972  1.00  0.00    -0.351 OA
HETATM   15  C15 UNL     1     -18.291  70.722  35.380  1.00  0.00     0.210 C 
ENDBRANCH   8  14
BRANCH   9  16
HETATM   16  O5  UNL     1     -17.654  73.673  37.018  1.00  0.00    -0.352 OA
HETATM   17  C17 UNL     1     -16.376  73.343  36.568  1.00  0.00     0.210 C 
ENDBRANCH   9  16
ENDBRANCH   4   5
ENDBRANCH   2   3
BRANCH   2  18
HETATM   18  C19 UNL     1     -21.401  79.241  33.045  1.00  0.00    -0.065 C 
HETATM   19  C20 UNL     1     -22.010  80.173  34.009  1.00  0.00     0.036 C 
HETATM   20  C21 UNL     1     -22.832  81.090  33.107  1.00  0.00     0.025 C 
HETATM   21  C22 UNL     1     -23.269  80.226  31.967  1.00  0.00     0.086 C 
HETATM   22 CL1  UNL     1     -25.052  80.101  31.895  1.00  0.00    -0.125 Cl
HETATM   23  C23 UNL     1     -22.642  78.880  32.211  1.00  0.00     0.055 C 
ENDBRANCH   2  18
BRANCH   1  24
HETATM   24  C5  UNL     1     -18.720  80.689  31.677  1.00  0.00     0.001 A 
HETATM   25  C4  UNL     1     -19.720  81.286  30.880  1.00  0.00     0.017 A 
HETATM   26  C3  UNL     1     -19.539  82.514  30.280  1.00  0.00     0.041 A 
HETATM   27  C2  UNL     1     -18.373  83.214  30.432  1.00  0.00     0.106 A 
HETATM   28  C25 UNL     1     -17.400  82.645  31.202  1.00  0.00     0.150 A 
HETATM   29  C24 UNL     1     -17.571  81.401  31.816  1.00  0.00     0.059 A 
HETATM   30  F1  UNL     1     -16.215  83.301  31.384  1.00  0.00    -0.203 F 
BRANCH  27  31
HETATM   31  O1  UNL     1     -18.170  84.458  29.831  1.00  0.00    -0.353 OA
HETATM   32  C1  UNL     1     -18.159  84.576  28.403  1.00  0.00     0.210 C 
ENDBRANCH  27  31
ENDBRANCH   1  24
BRANCH   1  33
HETATM   33  O2  UNL     1     -17.856  78.885  32.747  1.00  0.00    -0.359 OA
ATOM     34  H2  UNL     1     -17.419  79.405  33.411  1.00  0.00     0.217 HD
ENDBRANCH   1  33
TORSDOF 9
ENDMDL
MODEL 3
REMARK VINA RESULT: -7.854292178      4.093      9.664
REMARK  9 active torsions:
REMARK  status: ('A' for Active; 'I' for Inactive)
REMARK    1  A    between atoms: O1_2  and  C2_3 
REMARK    2  A    between atoms: C5_6  and  C6_7 
REMARK    3  A    between atoms: C6_7  and  O2_8 
REMARK    4  A    between atoms: C7_10  and  C8_11 
REMARK    5  A    between atoms: C7_10  and  C19_26 
REMARK    6  A    between atoms: C9_12  and  C10_13 
REMARK    7  A    between atoms: C12_15  and  O3_16 
REMARK    8  A    between atoms: C14_18  and  O4_19 
REMARK    9  A    between atoms: C16_21  and  O5_22 
ROOT
HETATM    1  C6  UNL     1     -21.302  74.697  33.891  1.00  0.00     0.086 C 
HETATM    2  C7  UNL     1     -20.688  75.681  34.713  1.00  0.00     0.000 C 
ENDROOT
BRANCH   2   3
HETATM    3  C8  UNL     1     -21.118  77.103  34.467  1.00  0.00     0.015 C 
HETATM    4  C9  UNL     1     -20.664  77.927  33.601  1.00  0.00     0.014 C 
BRANCH   4   5
HETATM    5  C10 UNL     1     -21.176  79.310  33.451  1.00  0.00    -0.013 A 
HETATM    6  C11 UNL     1     -22.432  79.681  33.899  1.00  0.00     0.052 A 
HETATM    7  C12 UNL     1     -22.848  81.009  33.773  1.00  0.00     0.105 A 
HETATM    8  C14 UNL     1     -22.053  81.959  33.216  1.00  0.00     0.136 A 
HETATM    9  C16 UNL     1     -20.799  81.581  32.768  1.00  0.00     0.122 A 
HETATM   10  C18 UNL     1     -20.363  80.265  32.886  1.00  0.00     0.057 A 
HETATM   11 BR1  UNL     1     -18.613  79.780  32.249  1.00  0.00    -0.047 Br
BRANCH   7  12
HETATM   12  O3  UNL     1     -24.133  81.336  34.244  1.00  0.00    -0.353 OA
HETATM   13  C13 UNL     1     -25.305  81.121  33.522  1.00  0.00     0.210 C 
ENDBRANCH   7  12
BRANCH   8  14
HETATM   14  O4  UNL     1     -22.517  83.258  33.115  1.00  0.00    -0.351 OA
HETATM   15  C15 UNL     1     -22.281  84.295  34.016  1.00  0.00     0.210 C 
ENDBRANCH   8  14
BRANCH   9  16
HETATM   16  O5  UNL     1     -19.974  82.513  32.199  1.00  0.00    -0.352 OA
HETATM   17  C17 UNL     1     -20.095  82.867  30.856  1.00  0.00     0.210 C 
ENDBRANCH   9  16
ENDBRANCH   4   5
ENDBRANCH   2   3
BRANCH   2  18
HETATM   18  C19 UNL     1     -20.039  75.574  35.866  1.00  0.00    -0.065 C 
HETATM   19  C20 UNL     1     -20.107  74.719  37.063  1.00  0.00     0.036 C 
HETATM   20  C21 UNL     1     -18.664  74.250  37.218  1.00  0.00     0.025 C 
HETATM   21  C22 UNL     1     -17.829  75.380  36.704  1.00  0.00     0.086 C 
HETATM   22 CL1  UNL     1     -16.772  76.041  37.987  1.00  0.00    -0.125 Cl
HETATM   23  C23 UNL     1     -18.804  76.420  36.219  1.00  0.00     0.055 C 
ENDBRANCH   2  18
BRANCH   1  24
HETATM   24  C5  UNL     1     -21.069  73.303  33.643  1.00  0.00     0.001 A 
HETATM   25  C4  UNL     1     -19.937  72.897  32.905  1.00  0.00     0.017 A 
HETATM   26  C3  UNL     1     -19.606  71.568  32.748  1.00  0.00     0.041 A 
HETATM   27  C2  UNL     1     -20.368  70.575  33.304  1.00  0.00     0.106 A 
HETATM   28  C25 UNL     1     -21.465  70.959  34.020  1.00  0.00     0.150 A 
HETATM   29  C24 UNL     1     -21.810  72.304  34.187  1.00  0.00     0.059 A 
HETATM   30  F1  UNL     1     -22.262  70.009  34.595  1.00  0.00    -0.203 F 
BRANCH  27  31
HETATM   31  O1  UNL     1     -20.052  69.224  33.155  1.00  0.00    -0.353 OA
HETATM   32  C1  UNL     1     -18.714  68.828  32.825  1.00  0.00     0.210 C 
ENDBRANCH  27  31
ENDBRANCH   1  24
BRANCH   1  33
HETATM   33  O2  UNL     1     -22.334  75.123  33.162  1.00  0.00    -0.359 OA
ATOM     34  H2  UNL     1     -22.532  76.027  33.378  1.00  0.00     0.217 HD
ENDBRANCH   1  33
TORSDOF 9
ENDMDL
MODEL 4
REMARK VINA RESULT: -7.696034702      7.537     10.615
REMARK  9 active torsions:
REMARK  status: ('A' for Active; 'I' for Inactive)
REMARK    1  A    between atoms: O1_2  and  C2_3 
REMARK    2  A    between atoms: C5_6  and  C6_7 
REMARK    3  A    between atoms: C6_7  and  O2_8 
REMARK    4  A    between atoms: C7_10  and  C8_11 
REMARK    5  A    between atoms: C7_10  and  C19_26 
REMARK    6  A    between atoms: C9_12  and  C10_13 
REMARK    7  A    between atoms: C12_15  and  O3_16 
REMARK    8  A    between atoms: C14_18  and  O4_19 
REMARK    9  A    between atoms: C16_21  and  O5_22 
ROOT
HETATM    1  C6  UNL     1     -19.457  71.601  34.109  1.00  0.00     0.086 C 
HETATM    2  C7  UNL     1     -19.023  70.352  33.588  1.00  0.00     0.000 C 
ENDROOT
BRANCH   2   3
HETATM    3  C8  UNL     1     -19.880  69.759  32.501  1.00  0.00     0.015 C 
HETATM    4  C9  UNL     1     -20.097  68.524  32.251  1.00  0.00     0.014 C 
BRANCH   4   5
HETATM    5  C10 UNL     1     -20.972  68.061  31.148  1.00  0.00    -0.013 A 
HETATM    6  C11 UNL     1     -22.119  68.745  30.784  1.00  0.00     0.052 A 
HETATM    7  C12 UNL     1     -22.884  68.289  29.706  1.00  0.00     0.105 A 
HETATM    8  C14 UNL     1     -22.536  67.184  28.998  1.00  0.00     0.136 A 
HETATM    9  C16 UNL     1     -21.390  66.504  29.368  1.00  0.00     0.122 A 
HETATM   10  C18 UNL     1     -20.611  66.941  30.436  1.00  0.00     0.057 A 
HETATM   11 BR1  UNL     1     -19.024  65.966  30.919  1.00  0.00    -0.047 Br
BRANCH   7  12
HETATM   12  O3  UNL     1     -24.042  69.018  29.376  1.00  0.00    -0.353 OA
HETATM   13  C13 UNL     1     -24.044  70.150  28.565  1.00  0.00     0.210 C 
ENDBRANCH   7  12
BRANCH   8  14
HETATM   14  O4  UNL     1     -23.332  66.778  27.941  1.00  0.00    -0.351 OA
HETATM   15  C15 UNL     1     -24.374  65.854  27.994  1.00  0.00     0.210 C 
ENDBRANCH   8  14
BRANCH   9  16
HETATM   16  O5  UNL     1     -21.013  65.384  28.677  1.00  0.00    -0.352 OA
HETATM   17  C17 UNL     1     -20.293  65.474  27.486  1.00  0.00     0.210 C 
ENDBRANCH   9  16
ENDBRANCH   4   5
ENDBRANCH   2   3
BRANCH   2  18
HETATM   18  C19 UNL     1     -17.845  69.744  33.648  1.00  0.00    -0.065 C 
HETATM   19  C20 UNL     1     -17.212  68.705  34.479  1.00  0.00     0.036 C 
HETATM   20  C21 UNL     1     -16.673  67.730  33.436  1.00  0.00     0.025 C 
HETATM   21  C22 UNL     1     -16.319  68.579  32.256  1.00  0.00     0.086 C 
HETATM   22 CL1  UNL     1     -14.571  68.486  31.890  1.00  0.00    -0.125 Cl
HETATM   23  C23 UNL     1     -16.720  69.982  32.626  1.00  0.00     0.055 C 
ENDBRANCH   2  18
BRANCH   1  24
HETATM   24  C5  UNL     1     -19.087  72.406  35.237  1.00  0.00     0.001 A 
HETATM   25  C4  UNL     1     -17.725  72.593  35.555  1.00  0.00     0.017 A 
HETATM   26  C3  UNL     1     -17.319  73.455  36.551  1.00  0.00     0.041 A 
HETATM   27  C2  UNL     1     -18.226  74.175  37.281  1.00  0.00     0.106 A 
HETATM   28  C25 UNL     1     -19.546  74.001  36.980  1.00  0.00     0.150 A 
HETATM   29  C24 UNL     1     -19.970  73.130  35.972  1.00  0.00     0.059 A 
HETATM   30  F1  UNL     1     -20.494  74.693  37.680  1.00  0.00    -0.203 F 
BRANCH  27  31
HETATM   31  O1  UNL     1     -17.835  75.052  38.295  1.00  0.00    -0.353 OA
HETATM   32  C1  UNL     1     -17.115  76.248  37.976  1.00  0.00     0.210 C 
ENDBRANCH  27  31
ENDBRANCH   1  24
BRANCH   1  33
HETATM   33  O2  UNL     1     -20.437  72.196  33.426  1.00  0.00    -0.359 OA
ATOM     34  H2  UNL     1     -21.139  72.444  34.016  1.00  0.00     0.217 HD
ENDBRANCH   1  33
TORSDOF 9
ENDMDL
MODEL 5
REMARK VINA RESULT: -7.641015065      1.963      3.283
REMARK  9 active torsions:
REMARK  status: ('A' for Active; 'I' for Inactive)
REMARK    1  A    between atoms: O1_2  and  C2_3 
REMARK    2  A    between atoms: C5_6  and  C6_7 
REMARK    3  A    between atoms: C6_7  and  O2_8 
REMARK    4  A    between atoms: C7_10  and  C8_11 
REMARK    5  A    between atoms: C7_10  and  C19_26 
REMARK    6  A    between atoms: C9_12  and  C10_13 
REMARK    7  A    between atoms: C12_15  and  O3_16 
REMARK    8  A    between atoms: C14_18  and  O4_19 
REMARK    9  A    between atoms: C16_21  and  O5_22 
ROOT
HETATM    1  C6  UNL     1     -19.797  78.736  31.695  1.00  0.00     0.086 C 
HETATM    2  C7  UNL     1     -21.104  78.400  32.139  1.00  0.00     0.000 C 
ENDROOT
BRANCH   2   3
HETATM    3  C8  UNL     1     -21.385  76.930  32.303  1.00  0.00     0.015 C 
HETATM    4  C9  UNL     1     -21.650  76.291  33.379  1.00  0.00     0.014 C 
BRANCH   4   5
HETATM    5  C10 UNL     1     -21.917  74.833  33.412  1.00  0.00    -0.013 A 
HETATM    6  C11 UNL     1     -22.783  74.224  32.519  1.00  0.00     0.052 A 
HETATM    7  C12 UNL     1     -22.963  72.839  32.565  1.00  0.00     0.105 A 
HETATM    8  C14 UNL     1     -22.313  72.062  33.470  1.00  0.00     0.136 A 
HETATM    9  C16 UNL     1     -21.451  72.677  34.360  1.00  0.00     0.122 A 
HETATM   10  C18 UNL     1     -21.253  74.054  34.331  1.00  0.00     0.057 A 
HETATM   11 BR1  UNL     1     -20.047  74.871  35.588  1.00  0.00    -0.047 Br
BRANCH   7  12
HETATM   12  O3  UNL     1     -23.854  72.268  31.637  1.00  0.00    -0.353 OA
HETATM   13  C13 UNL     1     -24.007  72.716  30.327  1.00  0.00     0.210 C 
ENDBRANCH   7  12
BRANCH   8  14
HETATM   14  O4  UNL     1     -22.532  70.696  33.470  1.00  0.00    -0.351 OA
HETATM   15  C15 UNL     1     -21.811  69.740  32.758  1.00  0.00     0.210 C 
ENDBRANCH   8  14
BRANCH   9  16
HETATM   16  O5  UNL     1     -20.783  71.922  35.286  1.00  0.00    -0.352 OA
HETATM   17  C17 UNL     1     -19.505  71.426  35.032  1.00  0.00     0.210 C 
ENDBRANCH   9  16
ENDBRANCH   4   5
ENDBRANCH   2   3
BRANCH   2  18
HETATM   18  C19 UNL     1     -22.039  79.130  32.736  1.00  0.00    -0.065 C 
HETATM   19  C20 UNL     1     -22.143  79.962  33.947  1.00  0.00     0.036 C 
HETATM   20  C21 UNL     1     -22.718  81.267  33.403  1.00  0.00     0.025 C 
HETATM   21  C22 UNL     1     -23.587  80.861  32.255  1.00  0.00     0.086 C 
HETATM   22 CL1  UNL     1     -25.294  81.311  32.542  1.00  0.00    -0.125 Cl
HETATM   23  C23 UNL     1     -23.435  79.368  32.135  1.00  0.00     0.055 C 
ENDBRANCH   2  18
BRANCH   1  24
HETATM   24  C5  UNL     1     -19.169  79.939  31.230  1.00  0.00     0.001 A 
HETATM   25  C4  UNL     1     -19.822  80.756  30.282  1.00  0.00     0.017 A 
HETATM   26  C3  UNL     1     -19.315  81.979  29.900  1.00  0.00     0.041 A 
HETATM   27  C2  UNL     1     -18.146  82.460  30.426  1.00  0.00     0.106 A 
HETATM   28  C25 UNL     1     -17.508  81.677  31.344  1.00  0.00     0.150 A 
HETATM   29  C24 UNL     1     -18.012  80.435  31.740  1.00  0.00     0.059 A 
HETATM   30  F1  UNL     1     -16.335  82.107  31.899  1.00  0.00    -0.203 F 
BRANCH  27  31
HETATM   31  O1  UNL     1     -17.615  83.695  30.050  1.00  0.00    -0.353 OA
HETATM   32  C1  UNL     1     -17.781  84.174  28.710  1.00  0.00     0.210 C 
ENDBRANCH  27  31
ENDBRANCH   1  24
BRANCH   1  33
HETATM   33  O2  UNL     1     -18.919  77.732  31.690  1.00  0.00    -0.359 OA
ATOM     34  H2  UNL     1     -19.251  77.008  32.208  1.00  0.00     0.217 HD
ENDBRANCH   1  33
TORSDOF 9
ENDMDL
