MODEL 1
REMARK VINA RESULT: -8.723781064      0.000      0.000
REMARK  8 active torsions:
REMARK  status: ('A' for Active; 'I' for Inactive)
REMARK    1  A    between atoms: O1_2  and  C2_3 
REMARK    2  A    between atoms: C6_8  and  C7_9 
REMARK    3  A    between atoms: C7_9  and  C8_10 
REMARK    4  A    between atoms: C8_10  and  C9_11 
REMARK    5  A    between atoms: C9_11  and  C10_12 
REMARK    6  A    between atoms: C15_19  and  O2_20 
REMARK    7  A    between atoms: O2_20  and  C16_21 
REMARK    8  A    between atoms: C25_32  and  C26_33 
ROOT
HETATM    1  C7  UNL     1     -19.401  73.417  34.589  1.00  0.00     0.028 C 
HETATM    2  C21 UNL     1     -19.881  73.084  35.999  1.00  0.00     0.098 C 
HETATM    3  C22 UNL     1     -19.587  74.150  36.973  1.00  0.00     0.135 C 
HETATM    4  O3  UNL     1     -20.449  74.702  37.663  1.00  0.00    -0.298 OA
HETATM    5  C23 UNL     1     -18.172  74.561  37.100  1.00  0.00     0.162 C 
HETATM    6  C24 UNL     1     -17.626  74.744  35.744  1.00  0.00     0.167 C 
HETATM    7  O4  UNL     1     -16.773  75.593  35.595  1.00  0.00    -0.292 OA
HETATM    8  C25 UNL     1     -18.044  73.963  34.556  1.00  0.00     0.047 C 
ENDROOT
BRANCH   1   9
HETATM    9  C6  UNL     1     -20.408  74.399  34.084  1.00  0.00    -0.040 A 
HETATM   10  C5  UNL     1     -21.461  74.004  33.262  1.00  0.00     0.032 A 
HETATM   11  C4  UNL     1     -22.402  74.894  32.768  1.00  0.00     0.037 A 
HETATM   12  C3  UNL     1     -22.317  76.230  33.090  1.00  0.00     0.060 A 
HETATM   13 CL1  UNL     1     -23.698  74.287  31.744  1.00  0.00    -0.084 Cl
HETATM   14  C2  UNL     1     -21.290  76.656  33.899  1.00  0.00     0.070 A 
HETATM   15  C28 UNL     1     -20.368  75.751  34.375  1.00  0.00     0.045 A 
BRANCH  14  16
HETATM   16  O1  UNL     1     -21.238  78.013  34.197  1.00  0.00    -0.356 OA
HETATM   17  C1  UNL     1     -22.018  78.968  33.526  1.00  0.00     0.210 C 
ENDBRANCH  14  16
ENDBRANCH   1   9
BRANCH   1  18
HETATM   18  C8  UNL     1     -19.597  72.151  33.790  1.00  0.00     0.025 C 
BRANCH  18  19
HETATM   19  C9  UNL     1     -19.686  70.884  34.578  1.00  0.00     0.043 C 
BRANCH  19  20
HETATM   20  C10 UNL     1     -19.273  69.788  33.615  1.00  0.00    -0.021 A 
HETATM   21  C11 UNL     1     -20.141  69.436  32.601  1.00  0.00     0.033 A 
HETATM   22  C12 UNL     1     -19.815  68.411  31.742  1.00  0.00     0.036 A 
HETATM   23 CL2  UNL     1     -20.897  67.923  30.433  1.00  0.00    -0.084 Cl
HETATM   24  C13 UNL     1     -18.630  67.735  31.889  1.00  0.00     0.050 A 
HETATM   25  C14 UNL     1     -17.784  68.105  32.905  1.00  0.00     0.069 A 
HETATM   26 CL3  UNL     1     -16.319  67.183  33.099  1.00  0.00    -0.081 Cl
HETATM   27  C15 UNL     1     -18.084  69.150  33.799  1.00  0.00     0.097 A 
BRANCH  27  28
HETATM   28  O2  UNL     1     -17.172  69.465  34.794  1.00  0.00    -0.344 OA
BRANCH  28  29
HETATM   29  C16 UNL     1     -16.586  70.745  34.824  1.00  0.00     0.129 C 
HETATM   30  C17 UNL     1     -15.290  70.878  34.079  1.00  0.00     0.032 C 
HETATM   31  C18 UNL     1     -14.751  72.219  34.622  1.00  0.00     0.002 C 
HETATM   32  C19 UNL     1     -15.071  72.115  36.074  1.00  0.00     0.002 C 
HETATM   33  C20 UNL     1     -16.256  71.210  36.201  1.00  0.00     0.032 C 
ENDBRANCH  28  29
ENDBRANCH  27  28
ENDBRANCH  19  20
ENDBRANCH  18  19
ENDBRANCH   1  18
BRANCH   8  34
HETATM   34  C26 UNL     1     -17.616  74.569  33.292  1.00  0.00     0.156 C 
HETATM   35  C27 UNL     1     -17.085  73.763  32.155  1.00  0.00     0.096 C 
HETATM   36  O5  UNL     1     -17.684  75.769  33.128  1.00  0.00    -0.293 OA
ENDBRANCH   8  34
TORSDOF 8
ENDMDL
MODEL 2
REMARK VINA RESULT: -8.561788927      2.013      4.145
REMARK  8 active torsions:
REMARK  status: ('A' for Active; 'I' for Inactive)
REMARK    1  A    between atoms: O1_2  and  C2_3 
REMARK    2  A    between atoms: C6_8  and  C7_9 
REMARK    3  A    between atoms: C7_9  and  C8_10 
REMARK    4  A    between atoms: C8_10  and  C9_11 
REMARK    5  A    between atoms: C9_11  and  C10_12 
REMARK    6  A    between atoms: C15_19  and  O2_20 
REMARK    7  A    between atoms: O2_20  and  C16_21 
REMARK    8  A    between atoms: C25_32  and  C26_33 
ROOT
HETATM    1  C7  UNL     1     -18.636  73.010  35.292  1.00  0.00     0.028 C 
HETATM    2  C21 UNL     1     -20.021  73.514  35.687  1.00  0.00     0.098 C 
HETATM    3  C22 UNL     1     -19.993  74.852  36.303  1.00  0.00     0.135 C 
HETATM    4  O3  UNL     1     -20.633  75.816  35.873  1.00  0.00    -0.298 OA
HETATM    5  C23 UNL     1     -19.134  75.015  37.495  1.00  0.00     0.162 C 
HETATM    6  C24 UNL     1     -17.827  74.399  37.204  1.00  0.00     0.167 C 
HETATM    7  O4  UNL     1     -16.848  74.896  37.720  1.00  0.00    -0.292 OA
HETATM    8  C25 UNL     1     -17.629  73.218  36.332  1.00  0.00     0.047 C 
ENDROOT
BRANCH   1   9
HETATM    9  C6  UNL     1     -18.315  73.770  34.045  1.00  0.00    -0.040 A 
HETATM   10  C5  UNL     1     -17.986  73.117  32.859  1.00  0.00     0.032 A 
HETATM   11  C4  UNL     1     -17.671  73.795  31.692  1.00  0.00     0.037 A 
HETATM   12  C3  UNL     1     -17.676  75.172  31.676  1.00  0.00     0.060 A 
HETATM   13 CL1  UNL     1     -17.279  72.872  30.246  1.00  0.00    -0.084 Cl
HETATM   14  C2  UNL     1     -17.995  75.850  32.830  1.00  0.00     0.070 A 
HETATM   15  C28 UNL     1     -18.304  75.152  33.976  1.00  0.00     0.045 A 
BRANCH  14  16
HETATM   16  O1  UNL     1     -17.986  77.239  32.772  1.00  0.00    -0.356 OA
HETATM   17  C1  UNL     1     -18.360  78.047  33.857  1.00  0.00     0.210 C 
ENDBRANCH  14  16
ENDBRANCH   1   9
BRANCH   1  18
HETATM   18  C8  UNL     1     -18.837  71.571  34.879  1.00  0.00     0.025 C 
BRANCH  18  19
HETATM   19  C9  UNL     1     -20.253  71.131  34.697  1.00  0.00     0.043 C 
BRANCH  19  20
HETATM   20  C10 UNL     1     -20.209  70.102  33.585  1.00  0.00    -0.021 A 
HETATM   21  C11 UNL     1     -19.082  69.315  33.455  1.00  0.00     0.033 A 
HETATM   22  C12 UNL     1     -18.993  68.407  32.424  1.00  0.00     0.036 A 
HETATM   23 CL2  UNL     1     -17.567  67.382  32.216  1.00  0.00    -0.084 Cl
HETATM   24  C13 UNL     1     -20.019  68.279  31.523  1.00  0.00     0.050 A 
HETATM   25  C14 UNL     1     -21.130  69.072  31.675  1.00  0.00     0.069 A 
HETATM   26 CL3  UNL     1     -22.384  68.926  30.476  1.00  0.00    -0.081 Cl
HETATM   27  C15 UNL     1     -21.255  70.009  32.719  1.00  0.00     0.097 A 
BRANCH  27  28
HETATM   28  O2  UNL     1     -22.412  70.766  32.804  1.00  0.00    -0.344 OA
BRANCH  28  29
HETATM   29  C16 UNL     1     -22.454  72.045  32.215  1.00  0.00     0.129 C 
HETATM   30  C17 UNL     1     -21.211  72.459  31.483  1.00  0.00     0.032 C 
HETATM   31  C18 UNL     1     -21.435  73.977  31.316  1.00  0.00     0.002 C 
HETATM   32  C19 UNL     1     -21.993  74.356  32.646  1.00  0.00     0.002 C 
HETATM   33  C20 UNL     1     -22.670  73.142  33.201  1.00  0.00     0.032 C 
ENDBRANCH  28  29
ENDBRANCH  27  28
ENDBRANCH  19  20
ENDBRANCH  18  19
ENDBRANCH   1  18
BRANCH   8  34
HETATM   34  C26 UNL     1     -16.232  73.029  35.934  1.00  0.00     0.156 C 
HETATM   35  C27 UNL     1     -15.399  71.899  36.442  1.00  0.00     0.096 C 
HETATM   36  O5  UNL     1     -15.699  73.797  35.161  1.00  0.00    -0.293 OA
ENDBRANCH   8  34
TORSDOF 8
ENDMDL
MODEL 3
REMARK VINA RESULT: -8.494740655      1.327      1.699
REMARK  8 active torsions:
REMARK  status: ('A' for Active; 'I' for Inactive)
REMARK    1  A    between atoms: O1_2  and  C2_3 
REMARK    2  A    between atoms: C6_8  and  C7_9 
REMARK    3  A    between atoms: C7_9  and  C8_10 
REMARK    4  A    between atoms: C8_10  and  C9_11 
REMARK    5  A    between atoms: C9_11  and  C10_12 
REMARK    6  A    between atoms: C15_19  and  O2_20 
REMARK    7  A    between atoms: O2_20  and  C16_21 
REMARK    8  A    between atoms: C25_32  and  C26_33 
ROOT
HETATM    1  C7  UNL     1     -19.642  73.232  34.409  1.00  0.00     0.028 C 
HETATM    2  C21 UNL     1     -20.041  73.067  35.872  1.00  0.00     0.098 C 
HETATM    3  C22 UNL     1     -19.636  74.209  36.711  1.00  0.00     0.135 C 
HETATM    4  O3  UNL     1     -20.425  74.871  37.392  1.00  0.00    -0.298 OA
HETATM    5  C23 UNL     1     -18.200  74.559  36.707  1.00  0.00     0.162 C 
HETATM    6  C24 UNL     1     -17.738  74.578  35.307  1.00  0.00     0.167 C 
HETATM    7  O4  UNL     1     -16.861  75.363  35.018  1.00  0.00    -0.292 OA
HETATM    8  C25 UNL     1     -18.269  73.703  34.235  1.00  0.00     0.047 C 
ENDROOT
BRANCH   1   9
HETATM    9  C6  UNL     1     -20.637  74.208  33.868  1.00  0.00    -0.040 A 
HETATM   10  C5  UNL     1     -20.570  75.564  34.180  1.00  0.00     0.032 A 
HETATM   11  C4  UNL     1     -21.486  76.490  33.704  1.00  0.00     0.037 A 
HETATM   12  C3  UNL     1     -22.514  76.079  32.886  1.00  0.00     0.060 A 
HETATM   13 CL1  UNL     1     -21.302  78.181  34.153  1.00  0.00    -0.084 Cl
HETATM   14  C2  UNL     1     -22.612  74.746  32.558  1.00  0.00     0.070 A 
HETATM   15  C28 UNL     1     -21.689  73.848  33.045  1.00  0.00     0.045 A 
BRANCH  14  16
HETATM   16  O1  UNL     1     -23.666  74.373  31.732  1.00  0.00    -0.356 OA
HETATM   17  C1  UNL     1     -24.389  75.295  30.958  1.00  0.00     0.210 C 
ENDBRANCH  14  16
ENDBRANCH   1   9
BRANCH   1  18
HETATM   18  C8  UNL     1     -19.946  71.903  33.759  1.00  0.00     0.025 C 
BRANCH  18  19
HETATM   19  C9  UNL     1     -19.665  70.689  34.584  1.00  0.00     0.043 C 
BRANCH  19  20
HETATM   20  C10 UNL     1     -19.214  69.633  33.594  1.00  0.00    -0.021 A 
HETATM   21  C11 UNL     1     -20.082  69.251  32.590  1.00  0.00     0.033 A 
HETATM   22  C12 UNL     1     -19.719  68.260  31.708  1.00  0.00     0.036 A 
HETATM   23 CL2  UNL     1     -20.799  67.736  30.411  1.00  0.00    -0.084 Cl
HETATM   24  C13 UNL     1     -18.496  67.646  31.820  1.00  0.00     0.050 A 
HETATM   25  C14 UNL     1     -17.651  68.045  32.826  1.00  0.00     0.069 A 
HETATM   26 CL3  UNL     1     -16.135  67.200  32.975  1.00  0.00    -0.081 Cl
HETATM   27  C15 UNL     1     -17.989  69.058  33.743  1.00  0.00     0.097 A 
BRANCH  27  28
HETATM   28  O2  UNL     1     -17.075  69.405  34.726  1.00  0.00    -0.344 OA
BRANCH  28  29
HETATM   29  C16 UNL     1     -16.562  70.715  34.770  1.00  0.00     0.129 C 
HETATM   30  C17 UNL     1     -15.279  70.931  34.021  1.00  0.00     0.032 C 
HETATM   31  C18 UNL     1     -14.815  72.293  34.580  1.00  0.00     0.002 C 
HETATM   32  C19 UNL     1     -15.120  72.153  36.032  1.00  0.00     0.002 C 
HETATM   33  C20 UNL     1     -16.251  71.180  36.152  1.00  0.00     0.032 C 
ENDBRANCH  28  29
ENDBRANCH  27  28
ENDBRANCH  19  20
ENDBRANCH  18  19
ENDBRANCH   1  18
BRANCH   8  34
HETATM   34  C26 UNL     1     -17.899  74.157  32.891  1.00  0.00     0.156 C 
HETATM   35  C27 UNL     1     -17.382  73.228  31.845  1.00  0.00     0.096 C 
HETATM   36  O5  UNL     1     -18.008  75.324  32.581  1.00  0.00    -0.293 OA
ENDBRANCH   8  34
TORSDOF 8
ENDMDL
MODEL 4
REMARK VINA RESULT: -8.341588093      2.653      6.138
REMARK  8 active torsions:
REMARK  status: ('A' for Active; 'I' for Inactive)
REMARK    1  A    between atoms: O1_2  and  C2_3 
REMARK    2  A    between atoms: C6_8  and  C7_9 
REMARK    3  A    between atoms: C7_9  and  C8_10 
REMARK    4  A    between atoms: C8_10  and  C9_11 
REMARK    5  A    between atoms: C9_11  and  C10_12 
REMARK    6  A    between atoms: C15_19  and  O2_20 
REMARK    7  A    between atoms: O2_20  and  C16_21 
REMARK    8  A    between atoms: C25_32  and  C26_33 
ROOT
HETATM    1  C7  UNL     1     -18.924  70.335  33.385  1.00  0.00     0.028 C 
HETATM    2  C21 UNL     1     -17.752  70.153  34.345  1.00  0.00     0.098 C 
HETATM    3  C22 UNL     1     -16.698  69.275  33.807  1.00  0.00     0.135 C 
HETATM    4  O3  UNL     1     -15.519  69.618  33.685  1.00  0.00    -0.298 OA
HETATM    5  C23 UNL     1     -17.113  67.917  33.393  1.00  0.00     0.162 C 
HETATM    6  C24 UNL     1     -18.339  68.041  32.585  1.00  0.00     0.167 C 
HETATM    7  O4  UNL     1     -18.508  67.231  31.699  1.00  0.00    -0.292 OA
HETATM    8  C25 UNL     1     -19.376  69.080  32.784  1.00  0.00     0.047 C 
ENDROOT
BRANCH   1   9
HETATM    9  C6  UNL     1     -18.408  71.290  32.357  1.00  0.00    -0.040 A 
HETATM   10  C5  UNL     1     -19.197  72.327  31.866  1.00  0.00     0.032 A 
HETATM   11  C4  UNL     1     -18.751  73.219  30.904  1.00  0.00     0.037 A 
HETATM   12  C3  UNL     1     -17.476  73.100  30.397  1.00  0.00     0.060 A 
HETATM   13 CL1  UNL     1     -19.828  74.499  30.359  1.00  0.00    -0.084 Cl
HETATM   14  C2  UNL     1     -16.668  72.086  30.859  1.00  0.00     0.070 A 
HETATM   15  C28 UNL     1     -17.138  71.213  31.814  1.00  0.00     0.045 A 
BRANCH  14  16
HETATM   16  O1  UNL     1     -15.390  71.999  30.319  1.00  0.00    -0.356 OA
HETATM   17  C1  UNL     1     -14.664  73.124  29.898  1.00  0.00     0.210 C 
ENDBRANCH  14  16
ENDBRANCH   1   9
BRANCH   1  18
HETATM   18  C8  UNL     1     -19.975  71.078  34.173  1.00  0.00     0.025 C 
BRANCH  18  19
HETATM   19  C9  UNL     1     -19.513  71.725  35.438  1.00  0.00     0.043 C 
BRANCH  19  20
HETATM   20  C10 UNL     1     -19.779  73.206  35.246  1.00  0.00    -0.021 A 
HETATM   21  C11 UNL     1     -20.823  73.591  34.429  1.00  0.00     0.033 A 
HETATM   22  C12 UNL     1     -21.057  74.927  34.197  1.00  0.00     0.036 A 
HETATM   23 CL2  UNL     1     -22.379  75.466  33.154  1.00  0.00    -0.084 Cl
HETATM   24  C13 UNL     1     -20.256  75.881  34.773  1.00  0.00     0.050 A 
HETATM   25  C14 UNL     1     -19.226  75.472  35.583  1.00  0.00     0.069 A 
HETATM   26 CL3  UNL     1     -18.193  76.708  36.245  1.00  0.00    -0.081 Cl
HETATM   27  C15 UNL     1     -18.960  74.114  35.844  1.00  0.00     0.097 A 
BRANCH  27  28
HETATM   28  O2  UNL     1     -17.903  73.787  36.678  1.00  0.00    -0.344 OA
BRANCH  28  29
HETATM   29  C16 UNL     1     -16.599  73.707  36.152  1.00  0.00     0.129 C 
HETATM   30  C17 UNL     1     -16.510  73.608  34.658  1.00  0.00     0.032 C 
HETATM   31  C18 UNL     1     -15.047  73.157  34.458  1.00  0.00     0.002 C 
HETATM   32  C19 UNL     1     -14.883  72.150  35.545  1.00  0.00     0.002 C 
HETATM   33  C20 UNL     1     -15.840  72.518  36.634  1.00  0.00     0.032 C 
ENDBRANCH  28  29
ENDBRANCH  27  28
ENDBRANCH  19  20
ENDBRANCH  18  19
ENDBRANCH   1  18
BRANCH   8  34
HETATM   34  C26 UNL     1     -20.295  69.195  31.648  1.00  0.00     0.156 C 
HETATM   35  C27 UNL     1     -21.774  69.064  31.797  1.00  0.00     0.096 C 
HETATM   36  O5  UNL     1     -19.875  69.408  30.531  1.00  0.00    -0.293 OA
ENDBRANCH   8  34
TORSDOF 8
ENDMDL
MODEL 5
REMARK VINA RESULT: -8.313045235      3.179      6.485
REMARK  8 active torsions:
REMARK  status: ('A' for Active; 'I' for Inactive)
REMARK    1  A    between atoms: O1_2  and  C2_3 
REMARK    2  A    between atoms: C6_8  and  C7_9 
REMARK    3  A    between atoms: C7_9  and  C8_10 
REMARK    4  A    between atoms: C8_10  and  C9_11 
REMARK    5  A    between atoms: C9_11  and  C10_12 
REMARK    6  A    between atoms: C15_19  and  O2_20 
REMARK    7  A    between atoms: O2_20  and  C16_21 
REMARK    8  A    between atoms: C25_32  and  C26_33 
ROOT
HETATM    1  C7  UNL     1     -20.160  70.924  33.060  1.00  0.00     0.028 C 
HETATM    2  C21 UNL     1     -21.237  71.066  34.132  1.00  0.00     0.098 C 
HETATM    3  C22 UNL     1     -22.501  71.612  33.608  1.00  0.00     0.135 C 
HETATM    4  O3  UNL     1     -23.589  71.038  33.713  1.00  0.00    -0.298 OA
HETATM    5  C23 UNL     1     -22.425  72.917  32.919  1.00  0.00     0.162 C 
HETATM    6  C24 UNL     1     -21.292  72.871  31.978  1.00  0.00     0.167 C 
HETATM    7  O4  UNL     1     -21.390  73.513  30.953  1.00  0.00    -0.292 OA
HETATM    8  C25 UNL     1     -20.045  72.101  32.199  1.00  0.00     0.047 C 
ENDROOT
BRANCH   1   9
HETATM    9  C6  UNL     1     -20.570  69.710  32.291  1.00  0.00    -0.040 A 
HETATM   10  C5  UNL     1     -19.734  68.601  32.182  1.00  0.00     0.032 A 
HETATM   11  C4  UNL     1     -20.082  67.466  31.465  1.00  0.00     0.037 A 
HETATM   12  C3  UNL     1     -21.299  67.407  30.824  1.00  0.00     0.060 A 
HETATM   13 CL1  UNL     1     -18.954  66.117  31.400  1.00  0.00    -0.084 Cl
HETATM   14  C2  UNL     1     -22.150  68.485  30.909  1.00  0.00     0.070 A 
HETATM   15  C28 UNL     1     -21.779  69.599  31.628  1.00  0.00     0.045 A 
BRANCH  14  16
HETATM   16  O1  UNL     1     -23.367  68.385  30.246  1.00  0.00    -0.356 OA
HETATM   17  C1  UNL     1     -23.485  67.861  28.949  1.00  0.00     0.210 C 
ENDBRANCH  14  16
ENDBRANCH   1   9
BRANCH   1  18
HETATM   18  C8  UNL     1     -18.899  70.556  33.805  1.00  0.00     0.025 C 
BRANCH  18  19
HETATM   19  C9  UNL     1     -18.947  70.706  35.292  1.00  0.00     0.043 C 
BRANCH  19  20
HETATM   20  C10 UNL     1     -17.772  71.599  35.638  1.00  0.00    -0.021 A 
HETATM   21  C11 UNL     1     -16.495  71.151  35.363  1.00  0.00     0.033 A 
HETATM   22  C12 UNL     1     -15.407  71.918  35.712  1.00  0.00     0.036 A 
HETATM   23 CL2  UNL     1     -13.755  71.382  35.384  1.00  0.00    -0.084 Cl
HETATM   24  C13 UNL     1     -15.584  73.129  36.333  1.00  0.00     0.050 A 
HETATM   25  C14 UNL     1     -16.864  73.552  36.594  1.00  0.00     0.069 A 
HETATM   26 CL3  UNL     1     -17.046  75.064  37.441  1.00  0.00    -0.081 Cl
HETATM   27  C15 UNL     1     -17.999  72.794  36.249  1.00  0.00     0.097 A 
BRANCH  27  28
HETATM   28  O2  UNL     1     -19.256  73.298  36.543  1.00  0.00    -0.344 OA
BRANCH  28  29
HETATM   29  C16 UNL     1     -19.915  74.119  35.608  1.00  0.00     0.129 C 
HETATM   30  C17 UNL     1     -19.078  74.581  34.452  1.00  0.00     0.032 C 
HETATM   31  C18 UNL     1     -19.943  75.721  33.872  1.00  0.00     0.002 C 
HETATM   32  C19 UNL     1     -20.418  76.407  35.107  1.00  0.00     0.002 C 
HETATM   33  C20 UNL     1     -20.435  75.385  36.200  1.00  0.00     0.032 C 
ENDBRANCH  28  29
ENDBRANCH  27  28
ENDBRANCH  19  20
ENDBRANCH  18  19
ENDBRANCH   1  18
BRANCH   8  34
HETATM   34  C26 UNL     1     -19.246  71.943  30.981  1.00  0.00     0.156 C 
HETATM   35  C27 UNL     1     -17.814  72.355  30.902  1.00  0.00     0.096 C 
HETATM   36  O5  UNL     1     -19.733  71.460  29.981  1.00  0.00    -0.293 OA
ENDBRANCH   8  34
TORSDOF 8
ENDMDL
