MODEL 1
REMARK VINA RESULT: -7.584816882      0.000      0.000
REMARK  11 active torsions:
REMARK  status: ('A' for Active; 'I' for Inactive)
REMARK    1  A    between atoms: C2_2  and  O1_3 
REMARK    2  A    between atoms: O1_3  and  C3_4 
REMARK    3  A    between atoms: C3_4  and  C4_6 
REMARK    4  A    between atoms: N1_8  and  C6_9 
REMARK    5  A    between atoms: C9_12  and  C10_13 
REMARK    6  A    between atoms: C10_13  and  O4_15 
REMARK    7  A    between atoms: O4_15  and  C11_16 
REMARK    8  A    between atoms: C11_16  and  C12_17 
REMARK    9  A    between atoms: C12_17  and  C13_19 
REMARK   10  A    between atoms: C19_25  and  C20_26 
REMARK   11  A    between atoms: C23_29  and  C24_30 
ROOT
HETATM    1  C4  UNL     1     -20.018  76.544  34.633  1.00  0.00     0.067 C 
HETATM    2  C5  UNL     1     -20.605  77.591  34.105  1.00  0.00     0.108 C 
HETATM    3  N1  UNL     1     -21.725  77.506  33.232  1.00  0.00    -0.365 N 
HETATM    4  C8  UNL     1     -22.188  76.203  32.945  1.00  0.00     0.108 C 
HETATM    5  C9  UNL     1     -21.639  75.112  33.452  1.00  0.00     0.067 C 
HETATM    6  C19 UNL     1     -20.585  75.193  34.443  1.00  0.00     0.009 C 
ENDROOT
BRANCH   5   7
HETATM    7  C10 UNL     1     -22.232  73.826  33.032  1.00  0.00     0.296 C 
HETATM    8  O3  UNL     1     -22.275  73.522  31.819  1.00  0.00    -0.259 OA
BRANCH   7   9
HETATM    9  O4  UNL     1     -22.751  72.953  33.952  1.00  0.00    -0.310 OA
BRANCH   9  10
HETATM   10  C11 UNL     1     -23.143  71.633  33.616  1.00  0.00     0.257 C 
BRANCH  10  11
HETATM   11  C12 UNL     1     -22.030  70.697  33.828  1.00  0.00     0.155 C 
HETATM   12  O5  UNL     1     -22.019  70.068  34.897  1.00  0.00    -0.295 OA
BRANCH  11  13
HETATM   13  C13 UNL     1     -20.971  70.505  32.826  1.00  0.00     0.057 C 
HETATM   14  C14 UNL     1     -21.621  70.001  31.532  1.00  0.00     0.012 C 
HETATM   15  C15 UNL     1     -21.847  68.496  31.708  1.00  0.00     0.001 C 
HETATM   16  C16 UNL     1     -20.544  67.743  31.616  1.00  0.00     0.000 C 
HETATM   17  C17 UNL     1     -19.432  68.658  32.087  1.00  0.00     0.001 C 
HETATM   18  C18 UNL     1     -19.923  69.509  33.227  1.00  0.00     0.012 C 
ENDBRANCH  11  13
ENDBRANCH  10  11
ENDBRANCH   9  10
ENDBRANCH   7   9
ENDBRANCH   5   7
BRANCH   6  19
HETATM   19  C20 UNL     1     -19.631  74.095  34.528  1.00  0.00    -0.024 A 
HETATM   20  C21 UNL     1     -19.655  73.088  35.458  1.00  0.00     0.013 A 
HETATM   21  C22 UNL     1     -18.721  72.084  35.472  1.00  0.00     0.012 A 
HETATM   22  C23 UNL     1     -17.700  72.024  34.557  1.00  0.00    -0.005 A 
HETATM   23  C25 UNL     1     -17.650  73.024  33.609  1.00  0.00     0.012 A 
HETATM   24  C26 UNL     1     -18.592  74.025  33.601  1.00  0.00     0.013 A 
BRANCH  22  25
HETATM   25  C24 UNL     1     -16.659  70.947  34.538  1.00  0.00     0.216 C 
HETATM   26 CL1  UNL     1     -17.083  69.557  35.533  1.00  0.00    -0.078 Cl
HETATM   27 CL2  UNL     1     -15.140  71.724  35.115  1.00  0.00    -0.078 Cl
HETATM   28 CL3  UNL     1     -16.387  70.462  32.836  1.00  0.00    -0.078 Cl
ENDBRANCH  22  25
ENDBRANCH   6  19
BRANCH   3  29
HETATM   29  C6  UNL     1     -22.353  78.716  32.704  1.00  0.00     0.123 C 
HETATM   30  C7  UNL     1     -22.375  79.757  33.849  1.00  0.00     0.027 C 
ENDBRANCH   3  29
BRANCH   1  31
HETATM   31  C3  UNL     1     -18.847  76.776  35.518  1.00  0.00     0.295 C 
HETATM   32  O2  UNL     1     -17.855  77.439  35.116  1.00  0.00    -0.259 OA
BRANCH  31  33
HETATM   33  O1  UNL     1     -18.818  76.279  36.791  1.00  0.00    -0.318 OA
BRANCH  33  34
HETATM   34  C2  UNL     1     -17.700  76.012  37.574  1.00  0.00     0.174 C 
HETATM   35  C1  UNL     1     -16.985  74.728  37.288  1.00  0.00     0.034 C 
ENDBRANCH  33  34
ENDBRANCH  31  33
ENDBRANCH   1  31
TORSDOF 11
ENDMDL
MODEL 2
REMARK VINA RESULT: -7.440980660      1.151      2.122
REMARK  11 active torsions:
REMARK  status: ('A' for Active; 'I' for Inactive)
REMARK    1  A    between atoms: C2_2  and  O1_3 
REMARK    2  A    between atoms: O1_3  and  C3_4 
REMARK    3  A    between atoms: C3_4  and  C4_6 
REMARK    4  A    between atoms: N1_8  and  C6_9 
REMARK    5  A    between atoms: C9_12  and  C10_13 
REMARK    6  A    between atoms: C10_13  and  O4_15 
REMARK    7  A    between atoms: O4_15  and  C11_16 
REMARK    8  A    between atoms: C11_16  and  C12_17 
REMARK    9  A    between atoms: C12_17  and  C13_19 
REMARK   10  A    between atoms: C19_25  and  C20_26 
REMARK   11  A    between atoms: C23_29  and  C24_30 
ROOT
HETATM    1  C4  UNL     1     -20.065  76.488  34.232  1.00  0.00     0.067 C 
HETATM    2  C5  UNL     1     -20.842  77.326  33.591  1.00  0.00     0.108 C 
HETATM    3  N1  UNL     1     -22.020  76.930  32.896  1.00  0.00    -0.365 N 
HETATM    4  C8  UNL     1     -22.320  75.550  32.924  1.00  0.00     0.108 C 
HETATM    5  C9  UNL     1     -21.575  74.661  33.559  1.00  0.00     0.067 C 
HETATM    6  C19 UNL     1     -20.451  75.069  34.377  1.00  0.00     0.009 C 
ENDROOT
BRANCH   5   7
HETATM    7  C10 UNL     1     -22.018  73.255  33.470  1.00  0.00     0.296 C 
HETATM    8  O3  UNL     1     -22.418  72.657  34.493  1.00  0.00    -0.259 OA
BRANCH   7   9
HETATM    9  O4  UNL     1     -21.989  72.579  32.278  1.00  0.00    -0.310 OA
BRANCH   9  10
HETATM   10  C11 UNL     1     -20.912  71.736  31.904  1.00  0.00     0.257 C 
BRANCH  10  11
HETATM   11  C12 UNL     1     -21.345  70.331  31.880  1.00  0.00     0.155 C 
HETATM   12  O5  UNL     1     -22.335  70.058  31.185  1.00  0.00    -0.295 OA
BRANCH  11  13
HETATM   13  C13 UNL     1     -20.644  69.287  32.643  1.00  0.00     0.057 C 
HETATM   14  C14 UNL     1     -19.398  69.914  33.280  1.00  0.00     0.012 C 
HETATM   15  C15 UNL     1     -18.322  69.962  32.191  1.00  0.00     0.001 C 
HETATM   16  C16 UNL     1     -17.770  68.585  31.919  1.00  0.00     0.000 C 
HETATM   17  C17 UNL     1     -18.855  67.570  32.221  1.00  0.00     0.001 C 
HETATM   18  C18 UNL     1     -20.193  68.122  31.813  1.00  0.00     0.012 C 
ENDBRANCH  11  13
ENDBRANCH  10  11
ENDBRANCH   9  10
ENDBRANCH   7   9
ENDBRANCH   5   7
BRANCH   6  19
HETATM   19  C20 UNL     1     -19.348  74.134  34.552  1.00  0.00    -0.024 A 
HETATM   20  C21 UNL     1     -18.344  73.906  33.646  1.00  0.00     0.013 A 
HETATM   21  C22 UNL     1     -17.334  73.009  33.885  1.00  0.00     0.012 A 
HETATM   22  C23 UNL     1     -17.265  72.280  35.045  1.00  0.00    -0.005 A 
HETATM   23  C25 UNL     1     -18.262  72.487  35.975  1.00  0.00     0.012 A 
HETATM   24  C26 UNL     1     -19.269  73.390  35.728  1.00  0.00     0.013 A 
BRANCH  22  25
HETATM   25  C24 UNL     1     -16.182  71.289  35.344  1.00  0.00     0.216 C 
HETATM   26 CL1  UNL     1     -15.227  70.860  33.929  1.00  0.00    -0.078 Cl
HETATM   27 CL2  UNL     1     -17.013  69.847  36.033  1.00  0.00    -0.078 Cl
HETATM   28 CL3  UNL     1     -15.148  71.967  36.639  1.00  0.00    -0.078 Cl
ENDBRANCH  22  25
ENDBRANCH   6  19
BRANCH   3  29
HETATM   29  C6  UNL     1     -22.861  77.922  32.228  1.00  0.00     0.123 C 
HETATM   30  C7  UNL     1     -23.815  77.151  31.284  1.00  0.00     0.027 C 
ENDBRANCH   3  29
BRANCH   1  31
HETATM   31  C3  UNL     1     -18.857  77.035  34.904  1.00  0.00     0.295 C 
HETATM   32  O2  UNL     1     -18.048  77.771  34.279  1.00  0.00    -0.259 OA
BRANCH  31  33
HETATM   33  O1  UNL     1     -18.596  76.757  36.217  1.00  0.00    -0.318 OA
BRANCH  33  34
HETATM   34  C2  UNL     1     -17.364  76.475  36.796  1.00  0.00     0.174 C 
HETATM   35  C1  UNL     1     -17.396  75.671  38.059  1.00  0.00     0.034 C 
ENDBRANCH  33  34
ENDBRANCH  31  33
ENDBRANCH   1  31
TORSDOF 11
ENDMDL
MODEL 3
REMARK VINA RESULT: -7.404190295      3.534      7.920
REMARK  11 active torsions:
REMARK  status: ('A' for Active; 'I' for Inactive)
REMARK    1  A    between atoms: C2_2  and  O1_3 
REMARK    2  A    between atoms: O1_3  and  C3_4 
REMARK    3  A    between atoms: C3_4  and  C4_6 
REMARK    4  A    between atoms: N1_8  and  C6_9 
REMARK    5  A    between atoms: C9_12  and  C10_13 
REMARK    6  A    between atoms: C10_13  and  O4_15 
REMARK    7  A    between atoms: O4_15  and  C11_16 
REMARK    8  A    between atoms: C11_16  and  C12_17 
REMARK    9  A    between atoms: C12_17  and  C13_19 
REMARK   10  A    between atoms: C19_25  and  C20_26 
REMARK   11  A    between atoms: C23_29  and  C24_30 
ROOT
HETATM    1  C4  UNL     1     -20.082  69.768  32.452  1.00  0.00     0.067 C 
HETATM    2  C5  UNL     1     -19.500  68.649  32.092  1.00  0.00     0.108 C 
HETATM    3  N1  UNL     1     -18.233  68.229  32.587  1.00  0.00    -0.365 N 
HETATM    4  C8  UNL     1     -17.609  69.099  33.508  1.00  0.00     0.108 C 
HETATM    5  C9  UNL     1     -18.151  70.236  33.910  1.00  0.00     0.067 C 
HETATM    6  C19 UNL     1     -19.494  70.609  33.514  1.00  0.00     0.009 C 
ENDROOT
BRANCH   5   7
HETATM    7  C10 UNL     1     -17.355  71.041  34.858  1.00  0.00     0.296 C 
HETATM    8  O3  UNL     1     -17.467  70.852  36.090  1.00  0.00    -0.259 OA
BRANCH   7   9
HETATM    9  O4  UNL     1     -16.492  72.009  34.413  1.00  0.00    -0.310 OA
BRANCH   9  10
HETATM   10  C11 UNL     1     -16.003  73.040  35.254  1.00  0.00     0.257 C 
BRANCH  10  11
HETATM   11  C12 UNL     1     -16.596  74.332  34.881  1.00  0.00     0.155 C 
HETATM   12  O5  UNL     1     -16.012  74.989  34.006  1.00  0.00    -0.295 OA
BRANCH  11  13
HETATM   13  C13 UNL     1     -17.826  74.836  35.511  1.00  0.00     0.057 C 
HETATM   14  C14 UNL     1     -17.631  76.325  35.821  1.00  0.00     0.012 C 
HETATM   15  C15 UNL     1     -16.829  76.403  37.124  1.00  0.00     0.001 C 
HETATM   16  C16 UNL     1     -17.689  76.036  38.307  1.00  0.00     0.000 C 
HETATM   17  C17 UNL     1     -18.756  75.069  37.836  1.00  0.00     0.001 C 
HETATM   18  C18 UNL     1     -18.182  74.147  36.795  1.00  0.00     0.012 C 
ENDBRANCH  11  13
ENDBRANCH  10  11
ENDBRANCH   9  10
ENDBRANCH   7   9
ENDBRANCH   5   7
BRANCH   6  19
HETATM   19  C20 UNL     1     -19.826  72.026  33.447  1.00  0.00    -0.024 A 
HETATM   20  C21 UNL     1     -19.307  72.926  32.552  1.00  0.00     0.013 A 
HETATM   21  C22 UNL     1     -19.673  74.248  32.550  1.00  0.00     0.012 A 
HETATM   22  C23 UNL     1     -20.581  74.756  33.444  1.00  0.00    -0.005 A 
HETATM   23  C25 UNL     1     -21.120  73.874  34.358  1.00  0.00     0.012 A 
HETATM   24  C26 UNL     1     -20.749  72.550  34.351  1.00  0.00     0.013 A 
BRANCH  22  25
HETATM   25  C24 UNL     1     -21.006  76.192  33.476  1.00  0.00     0.216 C 
HETATM   26 CL1  UNL     1     -22.562  76.470  32.701  1.00  0.00    -0.078 Cl
HETATM   27 CL2  UNL     1     -19.692  77.110  32.654  1.00  0.00    -0.078 Cl
HETATM   28 CL3  UNL     1     -21.031  76.728  35.184  1.00  0.00    -0.078 Cl
ENDBRANCH  22  25
ENDBRANCH   6  19
BRANCH   3  29
HETATM   29  C6  UNL     1     -17.655  66.952  32.170  1.00  0.00     0.123 C 
HETATM   30  C7  UNL     1     -18.653  66.300  31.182  1.00  0.00     0.027 C 
ENDBRANCH   3  29
BRANCH   1  31
HETATM   31  C3  UNL     1     -21.399  70.092  31.845  1.00  0.00     0.295 C 
HETATM   32  O2  UNL     1     -22.471  69.745  32.407  1.00  0.00    -0.259 OA
BRANCH  31  33
HETATM   33  O1  UNL     1     -21.481  70.777  30.665  1.00  0.00    -0.318 OA
BRANCH  33  34
HETATM   34  C2  UNL     1     -22.524  71.581  30.221  1.00  0.00     0.174 C 
HETATM   35  C1  UNL     1     -22.744  72.856  30.975  1.00  0.00     0.034 C 
ENDBRANCH  33  34
ENDBRANCH  31  33
ENDBRANCH   1  31
TORSDOF 11
ENDMDL
MODEL 4
REMARK VINA RESULT: -7.363888319      3.400      7.156
REMARK  11 active torsions:
REMARK  status: ('A' for Active; 'I' for Inactive)
REMARK    1  A    between atoms: C2_2  and  O1_3 
REMARK    2  A    between atoms: O1_3  and  C3_4 
REMARK    3  A    between atoms: C3_4  and  C4_6 
REMARK    4  A    between atoms: N1_8  and  C6_9 
REMARK    5  A    between atoms: C9_12  and  C10_13 
REMARK    6  A    between atoms: C10_13  and  O4_15 
REMARK    7  A    between atoms: O4_15  and  C11_16 
REMARK    8  A    between atoms: C11_16  and  C12_17 
REMARK    9  A    between atoms: C12_17  and  C13_19 
REMARK   10  A    between atoms: C19_25  and  C20_26 
REMARK   11  A    between atoms: C23_29  and  C24_30 
ROOT
HETATM    1  C4  UNL     1     -21.635  69.958  32.731  1.00  0.00     0.067 C 
HETATM    2  C5  UNL     1     -21.908  68.952  31.935  1.00  0.00     0.108 C 
HETATM    3  N1  UNL     1     -20.950  67.973  31.550  1.00  0.00    -0.365 N 
HETATM    4  C8  UNL     1     -19.650  68.140  32.077  1.00  0.00     0.108 C 
HETATM    5  C9  UNL     1     -19.320  69.130  32.888  1.00  0.00     0.067 C 
HETATM    6  C19 UNL     1     -20.316  70.055  33.388  1.00  0.00     0.009 C 
ENDROOT
BRANCH   5   7
HETATM    7  C10 UNL     1     -17.911  69.172  33.329  1.00  0.00     0.296 C 
HETATM    8  O3  UNL     1     -17.599  68.769  34.471  1.00  0.00    -0.259 OA
BRANCH   7   9
HETATM    9  O4  UNL     1     -16.927  69.659  32.507  1.00  0.00    -0.310 OA
BRANCH   9  10
HETATM   10  C11 UNL     1     -15.690  70.144  33.002  1.00  0.00     0.257 C 
BRANCH  10  11
HETATM   11  C12 UNL     1     -15.653  71.612  32.943  1.00  0.00     0.155 C 
HETATM   12  O5  UNL     1     -15.540  72.128  31.821  1.00  0.00    -0.295 OA
BRANCH  11  13
HETATM   13  C13 UNL     1     -15.746  72.444  34.152  1.00  0.00     0.057 C 
HETATM   14  C14 UNL     1     -14.322  72.759  34.626  1.00  0.00     0.012 C 
HETATM   15  C15 UNL     1     -13.833  71.532  35.403  1.00  0.00     0.001 C 
HETATM   16  C16 UNL     1     -14.507  71.445  36.749  1.00  0.00     0.000 C 
HETATM   17  C17 UNL     1     -15.874  72.090  36.639  1.00  0.00     0.001 C 
HETATM   18  C18 UNL     1     -16.470  71.790  35.291  1.00  0.00     0.012 C 
ENDBRANCH  11  13
ENDBRANCH  10  11
ENDBRANCH   9  10
ENDBRANCH   7   9
ENDBRANCH   5   7
BRANCH   6  19
HETATM   19  C20 UNL     1     -19.892  71.402  33.745  1.00  0.00    -0.024 A 
HETATM   20  C21 UNL     1     -19.967  71.957  34.996  1.00  0.00     0.013 A 
HETATM   21  C22 UNL     1     -19.543  73.236  35.256  1.00  0.00     0.012 A 
HETATM   22  C23 UNL     1     -19.017  74.043  34.278  1.00  0.00    -0.005 A 
HETATM   23  C25 UNL     1     -18.930  73.512  33.008  1.00  0.00     0.012 A 
HETATM   24  C26 UNL     1     -19.355  72.229  32.759  1.00  0.00     0.013 A 
BRANCH  22  25
HETATM   25  C24 UNL     1     -18.544  75.444  34.518  1.00  0.00     0.216 C 
HETATM   26 CL1  UNL     1     -17.150  75.529  35.590  1.00  0.00    -0.078 Cl
HETATM   27 CL2  UNL     1     -19.955  76.325  35.210  1.00  0.00    -0.078 Cl
HETATM   28 CL3  UNL     1     -18.186  76.192  32.932  1.00  0.00    -0.078 Cl
ENDBRANCH  22  25
ENDBRANCH   6  19
BRANCH   3  29
HETATM   29  C6  UNL     1     -21.329  66.858  30.685  1.00  0.00     0.123 C 
HETATM   30  C7  UNL     1     -22.874  66.763  30.711  1.00  0.00     0.027 C 
ENDBRANCH   3  29
BRANCH   1  31
HETATM   31  C3  UNL     1     -22.729  70.917  33.039  1.00  0.00     0.295 C 
HETATM   32  O2  UNL     1     -23.325  70.882  34.147  1.00  0.00    -0.259 OA
BRANCH  31  33
HETATM   33  O1  UNL     1     -23.111  71.863  32.129  1.00  0.00    -0.318 OA
BRANCH  33  34
HETATM   34  C2  UNL     1     -23.563  73.153  32.384  1.00  0.00     0.174 C 
HETATM   35  C1  UNL     1     -22.544  74.119  32.903  1.00  0.00     0.034 C 
ENDBRANCH  33  34
ENDBRANCH  31  33
ENDBRANCH   1  31
TORSDOF 11
ENDMDL
MODEL 5
REMARK VINA RESULT: -7.221603287      2.235      5.213
REMARK  11 active torsions:
REMARK  status: ('A' for Active; 'I' for Inactive)
REMARK    1  A    between atoms: C2_2  and  O1_3 
REMARK    2  A    between atoms: O1_3  and  C3_4 
REMARK    3  A    between atoms: C3_4  and  C4_6 
REMARK    4  A    between atoms: N1_8  and  C6_9 
REMARK    5  A    between atoms: C9_12  and  C10_13 
REMARK    6  A    between atoms: C10_13  and  O4_15 
REMARK    7  A    between atoms: O4_15  and  C11_16 
REMARK    8  A    between atoms: C11_16  and  C12_17 
REMARK    9  A    between atoms: C12_17  and  C13_19 
REMARK   10  A    between atoms: C19_25  and  C20_26 
REMARK   11  A    between atoms: C23_29  and  C24_30 
ROOT
HETATM    1  C4  UNL     1     -19.599  74.547  31.871  1.00  0.00     0.067 C 
HETATM    2  C5  UNL     1     -20.402  75.581  31.802  1.00  0.00     0.108 C 
HETATM    3  N1  UNL     1     -21.360  75.899  32.805  1.00  0.00    -0.365 N 
HETATM    4  C8  UNL     1     -21.414  75.021  33.910  1.00  0.00     0.108 C 
HETATM    5  C9  UNL     1     -20.625  73.967  34.035  1.00  0.00     0.067 C 
HETATM    6  C19 UNL     1     -19.561  73.709  33.087  1.00  0.00     0.009 C 
ENDROOT
BRANCH   5   7
HETATM    7  C10 UNL     1     -20.827  73.140  35.242  1.00  0.00     0.296 C 
HETATM    8  O3  UNL     1     -21.584  72.145  35.201  1.00  0.00    -0.259 OA
BRANCH   7   9
HETATM    9  O4  UNL     1     -20.203  73.449  36.423  1.00  0.00    -0.310 OA
BRANCH   9  10
HETATM   10  C11 UNL     1     -18.817  73.236  36.632  1.00  0.00     0.257 C 
BRANCH  10  11
HETATM   11  C12 UNL     1     -18.219  74.387  37.324  1.00  0.00     0.155 C 
HETATM   12  O5  UNL     1     -18.615  74.620  38.475  1.00  0.00    -0.295 OA
BRANCH  11  13
HETATM   13  C13 UNL     1     -17.196  75.232  36.689  1.00  0.00     0.057 C 
HETATM   14  C14 UNL     1     -17.688  76.684  36.723  1.00  0.00     0.012 C 
HETATM   15  C15 UNL     1     -18.668  76.846  35.557  1.00  0.00     0.001 C 
HETATM   16  C16 UNL     1     -17.934  76.884  34.240  1.00  0.00     0.000 C 
HETATM   17  C17 UNL     1     -16.660  76.076  34.382  1.00  0.00     0.001 C 
HETATM   18  C18 UNL     1     -16.913  74.881  35.259  1.00  0.00     0.012 C 
ENDBRANCH  11  13
ENDBRANCH  10  11
ENDBRANCH   9  10
ENDBRANCH   7   9
ENDBRANCH   5   7
BRANCH   6  19
HETATM   19  C20 UNL     1     -19.134  72.331  32.886  1.00  0.00    -0.024 A 
HETATM   20  C21 UNL     1     -19.867  71.351  32.267  1.00  0.00     0.013 A 
HETATM   21  C22 UNL     1     -19.394  70.072  32.112  1.00  0.00     0.012 A 
HETATM   22  C23 UNL     1     -18.157  69.692  32.567  1.00  0.00    -0.005 A 
HETATM   23  C25 UNL     1     -17.397  70.656  33.194  1.00  0.00     0.012 A 
HETATM   24  C26 UNL     1     -17.878  71.935  33.343  1.00  0.00     0.013 A 
BRANCH  22  25
HETATM   25  C24 UNL     1     -17.604  68.307  32.420  1.00  0.00     0.216 C 
HETATM   26 CL1  UNL     1     -18.794  67.145  31.844  1.00  0.00    -0.078 Cl
HETATM   27 CL2  UNL     1     -16.981  67.853  34.048  1.00  0.00    -0.078 Cl
HETATM   28 CL3  UNL     1     -16.193  68.384  31.321  1.00  0.00    -0.078 Cl
ENDBRANCH  22  25
ENDBRANCH   6  19
BRANCH   3  29
HETATM   29  C6  UNL     1     -22.203  77.087  32.681  1.00  0.00     0.123 C 
HETATM   30  C7  UNL     1     -21.657  78.141  33.675  1.00  0.00     0.027 C 
ENDBRANCH   3  29
BRANCH   1  31
HETATM   31  C3  UNL     1     -18.655  74.323  30.745  1.00  0.00     0.295 C 
HETATM   32  O2  UNL     1     -19.045  73.796  29.670  1.00  0.00    -0.259 OA
BRANCH  31  33
HETATM   33  O1  UNL     1     -17.342  74.689  30.846  1.00  0.00    -0.318 OA
BRANCH  33  34
HETATM   34  C2  UNL     1     -16.221  73.906  30.590  1.00  0.00     0.174 C 
HETATM   35  C1  UNL     1     -15.244  73.764  31.715  1.00  0.00     0.034 C 
ENDBRANCH  33  34
ENDBRANCH  31  33
ENDBRANCH   1  31
TORSDOF 11
ENDMDL
