MODEL 1
REMARK VINA RESULT: -8.296234340      0.000      0.000
REMARK  8 active torsions:
REMARK  status: ('A' for Active; 'I' for Inactive)
REMARK    1  A    between atoms: S1_2  and  C1_4 
REMARK    2  A    between atoms: S1_2  and  C8_12 
REMARK    3  A    between atoms: C1_4  and  C2_5 
REMARK    4  A    between atoms: C8_12  and  S2_14 
REMARK    5  A    between atoms: C8_12  and  S3_22 
REMARK    6  A    between atoms: S2_14  and  C9_15 
REMARK    7  A    between atoms: C9_15  and  C10_16 
REMARK    8  A    between atoms: S3_22  and  C16_25 
ROOT
HETATM    1  C8  UNL     1     -20.159  72.621  32.892  1.00  0.00     0.294 C 
HETATM    2 CL2  UNL     1     -19.493  73.914  31.829  1.00  0.00    -0.072 Cl
ENDROOT
BRANCH   1   3
HETATM    3  S1  UNL     1     -21.183  71.558  31.940  1.00  0.00     0.196 S 
HETATM    4  O1  UNL     1     -22.480  72.350  31.700  1.00  0.00    -0.224 OA
HETATM    5  O2  UNL     1     -20.533  71.360  30.557  1.00  0.00    -0.224 OA
BRANCH   3   6
HETATM    6  C1  UNL     1     -21.656  70.039  32.626  1.00  0.00     0.182 C 
BRANCH   6   7
HETATM    7  C2  UNL     1     -21.047  68.832  32.058  1.00  0.00    -0.044 A 
HETATM    8  C3  UNL     1     -21.815  67.987  31.264  1.00  0.00     0.010 A 
HETATM    9  C4  UNL     1     -21.298  66.824  30.734  1.00  0.00     0.024 A 
HETATM   10  C5  UNL     1     -19.992  66.455  30.975  1.00  0.00     0.034 A 
HETATM   11 CL1  UNL     1     -19.335  64.961  30.291  1.00  0.00    -0.084 Cl
HETATM   12  C6  UNL     1     -19.219  67.279  31.757  1.00  0.00     0.024 A 
HETATM   13  C7  UNL     1     -19.761  68.457  32.287  1.00  0.00     0.010 A 
ENDBRANCH   6   7
ENDBRANCH   3   6
ENDBRANCH   1   3
BRANCH   1  14
HETATM   14  S2  UNL     1     -18.917  71.818  33.875  1.00  0.00    -0.111 SA
BRANCH  14  15
HETATM   15  C9  UNL     1     -17.210  72.118  33.502  1.00  0.00     0.082 C 
BRANCH  15  16
HETATM   16  C10 UNL     1     -16.542  73.077  34.497  1.00  0.00    -0.005 C 
HETATM   17  C11 UNL     1     -16.898  72.723  35.903  1.00  0.00     0.005 C 
HETATM   18  C12 UNL     1     -15.704  72.573  36.805  1.00  0.00     0.000 C 
HETATM   19  C13 UNL     1     -14.827  71.484  36.254  1.00  0.00     0.000 C 
HETATM   20  C14 UNL     1     -14.506  71.730  34.811  1.00  0.00     0.000 C 
HETATM   21  C15 UNL     1     -15.050  73.041  34.320  1.00  0.00     0.005 C 
ENDBRANCH  15  16
ENDBRANCH  14  15
ENDBRANCH   1  14
BRANCH   1  22
HETATM   22  S3  UNL     1     -21.220  73.549  34.064  1.00  0.00     0.222 S 
HETATM   23  O3  UNL     1     -21.985  74.551  33.245  1.00  0.00    -0.219 OA
HETATM   24  O4  UNL     1     -22.213  72.611  34.682  1.00  0.00    -0.219 OA
BRANCH  22  25
HETATM   25  C16 UNL     1     -20.245  74.366  35.253  1.00  0.00     0.063 A 
HETATM   26  C17 UNL     1     -20.281  73.950  36.589  1.00  0.00     0.025 A 
HETATM   27  C18 UNL     1     -19.518  74.556  37.563  1.00  0.00     0.025 A 
HETATM   28  C19 UNL     1     -18.684  75.604  37.261  1.00  0.00     0.034 A 
HETATM   29 CL3  UNL     1     -17.693  76.406  38.468  1.00  0.00    -0.084 Cl
HETATM   30  C20 UNL     1     -18.647  76.018  35.934  1.00  0.00     0.025 A 
HETATM   31  C21 UNL     1     -19.409  75.416  34.948  1.00  0.00     0.025 A 
ENDBRANCH  22  25
ENDBRANCH   1  22
TORSDOF 8
ENDMDL
MODEL 2
REMARK VINA RESULT: -8.105668759      1.825      3.521
REMARK  8 active torsions:
REMARK  status: ('A' for Active; 'I' for Inactive)
REMARK    1  A    between atoms: S1_2  and  C1_4 
REMARK    2  A    between atoms: S1_2  and  C8_12 
REMARK    3  A    between atoms: C1_4  and  C2_5 
REMARK    4  A    between atoms: C8_12  and  S2_14 
REMARK    5  A    between atoms: C8_12  and  S3_22 
REMARK    6  A    between atoms: S2_14  and  C9_15 
REMARK    7  A    between atoms: C9_15  and  C10_16 
REMARK    8  A    between atoms: S3_22  and  C16_25 
ROOT
HETATM    1  C8  UNL     1     -20.844  72.475  33.348  1.00  0.00     0.294 C 
HETATM    2 CL2  UNL     1     -22.347  73.206  34.019  1.00  0.00    -0.072 Cl
ENDROOT
BRANCH   1   3
HETATM    3  S1  UNL     1     -21.272  71.199  32.221  1.00  0.00     0.196 S 
HETATM    4  O1  UNL     1     -22.570  71.672  31.544  1.00  0.00    -0.224 OA
HETATM    5  O2  UNL     1     -20.202  71.142  31.114  1.00  0.00    -0.224 OA
BRANCH   3   6
HETATM    6  C1  UNL     1     -21.596  69.618  32.851  1.00  0.00     0.182 C 
BRANCH   6   7
HETATM    7  C2  UNL     1     -21.075  68.477  32.092  1.00  0.00    -0.044 A 
HETATM    8  C3  UNL     1     -21.939  67.728  31.301  1.00  0.00     0.010 A 
HETATM    9  C4  UNL     1     -21.504  66.627  30.595  1.00  0.00     0.024 A 
HETATM   10  C5  UNL     1     -20.185  66.227  30.649  1.00  0.00     0.034 A 
HETATM   11 CL1  UNL     1     -19.634  64.812  29.739  1.00  0.00    -0.084 Cl
HETATM   12  C6  UNL     1     -19.318  66.955  31.426  1.00  0.00     0.024 A 
HETATM   13  C7  UNL     1     -19.778  68.072  32.137  1.00  0.00     0.010 A 
ENDBRANCH   6   7
ENDBRANCH   3   6
ENDBRANCH   1   3
BRANCH   1  14
HETATM   14  S2  UNL     1     -19.691  73.684  32.744  1.00  0.00    -0.111 SA
BRANCH  14  15
HETATM   15  C9  UNL     1     -20.192  75.383  32.681  1.00  0.00     0.082 C 
BRANCH  15  16
HETATM   16  C10 UNL     1     -19.962  76.121  34.006  1.00  0.00    -0.005 C 
HETATM   17  C11 UNL     1     -18.512  76.410  34.212  1.00  0.00     0.005 C 
HETATM   18  C12 UNL     1     -18.225  77.853  34.529  1.00  0.00     0.000 C 
HETATM   19  C13 UNL     1     -18.715  78.695  33.385  1.00  0.00     0.000 C 
HETATM   20  C14 UNL     1     -20.145  78.387  33.062  1.00  0.00     0.000 C 
HETATM   21  C15 UNL     1     -20.748  77.402  34.023  1.00  0.00     0.005 C 
ENDBRANCH  15  16
ENDBRANCH  14  15
ENDBRANCH   1  14
BRANCH   1  22
HETATM   22  S3  UNL     1     -20.059  71.708  34.817  1.00  0.00     0.222 S 
HETATM   23  O3  UNL     1     -21.159  71.017  35.575  1.00  0.00    -0.219 OA
HETATM   24  O4  UNL     1     -19.086  70.660  34.368  1.00  0.00    -0.219 OA
BRANCH  22  25
HETATM   25  C16 UNL     1     -19.316  72.926  35.816  1.00  0.00     0.063 A 
HETATM   26  C17 UNL     1     -20.115  73.776  36.588  1.00  0.00     0.025 A 
HETATM   27  C18 UNL     1     -19.574  74.745  37.404  1.00  0.00     0.025 A 
HETATM   28  C19 UNL     1     -18.215  74.919  37.494  1.00  0.00     0.034 A 
HETATM   29 CL3  UNL     1     -17.481  76.140  38.520  1.00  0.00    -0.084 Cl
HETATM   30  C20 UNL     1     -17.419  74.074  36.728  1.00  0.00     0.025 A 
HETATM   31  C21 UNL     1     -17.953  73.098  35.905  1.00  0.00     0.025 A 
ENDBRANCH  22  25
ENDBRANCH   1  22
TORSDOF 8
ENDMDL
MODEL 3
REMARK VINA RESULT: -8.039705613      1.484      1.855
REMARK  8 active torsions:
REMARK  status: ('A' for Active; 'I' for Inactive)
REMARK    1  A    between atoms: S1_2  and  C1_4 
REMARK    2  A    between atoms: S1_2  and  C8_12 
REMARK    3  A    between atoms: C1_4  and  C2_5 
REMARK    4  A    between atoms: C8_12  and  S2_14 
REMARK    5  A    between atoms: C8_12  and  S3_22 
REMARK    6  A    between atoms: S2_14  and  C9_15 
REMARK    7  A    between atoms: C9_15  and  C10_16 
REMARK    8  A    between atoms: S3_22  and  C16_25 
ROOT
HETATM    1  C8  UNL     1     -20.399  71.820  33.162  1.00  0.00     0.294 C 
HETATM    2 CL2  UNL     1     -19.680  72.875  31.891  1.00  0.00    -0.072 Cl
ENDROOT
BRANCH   1   3
HETATM    3  S1  UNL     1     -21.494  70.671  32.410  1.00  0.00     0.196 S 
HETATM    4  O1  UNL     1     -21.946  69.737  33.545  1.00  0.00    -0.224 OA
HETATM    5  O2  UNL     1     -22.753  71.427  31.943  1.00  0.00    -0.224 OA
BRANCH   3   6
HETATM    6  C1  UNL     1     -20.881  69.652  31.151  1.00  0.00     0.182 C 
BRANCH   6   7
HETATM    7  C2  UNL     1     -19.540  69.089  31.341  1.00  0.00    -0.044 A 
HETATM    8  C3  UNL     1     -18.460  69.647  30.664  1.00  0.00     0.010 A 
HETATM    9  C4  UNL     1     -17.187  69.133  30.785  1.00  0.00     0.024 A 
HETATM   10  C5  UNL     1     -16.937  68.039  31.587  1.00  0.00     0.034 A 
HETATM   11 CL1  UNL     1     -15.299  67.386  31.737  1.00  0.00    -0.084 Cl
HETATM   12  C6  UNL     1     -17.992  67.477  32.262  1.00  0.00     0.024 A 
HETATM   13  C7  UNL     1     -19.280  68.012  32.128  1.00  0.00     0.010 A 
ENDBRANCH   6   7
ENDBRANCH   3   6
ENDBRANCH   1   3
BRANCH   1  14
HETATM   14  S2  UNL     1     -19.188  71.127  34.261  1.00  0.00    -0.111 SA
BRANCH  14  15
HETATM   15  C9  UNL     1     -17.472  71.275  33.840  1.00  0.00     0.082 C 
BRANCH  15  16
HETATM   16  C10 UNL     1     -16.802  72.490  34.495  1.00  0.00    -0.005 C 
HETATM   17  C11 UNL     1     -16.920  72.429  35.982  1.00  0.00     0.005 C 
HETATM   18  C12 UNL     1     -15.606  72.596  36.697  1.00  0.00     0.000 C 
HETATM   19  C13 UNL     1     -14.683  71.496  36.253  1.00  0.00     0.000 C 
HETATM   20  C14 UNL     1     -14.591  71.440  34.759  1.00  0.00     0.000 C 
HETATM   21  C15 UNL     1     -15.353  72.552  34.098  1.00  0.00     0.005 C 
ENDBRANCH  15  16
ENDBRANCH  14  15
ENDBRANCH   1  14
BRANCH   1  22
HETATM   22  S3  UNL     1     -21.391  72.992  34.165  1.00  0.00     0.222 S 
HETATM   23  O3  UNL     1     -22.145  73.854  33.191  1.00  0.00    -0.219 OA
HETATM   24  O4  UNL     1     -22.397  72.225  34.970  1.00  0.00    -0.219 OA
BRANCH  22  25
HETATM   25  C16 UNL     1     -20.351  73.976  35.157  1.00  0.00     0.063 A 
HETATM   26  C17 UNL     1     -20.331  73.788  36.543  1.00  0.00     0.025 A 
HETATM   27  C18 UNL     1     -19.516  74.533  37.368  1.00  0.00     0.025 A 
HETATM   28  C19 UNL     1     -18.684  75.498  36.860  1.00  0.00     0.034 A 
HETATM   29 CL3  UNL     1     -17.628  76.470  37.872  1.00  0.00    -0.084 Cl
HETATM   30  C20 UNL     1     -18.703  75.686  35.482  1.00  0.00     0.025 A 
HETATM   31  C21 UNL     1     -19.517  74.943  34.644  1.00  0.00     0.025 A 
ENDBRANCH  22  25
ENDBRANCH   1  22
TORSDOF 8
ENDMDL
MODEL 4
REMARK VINA RESULT: -8.002061712      3.715      5.068
REMARK  8 active torsions:
REMARK  status: ('A' for Active; 'I' for Inactive)
REMARK    1  A    between atoms: S1_2  and  C1_4 
REMARK    2  A    between atoms: S1_2  and  C8_12 
REMARK    3  A    between atoms: C1_4  and  C2_5 
REMARK    4  A    between atoms: C8_12  and  S2_14 
REMARK    5  A    between atoms: C8_12  and  S3_22 
REMARK    6  A    between atoms: S2_14  and  C9_15 
REMARK    7  A    between atoms: C9_15  and  C10_16 
REMARK    8  A    between atoms: S3_22  and  C16_25 
ROOT
HETATM    1  C8  UNL     1     -16.810  73.179  33.819  1.00  0.00     0.294 C 
HETATM    2 CL2  UNL     1     -17.947  72.761  32.486  1.00  0.00    -0.072 Cl
ENDROOT
BRANCH   1   3
HETATM    3  S1  UNL     1     -16.056  71.712  34.420  1.00  0.00     0.196 S 
HETATM    4  O1  UNL     1     -15.288  71.128  33.223  1.00  0.00    -0.224 OA
HETATM    5  O2  UNL     1     -14.997  72.099  35.469  1.00  0.00    -0.224 OA
BRANCH   3   6
HETATM    6  C1  UNL     1     -17.078  70.444  35.011  1.00  0.00     0.182 C 
BRANCH   6   7
HETATM    7  C2  UNL     1     -17.511  69.429  34.044  1.00  0.00    -0.044 A 
HETATM    8  C3  UNL     1     -18.735  69.576  33.400  1.00  0.00     0.010 A 
HETATM    9  C4  UNL     1     -19.200  68.634  32.507  1.00  0.00     0.024 A 
HETATM   10  C5  UNL     1     -18.463  67.505  32.220  1.00  0.00     0.034 A 
HETATM   11 CL1  UNL     1     -19.067  66.300  31.072  1.00  0.00    -0.084 Cl
HETATM   12  C6  UNL     1     -17.252  67.345  32.847  1.00  0.00     0.024 A 
HETATM   13  C7  UNL     1     -16.794  68.313  33.752  1.00  0.00     0.010 A 
ENDBRANCH   6   7
ENDBRANCH   3   6
ENDBRANCH   1   3
BRANCH   1  14
HETATM   14  S2  UNL     1     -15.701  74.501  33.400  1.00  0.00    -0.111 SA
BRANCH  14  15
HETATM   15  C9  UNL     1     -15.800  75.216  31.781  1.00  0.00     0.082 C 
BRANCH  15  16
HETATM   16  C10 UNL     1     -14.650  74.778  30.865  1.00  0.00    -0.005 C 
HETATM   17  C11 UNL     1     -14.771  73.334  30.507  1.00  0.00     0.005 C 
HETATM   18  C12 UNL     1     -14.701  73.072  29.028  1.00  0.00     0.000 C 
HETATM   19  C13 UNL     1     -15.824  73.817  28.362  1.00  0.00     0.000 C 
HETATM   20  C14 UNL     1     -15.818  75.263  28.752  1.00  0.00     0.000 C 
HETATM   21  C15 UNL     1     -14.642  75.616  29.616  1.00  0.00     0.005 C 
ENDBRANCH  15  16
ENDBRANCH  14  15
ENDBRANCH   1  14
BRANCH   1  22
HETATM   22  S3  UNL     1     -17.919  73.835  35.124  1.00  0.00     0.222 S 
HETATM   23  O3  UNL     1     -17.381  73.329  36.434  1.00  0.00    -0.219 OA
HETATM   24  O4  UNL     1     -17.831  75.332  35.142  1.00  0.00    -0.219 OA
BRANCH  22  25
HETATM   25  C16 UNL     1     -19.547  73.264  34.884  1.00  0.00     0.063 A 
HETATM   26  C17 UNL     1     -20.425  73.989  34.071  1.00  0.00     0.025 A 
HETATM   27  C18 UNL     1     -21.718  73.571  33.839  1.00  0.00     0.025 A 
HETATM   28  C19 UNL     1     -22.202  72.416  34.403  1.00  0.00     0.034 A 
HETATM   29 CL3  UNL     1     -23.840  71.845  34.136  1.00  0.00    -0.084 Cl
HETATM   30  C20 UNL     1     -21.329  71.695  35.211  1.00  0.00     0.025 A 
HETATM   31  C21 UNL     1     -20.029  72.106  35.449  1.00  0.00     0.025 A 
ENDBRANCH  22  25
ENDBRANCH   1  22
TORSDOF 8
ENDMDL
MODEL 5
REMARK VINA RESULT: -7.972589513      3.410      7.304
REMARK  8 active torsions:
REMARK  status: ('A' for Active; 'I' for Inactive)
REMARK    1  A    between atoms: S1_2  and  C1_4 
REMARK    2  A    between atoms: S1_2  and  C8_12 
REMARK    3  A    between atoms: C1_4  and  C2_5 
REMARK    4  A    between atoms: C8_12  and  S2_14 
REMARK    5  A    between atoms: C8_12  and  S3_22 
REMARK    6  A    between atoms: S2_14  and  C9_15 
REMARK    7  A    between atoms: C9_15  and  C10_16 
REMARK    8  A    between atoms: S3_22  and  C16_25 
ROOT
HETATM    1  C8  UNL     1     -16.937  72.344  34.460  1.00  0.00     0.294 C 
HETATM    2 CL2  UNL     1     -15.188  71.918  34.525  1.00  0.00    -0.072 Cl
ENDROOT
BRANCH   1   3
HETATM    3  S1  UNL     1     -17.234  73.736  35.488  1.00  0.00     0.196 S 
HETATM    4  O1  UNL     1     -16.350  73.523  36.728  1.00  0.00    -0.224 OA
HETATM    5  O2  UNL     1     -16.693  74.993  34.779  1.00  0.00    -0.224 OA
BRANCH   3   6
HETATM    6  C1  UNL     1     -18.843  73.999  36.072  1.00  0.00     0.182 C 
BRANCH   6   7
HETATM    7  C2  UNL     1     -19.769  74.709  35.183  1.00  0.00    -0.044 A 
HETATM    8  C3  UNL     1     -19.942  76.081  35.330  1.00  0.00     0.010 A 
HETATM    9  C4  UNL     1     -20.824  76.788  34.540  1.00  0.00     0.024 A 
HETATM   10  C5  UNL     1     -21.572  76.154  33.571  1.00  0.00     0.034 A 
HETATM   11 CL1  UNL     1     -22.702  77.068  32.561  1.00  0.00    -0.084 Cl
HETATM   12  C6  UNL     1     -21.413  74.799  33.413  1.00  0.00     0.024 A 
HETATM   13  C7  UNL     1     -20.512  74.096  34.224  1.00  0.00     0.010 A 
ENDBRANCH   6   7
ENDBRANCH   3   6
ENDBRANCH   1   3
BRANCH   1  14
HETATM   14  S2  UNL     1     -17.565  72.460  32.802  1.00  0.00    -0.111 SA
BRANCH  14  15
HETATM   15  C9  UNL     1     -16.936  73.733  31.741  1.00  0.00     0.082 C 
BRANCH  15  16
HETATM   16  C10 UNL     1     -15.412  73.671  31.575  1.00  0.00    -0.005 C 
HETATM   17  C11 UNL     1     -15.035  72.826  30.404  1.00  0.00     0.005 C 
HETATM   18  C12 UNL     1     -14.094  73.507  29.448  1.00  0.00     0.000 C 
HETATM   19  C13 UNL     1     -14.761  74.752  28.934  1.00  0.00     0.000 C 
HETATM   20  C14 UNL     1     -15.249  75.607  30.063  1.00  0.00     0.000 C 
HETATM   21  C15 UNL     1     -14.858  75.058  31.405  1.00  0.00     0.005 C 
ENDBRANCH  15  16
ENDBRANCH  14  15
ENDBRANCH   1  14
BRANCH   1  22
HETATM   22  S3  UNL     1     -17.751  70.884  35.215  1.00  0.00     0.222 S 
HETATM   23  O3  UNL     1     -16.824  70.388  36.290  1.00  0.00    -0.219 OA
HETATM   24  O4  UNL     1     -19.027  71.315  35.875  1.00  0.00    -0.219 OA
BRANCH  22  25
HETATM   25  C16 UNL     1     -18.004  69.642  34.021  1.00  0.00     0.063 A 
HETATM   26  C17 UNL     1     -16.999  68.701  33.772  1.00  0.00     0.025 A 
HETATM   27  C18 UNL     1     -17.157  67.692  32.847  1.00  0.00     0.025 A 
HETATM   28  C19 UNL     1     -18.317  67.567  32.124  1.00  0.00     0.034 A 
HETATM   29 CL3  UNL     1     -18.563  66.297  30.937  1.00  0.00    -0.084 Cl
HETATM   30  C20 UNL     1     -19.317  68.501  32.371  1.00  0.00     0.025 A 
HETATM   31  C21 UNL     1     -19.169  69.518  33.298  1.00  0.00     0.025 A 
ENDBRANCH  22  25
ENDBRANCH   1  22
TORSDOF 8
ENDMDL
