MODEL 1
REMARK VINA RESULT: -6.593302637      0.000      0.000
REMARK  6 active torsions:
REMARK  status: ('A' for Active; 'I' for Inactive)
REMARK    1  A    between atoms: C2_2  and  C3_3 
REMARK    2  A    between atoms: C3_3  and  N1_4 
REMARK    3  A    between atoms: C6_10  and  C7_11 
REMARK    4  A    between atoms: N3_16  and  C10_17 
REMARK    5  A    between atoms: C10_17  and  C11_18 
REMARK    6  A    between atoms: C11_18  and  O1_19 
ROOT
HETATM    1  C3  UNL     1      45.871  16.041   3.805  1.00  0.00     0.123 C 
HETATM    2  C4  UNL     1      46.607  14.871   4.434  1.00  0.00     0.039 C 
HETATM    3  C5  UNL     1      46.853  13.845   3.362  1.00  0.00     0.015 C 
HETATM    4  C6  UNL     1      45.473  13.329   2.932  1.00  0.00     0.055 C 
HETATM    5  C12 UNL     1      44.811  14.471   2.196  1.00  0.00     0.015 C 
HETATM    6  C13 UNL     1      45.509  15.781   2.376  1.00  0.00     0.039 C 
ENDROOT
BRANCH   4   7
HETATM    7  C7  UNL     1      45.714  12.162   2.070  1.00  0.00     0.101 A 
HETATM    8  N2  UNL     1      44.779  11.598   1.286  1.00  0.00    -0.333 N 
HETATM    9  C8  UNL     1      45.298  10.569   0.631  1.00  0.00     0.095 A 
ATOM     10  H2  UNL     1      43.812  11.915   1.207  1.00  0.00     0.168 HD
HETATM   11  C9  UNL     1      44.592   9.701  -0.318  1.00  0.00     0.091 C 
HETATM   12  N3  UNL     1      46.583  10.478   1.006  1.00  0.00    -0.277 N 
HETATM   13  N4  UNL     1      46.827  11.447   1.879  1.00  0.00    -0.285 N 
ATOM     14  H4  UNL     1      47.724  11.620   2.332  1.00  0.00     0.188 HD
BRANCH  12  15
HETATM   15  C10 UNL     1      47.478   9.458   0.492  1.00  0.00     0.176 C 
BRANCH  15  16
HETATM   16  C11 UNL     1      47.743   8.401   1.536  1.00  0.00     0.185 C 
BRANCH  16  17
HETATM   17  O1  UNL     1      48.444   9.023   2.575  1.00  0.00    -0.399 OA
ATOM     18  H1  UNL     1      49.145   8.433   2.825  1.00  0.00     0.209 HD
ENDBRANCH  16  17
ENDBRANCH  15  16
ENDBRANCH  12  15
ENDBRANCH   4   7
BRANCH   1  19
HETATM   19  C2  UNL     1      46.756  17.245   3.943  1.00  0.00     0.034 C 
HETATM   20  C1  UNL     1      47.984  17.016   4.753  1.00  0.00     0.007 C 
ENDBRANCH   1  19
BRANCH   1  21
HETATM   21  N1  UNL     1      44.653  16.243   4.564  1.00  0.00    -0.070 N 
ATOM     22  H13 UNL     1      44.199  15.362   4.805  1.00  0.00     0.275 HD
ATOM     23  H12 UNL     1      44.840  16.574   5.511  1.00  0.00     0.275 HD
ATOM     24  H11 UNL     1      44.031  16.871   4.053  1.00  0.00     0.275 HD
ENDBRANCH   1  21
TORSDOF 6
ENDMDL
MODEL 2
REMARK VINA RESULT: -6.404399924      1.404      1.794
REMARK  6 active torsions:
REMARK  status: ('A' for Active; 'I' for Inactive)
REMARK    1  A    between atoms: C2_2  and  C3_3 
REMARK    2  A    between atoms: C3_3  and  N1_4 
REMARK    3  A    between atoms: C6_10  and  C7_11 
REMARK    4  A    between atoms: N3_16  and  C10_17 
REMARK    5  A    between atoms: C10_17  and  C11_18 
REMARK    6  A    between atoms: C11_18  and  O1_19 
ROOT
HETATM    1  C3  UNL     1      45.877  16.162   3.835  1.00  0.00     0.123 C 
HETATM    2  C4  UNL     1      46.354  14.750   4.130  1.00  0.00     0.039 C 
HETATM    3  C5  UNL     1      46.311  13.967   2.847  1.00  0.00     0.015 C 
HETATM    4  C6  UNL     1      44.831  13.867   2.451  1.00  0.00     0.055 C 
HETATM    5  C12 UNL     1      44.415  15.259   2.039  1.00  0.00     0.015 C 
HETATM    6  C13 UNL     1      45.401  16.316   2.425  1.00  0.00     0.039 C 
ENDROOT
BRANCH   4   7
HETATM    7  C7  UNL     1      44.761  12.902   1.342  1.00  0.00     0.101 A 
HETATM    8  N2  UNL     1      44.789  13.245   0.043  1.00  0.00    -0.333 N 
HETATM    9  C8  UNL     1      44.709  12.159  -0.713  1.00  0.00     0.095 A 
ATOM     10  H2  UNL     1      44.861  14.199  -0.310  1.00  0.00     0.168 HD
HETATM   11  C9  UNL     1      44.708  12.123  -2.180  1.00  0.00     0.091 C 
HETATM   12  N3  UNL     1      44.629  11.110   0.120  1.00  0.00    -0.277 N 
HETATM   13  N4  UNL     1      44.660  11.569   1.364  1.00  0.00    -0.285 N 
ATOM     14  H4  UNL     1      44.615  10.996   2.206  1.00  0.00     0.188 HD
BRANCH  12  15
HETATM   15  C10 UNL     1      44.526   9.742  -0.352  1.00  0.00     0.176 C 
BRANCH  15  16
HETATM   16  C11 UNL     1      45.882   9.080  -0.372  1.00  0.00     0.185 C 
BRANCH  16  17
HETATM   17  O1  UNL     1      46.479   9.338   0.866  1.00  0.00    -0.399 OA
ATOM     18  H1  UNL     1      45.935   9.981   1.306  1.00  0.00     0.209 HD
ENDBRANCH  16  17
ENDBRANCH  15  16
ENDBRANCH  12  15
ENDBRANCH   4   7
BRANCH   1  19
HETATM   19  C2  UNL     1      47.019  17.086   4.140  1.00  0.00     0.034 C 
HETATM   20  C1  UNL     1      48.340  16.413   4.261  1.00  0.00     0.007 C 
ENDBRANCH   1  19
BRANCH   1  21
HETATM   21  N1  UNL     1      44.773  16.440   4.732  1.00  0.00    -0.070 N 
ATOM     22  H13 UNL     1      43.887  16.083   4.374  1.00  0.00     0.275 HD
ATOM     23  H12 UNL     1      44.821  15.884   5.586  1.00  0.00     0.275 HD
ATOM     24  H11 UNL     1      44.734  17.441   4.927  1.00  0.00     0.275 HD
ENDBRANCH   1  21
TORSDOF 6
ENDMDL
MODEL 3
REMARK VINA RESULT: -6.375311804      2.642      6.609
REMARK  6 active torsions:
REMARK  status: ('A' for Active; 'I' for Inactive)
REMARK    1  A    between atoms: C2_2  and  C3_3 
REMARK    2  A    between atoms: C3_3  and  N1_4 
REMARK    3  A    between atoms: C6_10  and  C7_11 
REMARK    4  A    between atoms: N3_16  and  C10_17 
REMARK    5  A    between atoms: C10_17  and  C11_18 
REMARK    6  A    between atoms: C11_18  and  O1_19 
ROOT
HETATM    1  C3  UNL     1      45.781   9.824  -0.231  1.00  0.00     0.123 C 
HETATM    2  C4  UNL     1      44.563  10.232   0.580  1.00  0.00     0.039 C 
HETATM    3  C5  UNL     1      44.727  11.674   0.973  1.00  0.00     0.015 C 
HETATM    4  C6  UNL     1      45.935  11.730   1.919  1.00  0.00     0.055 C 
HETATM    5  C12 UNL     1      47.147  11.448   1.063  1.00  0.00     0.015 C 
HETATM    6  C13 UNL     1      46.810  10.909  -0.291  1.00  0.00     0.039 C 
ENDROOT
BRANCH   4   7
HETATM    7  C7  UNL     1      45.950  13.083   2.496  1.00  0.00     0.101 A 
HETATM    8  N2  UNL     1      45.208  14.106   2.037  1.00  0.00    -0.333 N 
HETATM    9  C8  UNL     1      45.440  15.192   2.762  1.00  0.00     0.095 A 
ATOM     10  H2  UNL     1      44.564  14.055   1.249  1.00  0.00     0.168 HD
HETATM   11  C9  UNL     1      44.821  16.509   2.569  1.00  0.00     0.091 C 
HETATM   12  N3  UNL     1      46.343  14.853   3.694  1.00  0.00    -0.277 N 
HETATM   13  N4  UNL     1      46.647  13.573   3.526  1.00  0.00    -0.285 N 
ATOM     14  H4  UNL     1      47.310  13.045   4.094  1.00  0.00     0.188 HD
BRANCH  12  15
HETATM   15  C10 UNL     1      46.844  15.795   4.677  1.00  0.00     0.176 C 
BRANCH  15  16
HETATM   16  C11 UNL     1      48.184  16.347   4.257  1.00  0.00     0.185 C 
BRANCH  16  17
HETATM   17  O1  UNL     1      48.435  17.463   5.062  1.00  0.00    -0.399 OA
ATOM     18  H1  UNL     1      48.729  18.158   4.485  1.00  0.00     0.209 HD
ENDBRANCH  16  17
ENDBRANCH  15  16
ENDBRANCH  12  15
ENDBRANCH   4   7
BRANCH   1  19
HETATM   19  C2  UNL     1      45.293   9.445  -1.599  1.00  0.00     0.034 C 
HETATM   20  C1  UNL     1      43.927   8.856  -1.624  1.00  0.00     0.007 C 
ENDBRANCH   1  19
BRANCH   1  21
HETATM   21  N1  UNL     1      46.363   8.666   0.417  1.00  0.00    -0.070 N 
ATOM     22  H13 UNL     1      47.364   8.588   0.239  1.00  0.00     0.275 HD
ATOM     23  H12 UNL     1      46.402   8.770   1.430  1.00  0.00     0.275 HD
ATOM     24  H11 UNL     1      45.855   7.826   0.136  1.00  0.00     0.275 HD
ENDBRANCH   1  21
TORSDOF 6
ENDMDL
MODEL 4
REMARK VINA RESULT: -6.338400260      2.239      2.778
REMARK  6 active torsions:
REMARK  status: ('A' for Active; 'I' for Inactive)
REMARK    1  A    between atoms: C2_2  and  C3_3 
REMARK    2  A    between atoms: C3_3  and  N1_4 
REMARK    3  A    between atoms: C6_10  and  C7_11 
REMARK    4  A    between atoms: N3_16  and  C10_17 
REMARK    5  A    between atoms: C10_17  and  C11_18 
REMARK    6  A    between atoms: C11_18  and  O1_19 
ROOT
HETATM    1  C3  UNL     1      45.906  16.199   3.888  1.00  0.00     0.123 C 
HETATM    2  C4  UNL     1      46.306  14.758   4.156  1.00  0.00     0.039 C 
HETATM    3  C5  UNL     1      46.278  14.017   2.848  1.00  0.00     0.015 C 
HETATM    4  C6  UNL     1      44.812  13.998   2.393  1.00  0.00     0.055 C 
HETATM    5  C12 UNL     1      44.477  15.421   2.010  1.00  0.00     0.015 C 
HETATM    6  C13 UNL     1      45.493  16.418   2.467  1.00  0.00     0.039 C 
ENDROOT
BRANCH   4   7
HETATM    7  C7  UNL     1      44.742  13.073   1.252  1.00  0.00     0.101 A 
HETATM    8  N2  UNL     1      44.744  11.733   1.367  1.00  0.00    -0.333 N 
HETATM    9  C8  UNL     1      44.671  11.176   0.166  1.00  0.00     0.095 A 
ATOM     10  H2  UNL     1      44.794  11.221   2.248  1.00  0.00     0.168 HD
HETATM   11  C9  UNL     1      44.649   9.737  -0.121  1.00  0.00     0.091 C 
HETATM   12  N3  UNL     1      44.623  12.177  -0.725  1.00  0.00    -0.277 N 
HETATM   13  N4  UNL     1      44.667  13.324  -0.059  1.00  0.00    -0.285 N 
ATOM     14  H4  UNL     1      44.647  14.252  -0.481  1.00  0.00     0.188 HD
BRANCH  12  15
HETATM   15  C10 UNL     1      44.539  11.949  -2.155  1.00  0.00     0.176 C 
BRANCH  15  16
HETATM   16  C11 UNL     1      45.879  12.172  -2.813  1.00  0.00     0.185 C 
BRANCH  16  17
HETATM   17  O1  UNL     1      46.264  13.483  -2.517  1.00  0.00    -0.399 OA
ATOM     18  H1  UNL     1      47.138  13.600  -2.870  1.00  0.00     0.209 HD
ENDBRANCH  16  17
ENDBRANCH  15  16
ENDBRANCH  12  15
ENDBRANCH   4   7
BRANCH   1  19
HETATM   19  C2  UNL     1      47.076  17.060   4.266  1.00  0.00     0.034 C 
HETATM   20  C1  UNL     1      48.388  16.357   4.249  1.00  0.00     0.007 C 
ENDBRANCH   1  19
BRANCH   1  21
HETATM   21  N1  UNL     1      44.782  16.502   4.751  1.00  0.00    -0.070 N 
ATOM     22  H13 UNL     1      44.834  17.445   5.136  1.00  0.00     0.275 HD
ATOM     23  H12 UNL     1      43.912  16.606   4.228  1.00  0.00     0.275 HD
ATOM     24  H11 UNL     1      44.709  15.792   5.480  1.00  0.00     0.275 HD
ENDBRANCH   1  21
TORSDOF 6
ENDMDL
MODEL 5
REMARK VINA RESULT: -6.181478769      3.575      4.473
REMARK  6 active torsions:
REMARK  status: ('A' for Active; 'I' for Inactive)
REMARK    1  A    between atoms: C2_2  and  C3_3 
REMARK    2  A    between atoms: C3_3  and  N1_4 
REMARK    3  A    between atoms: C6_10  and  C7_11 
REMARK    4  A    between atoms: N3_16  and  C10_17 
REMARK    5  A    between atoms: C10_17  and  C11_18 
REMARK    6  A    between atoms: C11_18  and  O1_19 
ROOT
HETATM    1  C3  UNL     1      45.961  16.380   4.268  1.00  0.00     0.123 C 
HETATM    2  C4  UNL     1      45.935  14.869   4.112  1.00  0.00     0.039 C 
HETATM    3  C5  UNL     1      45.905  14.553   2.643  1.00  0.00     0.015 C 
HETATM    4  C6  UNL     1      44.565  15.081   2.113  1.00  0.00     0.055 C 
HETATM    5  C12 UNL     1      44.665  16.588   2.157  1.00  0.00     0.015 C 
HETATM    6  C13 UNL     1      45.827  17.087   2.956  1.00  0.00     0.039 C 
ENDROOT
BRANCH   4   7
HETATM    7  C7  UNL     1      44.424  14.562   0.744  1.00  0.00     0.101 A 
HETATM    8  N2  UNL     1      44.776  13.320   0.369  1.00  0.00    -0.333 N 
HETATM    9  C8  UNL     1      44.529  13.151  -0.922  1.00  0.00     0.095 A 
ATOM     10  H2  UNL     1      45.176  12.613   0.986  1.00  0.00     0.168 HD
HETATM   11  C9  UNL     1      44.779  11.931  -1.699  1.00  0.00     0.091 C 
HETATM   12  N3  UNL     1      44.011  14.303  -1.374  1.00  0.00    -0.277 N 
HETATM   13  N4  UNL     1      43.951  15.154  -0.358  1.00  0.00    -0.285 N 
ATOM     14  H4  UNL     1      43.599  16.109  -0.408  1.00  0.00     0.188 HD
BRANCH  12  15
HETATM   15  C10 UNL     1      43.614  14.494  -2.756  1.00  0.00     0.176 C 
BRANCH  15  16
HETATM   16  C11 UNL     1      42.829  15.773  -2.916  1.00  0.00     0.185 C 
BRANCH  16  17
HETATM   17  O1  UNL     1      41.760  15.708  -2.016  1.00  0.00    -0.399 OA
ATOM     18  H1  UNL     1      41.348  16.564  -2.016  1.00  0.00     0.209 HD
ENDBRANCH  16  17
ENDBRANCH  15  16
ENDBRANCH  12  15
ENDBRANCH   4   7
BRANCH   1  19
HETATM   19  C2  UNL     1      47.246  16.730   4.959  1.00  0.00     0.034 C 
HETATM   20  C1  UNL     1      48.473  16.367   4.198  1.00  0.00     0.007 C 
ENDBRANCH   1  19
BRANCH   1  21
HETATM   21  N1  UNL     1      44.840  16.746   5.110  1.00  0.00    -0.070 N 
ATOM     22  H13 UNL     1      44.413  15.935   5.558  1.00  0.00     0.275 HD
ATOM     23  H12 UNL     1      45.136  17.238   5.953  1.00  0.00     0.275 HD
ATOM     24  H11 UNL     1      44.165  17.285   4.567  1.00  0.00     0.275 HD
ENDBRANCH   1  21
TORSDOF 6
ENDMDL
