MODEL 1
REMARK VINA RESULT: -5.414547793      0.000      0.000
REMARK  8 active torsions:
REMARK  status: ('A' for Active; 'I' for Inactive)
REMARK    1  A    between atoms: N1_2  and  C2_3 
REMARK    2  A    between atoms: N1_2  and  C9_13 
REMARK    3  A    between atoms: C2_3  and  C3_4 
REMARK    4  A    between atoms: N2_8  and  C7_9 
REMARK    5  A    between atoms: C7_9  and  C8_10 
REMARK    6  A    between atoms: C8_10  and  O1_11 
REMARK    7  A    between atoms: C9_13  and  S1_18 
REMARK    8  A    between atoms: N3_14  and  O2_16 
ROOT
HETATM    1  C2  UNL     1      46.330  12.763   2.986  1.00  0.00     0.101 C 
ENDROOT
BRANCH   1   2
HETATM    2  N1  UNL     1      46.034  11.800   2.007  1.00  0.00    -0.342 N 
HETATM    3  C1  UNL     1      44.626  11.703   1.562  1.00  0.00     0.157 C 
BRANCH   2   4
HETATM    4  C9  UNL     1      46.909  10.949   1.343  1.00  0.00     0.177 C 
HETATM    5  N3  UNL     1      47.541  10.069   2.066  1.00  0.00    -0.246 N 
ATOM      6  H3  UNL     1      47.365  10.047   3.070  1.00  0.00     0.196 HD
BRANCH   5   7
HETATM    7  O2  UNL     1      48.425   9.176   1.543  1.00  0.00    -0.288 OA
ATOM      8  H2  UNL     1      49.025   8.669   2.076  1.00  0.00     0.244 HD
ENDBRANCH   5   7
BRANCH   4   9
HETATM    9  S1  UNL     1      47.227  11.031  -0.395  1.00  0.00    -0.007 SA
HETATM   10  S2  UNL     1      46.304   9.469  -1.466  1.00  0.00    -0.005 SA
ENDBRANCH   4   9
ENDBRANCH   2   4
ENDBRANCH   1   2
BRANCH   1  11
HETATM   11  C3  UNL     1      46.047  14.193   2.753  1.00  0.00     0.261 C 
HETATM   12  C4  UNL     1      44.863  14.527   1.918  1.00  0.00     0.043 C 
HETATM   13  C5  UNL     1      44.169  15.677   2.569  1.00  0.00     0.033 C 
HETATM   14  C6  UNL     1      45.003  16.027   3.775  1.00  0.00     0.273 C 
HETATM   15  N2  UNL     1      45.976  14.991   3.955  1.00  0.00     0.100 N 
BRANCH  15  16
HETATM   16  C7  UNL     1      47.237  15.595   4.274  1.00  0.00     0.299 C 
BRANCH  16  17
HETATM   17  C8  UNL     1      47.109  17.038   4.679  1.00  0.00     0.194 C 
BRANCH  17  18
HETATM   18  O1  UNL     1      48.393  17.445   5.107  1.00  0.00    -0.399 OA
ATOM     19  H1  UNL     1      48.348  18.387   5.224  1.00  0.00     0.209 HD
ENDBRANCH  17  18
ENDBRANCH  16  17
ENDBRANCH  15  16
ENDBRANCH   1  11
TORSDOF 8
ENDMDL
MODEL 2
REMARK VINA RESULT: -5.366894622      1.348      1.596
REMARK  8 active torsions:
REMARK  status: ('A' for Active; 'I' for Inactive)
REMARK    1  A    between atoms: N1_2  and  C2_3 
REMARK    2  A    between atoms: N1_2  and  C9_13 
REMARK    3  A    between atoms: C2_3  and  C3_4 
REMARK    4  A    between atoms: N2_8  and  C7_9 
REMARK    5  A    between atoms: C7_9  and  C8_10 
REMARK    6  A    between atoms: C8_10  and  O1_11 
REMARK    7  A    between atoms: C9_13  and  S1_18 
REMARK    8  A    between atoms: N3_14  and  O2_16 
ROOT
HETATM    1  C2  UNL     1      44.478  13.395   1.736  1.00  0.00     0.101 C 
ENDROOT
BRANCH   1   2
HETATM    2  N1  UNL     1      45.013  12.499   0.795  1.00  0.00    -0.342 N 
HETATM    3  C1  UNL     1      44.945  12.897  -0.628  1.00  0.00     0.157 C 
BRANCH   2   4
HETATM    4  C9  UNL     1      45.662  11.292   1.028  1.00  0.00     0.177 C 
HETATM    5  N3  UNL     1      46.666  11.310   1.857  1.00  0.00    -0.246 N 
ATOM      6  H3  UNL     1      46.924  12.197   2.289  1.00  0.00     0.196 HD
BRANCH   5   7
HETATM    7  O2  UNL     1      47.388  10.200   2.172  1.00  0.00    -0.288 OA
ATOM      8  H2  UNL     1      48.143   9.914   1.673  1.00  0.00     0.244 HD
ENDBRANCH   5   7
BRANCH   4   9
HETATM    9  S1  UNL     1      45.220   9.773   0.235  1.00  0.00    -0.007 SA
HETATM   10  S2  UNL     1      46.562   9.233  -1.295  1.00  0.00    -0.005 SA
ENDBRANCH   4   9
ENDBRANCH   2   4
ENDBRANCH   1   2
BRANCH   1  11
HETATM   11  C3  UNL     1      45.004  14.769   1.858  1.00  0.00     0.261 C 
HETATM   12  C4  UNL     1      44.219  15.859   1.220  1.00  0.00     0.043 C 
HETATM   13  C5  UNL     1      44.204  17.010   2.170  1.00  0.00     0.033 C 
HETATM   14  C6  UNL     1      45.032  16.576   3.352  1.00  0.00     0.273 C 
HETATM   15  N2  UNL     1      45.302  15.176   3.211  1.00  0.00     0.100 N 
BRANCH  15  16
HETATM   16  C7  UNL     1      46.674  14.935   3.555  1.00  0.00     0.299 C 
BRANCH  16  17
HETATM   17  C8  UNL     1      47.226  15.959   4.508  1.00  0.00     0.194 C 
BRANCH  17  18
HETATM   18  O1  UNL     1      48.416  16.446   3.921  1.00  0.00    -0.399 OA
ATOM     19  H1  UNL     1      48.320  16.323   2.984  1.00  0.00     0.209 HD
ENDBRANCH  17  18
ENDBRANCH  16  17
ENDBRANCH  15  16
ENDBRANCH   1  11
TORSDOF 8
ENDMDL
MODEL 3
REMARK VINA RESULT: -5.339310466      4.360      6.277
REMARK  8 active torsions:
REMARK  status: ('A' for Active; 'I' for Inactive)
REMARK    1  A    between atoms: N1_2  and  C2_3 
REMARK    2  A    between atoms: N1_2  and  C9_13 
REMARK    3  A    between atoms: C2_3  and  C3_4 
REMARK    4  A    between atoms: N2_8  and  C7_9 
REMARK    5  A    between atoms: C7_9  and  C8_10 
REMARK    6  A    between atoms: C8_10  and  O1_11 
REMARK    7  A    between atoms: C9_13  and  S1_18 
REMARK    8  A    between atoms: N3_14  and  O2_16 
ROOT
HETATM    1  C2  UNL     1      44.462  13.407   1.686  1.00  0.00     0.101 C 
ENDROOT
BRANCH   1   2
HETATM    2  N1  UNL     1      45.177  14.278   2.525  1.00  0.00    -0.342 N 
HETATM    3  C1  UNL     1      46.462  13.786   3.069  1.00  0.00     0.157 C 
BRANCH   2   4
HETATM    4  C9  UNL     1      44.866  15.587   2.874  1.00  0.00     0.177 C 
HETATM    5  N3  UNL     1      44.386  16.351   1.936  1.00  0.00    -0.246 N 
ATOM      6  H3  UNL     1      44.263  15.959   1.003  1.00  0.00     0.196 HD
BRANCH   5   7
HETATM    7  O2  UNL     1      44.040  17.651   2.143  1.00  0.00    -0.288 OA
ATOM      8  H2  UNL     1      44.490  18.215   2.761  1.00  0.00     0.244 HD
ENDBRANCH   5   7
BRANCH   4   9
HETATM    9  S1  UNL     1      45.123  16.257   4.492  1.00  0.00    -0.007 SA
HETATM   10  S2  UNL     1      47.067  17.024   4.755  1.00  0.00    -0.005 SA
ENDBRANCH   4   9
ENDBRANCH   2   4
ENDBRANCH   1   2
BRANCH   1  11
HETATM   11  C3  UNL     1      45.056  12.906   0.431  1.00  0.00     0.261 C 
HETATM   12  C4  UNL     1      45.418  11.466   0.374  1.00  0.00     0.043 C 
HETATM   13  C5  UNL     1      45.001  10.954  -0.965  1.00  0.00     0.033 C 
HETATM   14  C6  UNL     1      44.428  12.142  -1.695  1.00  0.00     0.273 C 
HETATM   15  N2  UNL     1      44.291  13.214  -0.755  1.00  0.00     0.100 N 
BRANCH  15  16
HETATM   16  C7  UNL     1      44.730  14.430  -1.376  1.00  0.00     0.299 C 
BRANCH  16  17
HETATM   17  C8  UNL     1      43.591  15.339  -1.751  1.00  0.00     0.194 C 
BRANCH  17  18
HETATM   18  O1  UNL     1      43.175  15.968  -0.556  1.00  0.00    -0.399 OA
ATOM     19  H1  UNL     1      43.518  16.854  -0.588  1.00  0.00     0.209 HD
ENDBRANCH  17  18
ENDBRANCH  16  17
ENDBRANCH  15  16
ENDBRANCH   1  11
TORSDOF 8
ENDMDL
MODEL 4
REMARK VINA RESULT: -5.339134878      1.645      1.896
REMARK  8 active torsions:
REMARK  status: ('A' for Active; 'I' for Inactive)
REMARK    1  A    between atoms: N1_2  and  C2_3 
REMARK    2  A    between atoms: N1_2  and  C9_13 
REMARK    3  A    between atoms: C2_3  and  C3_4 
REMARK    4  A    between atoms: N2_8  and  C7_9 
REMARK    5  A    between atoms: C7_9  and  C8_10 
REMARK    6  A    between atoms: C8_10  and  O1_11 
REMARK    7  A    between atoms: C9_13  and  S1_18 
REMARK    8  A    between atoms: N3_14  and  O2_16 
ROOT
HETATM    1  C2  UNL     1      44.480  12.985   1.371  1.00  0.00     0.101 C 
ENDROOT
BRANCH   1   2
HETATM    2  N1  UNL     1      45.161  12.079   0.540  1.00  0.00    -0.342 N 
HETATM    3  C1  UNL     1      45.249  12.419  -0.896  1.00  0.00     0.157 C 
BRANCH   2   4
HETATM    4  C9  UNL     1      45.827  10.913   0.901  1.00  0.00     0.177 C 
HETATM    5  N3  UNL     1      46.774  11.023   1.787  1.00  0.00    -0.246 N 
ATOM      6  H3  UNL     1      46.979  11.946   2.169  1.00  0.00     0.196 HD
BRANCH   5   7
HETATM    7  O2  UNL     1      47.504   9.962   2.228  1.00  0.00    -0.288 OA
ATOM      8  H2  UNL     1      47.166   9.320   2.842  1.00  0.00     0.244 HD
ENDBRANCH   5   7
BRANCH   4   9
HETATM    9  S1  UNL     1      45.479   9.328   0.195  1.00  0.00    -0.007 SA
HETATM   10  S2  UNL     1      46.879   8.767  -1.274  1.00  0.00    -0.005 SA
ENDBRANCH   4   9
ENDBRANCH   2   4
ENDBRANCH   1   2
BRANCH   1  11
HETATM   11  C3  UNL     1      44.941  14.380   1.509  1.00  0.00     0.261 C 
HETATM   12  C4  UNL     1      44.216  15.419   0.731  1.00  0.00     0.043 C 
HETATM   13  C5  UNL     1      44.036  16.600   1.626  1.00  0.00     0.033 C 
HETATM   14  C6  UNL     1      44.710  16.236   2.923  1.00  0.00     0.273 C 
HETATM   15  N2  UNL     1      45.040  14.843   2.874  1.00  0.00     0.100 N 
BRANCH  15  16
HETATM   16  C7  UNL     1      46.360  14.663   3.407  1.00  0.00     0.299 C 
BRANCH  16  17
HETATM   17  C8  UNL     1      46.577  15.411   4.694  1.00  0.00     0.194 C 
BRANCH  17  18
HETATM   18  O1  UNL     1      46.019  14.611   5.717  1.00  0.00    -0.399 OA
ATOM     19  H1  UNL     1      46.750  14.190   6.155  1.00  0.00     0.209 HD
ENDBRANCH  17  18
ENDBRANCH  16  17
ENDBRANCH  15  16
ENDBRANCH   1  11
TORSDOF 8
ENDMDL
MODEL 5
REMARK VINA RESULT: -5.333108615      2.118      2.702
REMARK  8 active torsions:
REMARK  status: ('A' for Active; 'I' for Inactive)
REMARK    1  A    between atoms: N1_2  and  C2_3 
REMARK    2  A    between atoms: N1_2  and  C9_13 
REMARK    3  A    between atoms: C2_3  and  C3_4 
REMARK    4  A    between atoms: N2_8  and  C7_9 
REMARK    5  A    between atoms: C7_9  and  C8_10 
REMARK    6  A    between atoms: C8_10  and  O1_11 
REMARK    7  A    between atoms: C9_13  and  S1_18 
REMARK    8  A    between atoms: N3_14  and  O2_16 
ROOT
HETATM    1  C2  UNL     1      46.493  13.806   2.962  1.00  0.00     0.101 C 
ENDROOT
BRANCH   1   2
HETATM    2  N1  UNL     1      45.712  12.968   2.148  1.00  0.00    -0.342 N 
HETATM    3  C1  UNL     1      44.505  13.563   1.533  1.00  0.00     0.157 C 
BRANCH   2   4
HETATM    4  C9  UNL     1      45.954  11.648   1.787  1.00  0.00     0.177 C 
HETATM    5  N3  UNL     1      47.011  11.081   2.292  1.00  0.00    -0.246 N 
ATOM      6  H3  UNL     1      47.603  11.625   2.919  1.00  0.00     0.196 HD
BRANCH   5   7
HETATM    7  O2  UNL     1      47.363   9.794   2.022  1.00  0.00    -0.288 OA
ATOM      8  H2  UNL     1      48.261   9.485   2.057  1.00  0.00     0.244 HD
ENDBRANCH   5   7
BRANCH   4   9
HETATM    9  S1  UNL     1      44.933  10.736   0.666  1.00  0.00    -0.007 SA
HETATM   10  S2  UNL     1      45.449  11.058  -1.351  1.00  0.00    -0.005 SA
ENDBRANCH   4   9
ENDBRANCH   2   4
ENDBRANCH   1   2
BRANCH   1  11
HETATM   11  C3  UNL     1      45.912  15.008   3.590  1.00  0.00     0.261 C 
HETATM   12  C4  UNL     1      45.984  15.106   5.072  1.00  0.00     0.043 C 
HETATM   13  C5  UNL     1      46.352  16.513   5.407  1.00  0.00     0.033 C 
HETATM   14  C6  UNL     1      46.449  17.235   4.088  1.00  0.00     0.273 C 
HETATM   15  N2  UNL     1      46.389  16.257   3.044  1.00  0.00     0.100 N 
BRANCH  15  16
HETATM   16  C7  UNL     1      45.534  16.748   2.001  1.00  0.00     0.299 C 
BRANCH  16  17
HETATM   17  C8  UNL     1      44.131  17.016   2.473  1.00  0.00     0.194 C 
BRANCH  17  18
HETATM   18  O1  UNL     1      43.298  16.872   1.341  1.00  0.00    -0.399 OA
ATOM     19  H1  UNL     1      42.473  17.288   1.563  1.00  0.00     0.209 HD
ENDBRANCH  17  18
ENDBRANCH  16  17
ENDBRANCH  15  16
ENDBRANCH   1  11
TORSDOF 8
ENDMDL
