MODEL 1
REMARK VINA RESULT: -6.022220662      0.000      0.000
REMARK  5 active torsions:
REMARK  status: ('A' for Active; 'I' for Inactive)
REMARK    1  A    between atoms: O1_2  and  C2_3 
REMARK    2  A    between atoms: C2_3  and  C3_5 
REMARK    3  A    between atoms: C3_5  and  C4_6 
REMARK    4  A    between atoms: C4_6  and  C5_7 
REMARK    5  A    between atoms: C5_7  and  C6_9 
ROOT
HETATM    1  C6  UNL     1      45.206  13.969   1.650  1.00  0.00     0.202 C 
HETATM    2  C7  UNL     1      44.425  12.910   0.999  1.00  0.00     0.066 C 
HETATM    3  C8  UNL     1      44.748  11.512   1.387  1.00  0.00     0.129 C 
HETATM    4  O3  UNL     1      44.584  10.720   0.216  1.00  0.00    -0.385 OA
HETATM    5  C9  UNL     1      45.750  10.857  -0.493  1.00  0.00     0.168 C 
HETATM    6  C10 UNL     1      46.828  10.928   0.535  1.00  0.00     0.035 C 
HETATM    7  C11 UNL     1      46.130  11.230   1.844  1.00  0.00     0.042 C 
HETATM    8  C12 UNL     1      46.693  12.358   2.614  1.00  0.00     0.239 C 
HETATM    9  N1  UNL     1      45.768  13.415   2.897  1.00  0.00    -0.069 N 
ATOM     10  H11 UNL     1      45.034  13.113   3.539  1.00  0.00     0.277 HD
ATOM     11  H12 UNL     1      46.190  14.140   3.476  1.00  0.00     0.277 HD
ENDROOT
BRANCH   1  12
HETATM   12  C5  UNL     1      44.578  15.256   1.967  1.00  0.00     0.089 C 
HETATM   13  S1  UNL     1      44.017  16.088   0.422  1.00  0.00    -0.090 SA
BRANCH  12  14
HETATM   14  C4  UNL     1      45.251  16.224   2.834  1.00  0.00     0.028 C 
BRANCH  14  15
HETATM   15  C3  UNL     1      44.776  16.453   4.211  1.00  0.00     0.112 C 
BRANCH  15  16
HETATM   16  C2  UNL     1      45.921  16.119   5.141  1.00  0.00     0.258 C 
HETATM   17  O2  UNL     1      46.125  14.945   5.523  1.00  0.00    -0.265 OA
BRANCH  16  18
HETATM   18  O1  UNL     1      46.785  17.105   5.602  1.00  0.00    -0.326 OA
HETATM   19  C1  UNL     1      48.028  17.366   4.972  1.00  0.00     0.213 C 
ENDBRANCH  16  18
ENDBRANCH  15  16
ENDBRANCH  14  15
ENDBRANCH  12  14
ENDBRANCH   1  12
TORSDOF 5
ENDMDL
MODEL 2
REMARK VINA RESULT: -6.011191887      0.949      1.024
REMARK  5 active torsions:
REMARK  status: ('A' for Active; 'I' for Inactive)
REMARK    1  A    between atoms: O1_2  and  C2_3 
REMARK    2  A    between atoms: C2_3  and  C3_5 
REMARK    3  A    between atoms: C3_5  and  C4_6 
REMARK    4  A    between atoms: C4_6  and  C5_7 
REMARK    5  A    between atoms: C5_7  and  C6_9 
ROOT
HETATM    1  C6  UNL     1      45.038  14.010   1.632  1.00  0.00     0.202 C 
HETATM    2  C7  UNL     1      44.388  12.841   1.026  1.00  0.00     0.066 C 
HETATM    3  C8  UNL     1      44.815  11.509   1.529  1.00  0.00     0.129 C 
HETATM    4  O3  UNL     1      44.781  10.626   0.412  1.00  0.00    -0.385 OA
HETATM    5  C9  UNL     1      45.964  10.822  -0.254  1.00  0.00     0.168 C 
HETATM    6  C10 UNL     1      46.979  11.064   0.812  1.00  0.00     0.035 C 
HETATM    7  C11 UNL     1      46.192  11.388   2.064  1.00  0.00     0.042 C 
HETATM    8  C12 UNL     1      46.613  12.614   2.774  1.00  0.00     0.239 C 
HETATM    9  N1  UNL     1      45.585  13.597   2.939  1.00  0.00    -0.069 N 
ATOM     10  H11 UNL     1      44.851  13.272   3.569  1.00  0.00     0.277 HD
ATOM     11  H12 UNL     1      45.910  14.396   3.481  1.00  0.00     0.277 HD
ENDROOT
BRANCH   1  12
HETATM   12  C5  UNL     1      44.282  15.252   1.828  1.00  0.00     0.089 C 
HETATM   13  S1  UNL     1      44.122  16.157   0.231  1.00  0.00    -0.090 SA
BRANCH  12  14
HETATM   14  C4  UNL     1      44.642  16.187   2.893  1.00  0.00     0.028 C 
BRANCH  14  15
HETATM   15  C3  UNL     1      45.836  17.044   2.765  1.00  0.00     0.112 C 
BRANCH  15  16
HETATM   16  C2  UNL     1      46.367  17.283   4.161  1.00  0.00     0.258 C 
HETATM   17  O2  UNL     1      45.598  17.360   5.144  1.00  0.00    -0.265 OA
BRANCH  16  18
HETATM   18  O1  UNL     1      47.729  17.424   4.398  1.00  0.00    -0.326 OA
HETATM   19  C1  UNL     1      48.626  16.331   4.287  1.00  0.00     0.213 C 
ENDBRANCH  16  18
ENDBRANCH  15  16
ENDBRANCH  14  15
ENDBRANCH  12  14
ENDBRANCH   1  12
TORSDOF 5
ENDMDL
MODEL 3
REMARK VINA RESULT: -6.008903421      1.510      2.081
REMARK  5 active torsions:
REMARK  status: ('A' for Active; 'I' for Inactive)
REMARK    1  A    between atoms: O1_2  and  C2_3 
REMARK    2  A    between atoms: C2_3  and  C3_5 
REMARK    3  A    between atoms: C3_5  and  C4_6 
REMARK    4  A    between atoms: C4_6  and  C5_7 
REMARK    5  A    between atoms: C5_7  and  C6_9 
ROOT
HETATM    1  C6  UNL     1      44.471  13.495   1.046  1.00  0.00     0.202 C 
HETATM    2  C7  UNL     1      45.386  12.387   1.345  1.00  0.00     0.066 C 
HETATM    3  C8  UNL     1      45.996  11.696   0.179  1.00  0.00     0.129 C 
HETATM    4  O3  UNL     1      46.106  10.322   0.535  1.00  0.00    -0.385 OA
HETATM    5  C9  UNL     1      44.872   9.774   0.292  1.00  0.00     0.168 C 
HETATM    6  C10 UNL     1      44.372  10.463  -0.933  1.00  0.00     0.035 C 
HETATM    7  C11 UNL     1      45.234  11.697  -1.093  1.00  0.00     0.042 C 
HETATM    8  C12 UNL     1      44.496  12.962  -1.288  1.00  0.00     0.239 C 
HETATM    9  N1  UNL     1      44.773  13.977  -0.316  1.00  0.00    -0.069 N 
ATOM     10  H11 UNL     1      45.731  14.319  -0.391  1.00  0.00     0.277 HD
ATOM     11  H12 UNL     1      44.282  14.845  -0.527  1.00  0.00     0.277 HD
ENDROOT
BRANCH   1  12
HETATM   12  C5  UNL     1      44.411  14.660   1.936  1.00  0.00     0.089 C 
HETATM   13  S1  UNL     1      44.093  16.190   0.961  1.00  0.00    -0.090 SA
BRANCH  12  14
HETATM   14  C4  UNL     1      45.469  14.908   2.916  1.00  0.00     0.028 C 
BRANCH  14  15
HETATM   15  C3  UNL     1      46.005  16.268   3.110  1.00  0.00     0.112 C 
BRANCH  15  16
HETATM   16  C2  UNL     1      45.600  16.715   4.498  1.00  0.00     0.258 C 
HETATM   17  O2  UNL     1      44.399  16.744   4.845  1.00  0.00    -0.265 OA
BRANCH  16  18
HETATM   18  O1  UNL     1      46.549  17.109   5.433  1.00  0.00    -0.326 OA
HETATM   19  C1  UNL     1      47.901  17.347   5.073  1.00  0.00     0.213 C 
ENDBRANCH  16  18
ENDBRANCH  15  16
ENDBRANCH  14  15
ENDBRANCH  12  14
ENDBRANCH   1  12
TORSDOF 5
ENDMDL
MODEL 4
REMARK VINA RESULT: -5.876795977      2.944      5.897
REMARK  5 active torsions:
REMARK  status: ('A' for Active; 'I' for Inactive)
REMARK    1  A    between atoms: O1_2  and  C2_3 
REMARK    2  A    between atoms: C2_3  and  C3_5 
REMARK    3  A    between atoms: C3_5  and  C4_6 
REMARK    4  A    between atoms: C4_6  and  C5_7 
REMARK    5  A    between atoms: C5_7  and  C6_9 
ROOT
HETATM    1  C6  UNL     1      45.276  14.200   2.044  1.00  0.00     0.202 C 
HETATM    2  C7  UNL     1      46.157  14.041   3.208  1.00  0.00     0.066 C 
HETATM    3  C8  UNL     1      46.012  15.047   4.292  1.00  0.00     0.129 C 
HETATM    4  O3  UNL     1      47.317  15.261   4.820  1.00  0.00    -0.385 OA
HETATM    5  C9  UNL     1      47.915  16.165   3.979  1.00  0.00     0.168 C 
HETATM    6  C10 UNL     1      46.826  17.097   3.567  1.00  0.00     0.035 C 
HETATM    7  C11 UNL     1      45.530  16.397   3.915  1.00  0.00     0.042 C 
HETATM    8  C12 UNL     1      44.533  16.338   2.827  1.00  0.00     0.239 C 
HETATM    9  N1  UNL     1      44.118  15.016   2.461  1.00  0.00    -0.069 N 
ATOM     10  H11 UNL     1      43.589  14.566   3.209  1.00  0.00     0.277 HD
ATOM     11  H12 UNL     1      43.391  15.033   1.747  1.00  0.00     0.277 HD
ENDROOT
BRANCH   1  12
HETATM   12  C5  UNL     1      44.767  13.017   1.341  1.00  0.00     0.089 C 
HETATM   13  S1  UNL     1      45.866  11.571   1.650  1.00  0.00    -0.090 SA
BRANCH  12  14
HETATM   14  C4  UNL     1      44.422  13.081  -0.080  1.00  0.00     0.028 C 
BRANCH  14  15
HETATM   15  C3  UNL     1      44.898  14.199  -0.916  1.00  0.00     0.112 C 
BRANCH  15  16
HETATM   16  C2  UNL     1      43.706  15.087  -1.198  1.00  0.00     0.258 C 
HETATM   17  O2  UNL     1      43.366  15.989  -0.400  1.00  0.00    -0.265 OA
BRANCH  16  18
HETATM   18  O1  UNL     1      42.949  14.931  -2.353  1.00  0.00    -0.326 OA
HETATM   19  C1  UNL     1      41.878  15.804  -2.670  1.00  0.00     0.213 C 
ENDBRANCH  16  18
ENDBRANCH  15  16
ENDBRANCH  14  15
ENDBRANCH  12  14
ENDBRANCH   1  12
TORSDOF 5
ENDMDL
MODEL 5
REMARK VINA RESULT: -5.847450856      1.311      1.480
REMARK  5 active torsions:
REMARK  status: ('A' for Active; 'I' for Inactive)
REMARK    1  A    between atoms: O1_2  and  C2_3 
REMARK    2  A    between atoms: C2_3  and  C3_5 
REMARK    3  A    between atoms: C3_5  and  C4_6 
REMARK    4  A    between atoms: C4_6  and  C5_7 
REMARK    5  A    between atoms: C5_7  and  C6_9 
ROOT
HETATM    1  C6  UNL     1      45.664  12.802   1.665  1.00  0.00     0.202 C 
HETATM    2  C7  UNL     1      44.675  12.232   0.742  1.00  0.00     0.066 C 
HETATM    3  C8  UNL     1      44.702  10.757   0.567  1.00  0.00     0.129 C 
HETATM    4  O3  UNL     1      44.368  10.505  -0.794  1.00  0.00    -0.385 OA
HETATM    5  C9  UNL     1      45.533  10.672  -1.500  1.00  0.00     0.168 C 
HETATM    6  C10 UNL     1      46.609  10.147  -0.610  1.00  0.00     0.035 C 
HETATM    7  C11 UNL     1      45.998  10.066   0.772  1.00  0.00     0.042 C 
HETATM    8  C12 UNL     1      46.789  10.696   1.850  1.00  0.00     0.239 C 
HETATM    9  N1  UNL     1      46.106  11.727   2.574  1.00  0.00    -0.069 N 
ATOM     10  H11 UNL     1      45.331  11.353   3.121  1.00  0.00     0.277 HD
ATOM     11  H12 UNL     1      46.674  12.089   3.339  1.00  0.00     0.277 HD
ENDROOT
BRANCH   1  12
HETATM   12  C5  UNL     1      45.320  13.973   2.480  1.00  0.00     0.089 C 
HETATM   13  S1  UNL     1      44.381  15.196   1.472  1.00  0.00    -0.090 SA
BRANCH  12  14
HETATM   14  C4  UNL     1      46.341  14.662   3.269  1.00  0.00     0.028 C 
BRANCH  14  15
HETATM   15  C3  UNL     1      46.095  14.998   4.684  1.00  0.00     0.112 C 
BRANCH  15  16
HETATM   16  C2  UNL     1      45.542  16.406   4.720  1.00  0.00     0.258 C 
HETATM   17  O2  UNL     1      44.317  16.619   4.856  1.00  0.00    -0.265 OA
BRANCH  16  18
HETATM   18  O1  UNL     1      46.378  17.510   4.603  1.00  0.00    -0.326 OA
HETATM   19  C1  UNL     1      47.752  17.449   4.948  1.00  0.00     0.213 C 
ENDBRANCH  16  18
ENDBRANCH  15  16
ENDBRANCH  14  15
ENDBRANCH  12  14
ENDBRANCH   1  12
TORSDOF 5
ENDMDL
