MODEL 1
REMARK VINA RESULT: -8.121355993      0.000      0.000
REMARK  14 active torsions:
REMARK  status: ('A' for Active; 'I' for Inactive)
REMARK    1  A    between atoms: O1_2  and  C2_3 
REMARK    2  A    between atoms: C2_3  and  C3_5 
REMARK    3  A    between atoms: C3_5  and  C5_7 
REMARK    4  A    between atoms: C7_9  and  C8_10 
REMARK    5  A    between atoms: C9_11  and  C11_13 
REMARK    6  A    between atoms: C11_13  and  C12_14 
REMARK    7  A    between atoms: C11_13  and  C16_19 
REMARK    8  A    between atoms: C18_21  and  O4_22 
REMARK    9  A    between atoms: O4_22  and  C19_23 
REMARK   10  A    between atoms: C19_23  and  C20_24 
REMARK   11  A    between atoms: C22_26  and  C23_27 
REMARK   12  A    between atoms: C29_34  and  O5_35 
REMARK   13  A    between atoms: C31_38  and  O6_39 
REMARK   14  A    between atoms: C32_41  and  O7_43 
ROOT
HETATM    1  C23 UNL     1      45.310  14.682   3.224  1.00  0.00     0.055 A 
HETATM    2  C24 UNL     1      46.587  13.930   3.354  1.00  0.00    -0.013 A 
HETATM    3  C25 UNL     1      47.487  14.703   3.888  1.00  0.00     0.019 A 
HETATM    4  C26 UNL     1      46.891  16.000   4.150  1.00  0.00     0.041 A 
HETATM    5  C27 UNL     1      47.608  17.107   4.742  1.00  0.00     0.099 C 
HETATM    6  N1  UNL     1      48.169  17.996   5.213  1.00  0.00    -0.191 NA
HETATM    7  C28 UNL     1      45.641  16.016   3.778  1.00  0.00     0.008 A 
ENDROOT
BRANCH   1   8
HETATM    8  C22 UNL     1      44.912  14.819   1.806  1.00  0.00    -0.010 C 
HETATM    9  C20 UNL     1      44.679  13.886   0.934  1.00  0.00    -0.063 C 
HETATM   10  C21 UNL     1      44.287  14.346  -0.454  1.00  0.00     0.045 C 
BRANCH   9  11
HETATM   11  C19 UNL     1      44.785  12.456   1.246  1.00  0.00     0.202 C 
BRANCH  11  12
HETATM   12  O4  UNL     1      45.754  11.817   0.465  1.00  0.00    -0.379 OA
BRANCH  12  13
HETATM   13  C18 UNL     1      45.662  10.450   0.522  1.00  0.00     0.151 C 
HETATM   14  C17 UNL     1      46.845   9.702   0.042  1.00  0.00     0.043 C 
HETATM   15  C16 UNL     1      47.568  10.252  -1.158  1.00  0.00     0.037 C 
HETATM   16  C32 UNL     1      46.788  10.323  -2.398  1.00  0.00     0.085 C 
HETATM   17  C31 UNL     1      45.399   9.709  -2.358  1.00  0.00     0.155 C 
HETATM   18  C33 UNL     1      46.630  11.750  -2.935  1.00  0.00     0.049 C 
HETATM   19  C30 UNL     1      44.409  10.443  -1.533  1.00  0.00     0.069 C 
HETATM   20  C29 UNL     1      44.360   9.937  -0.109  1.00  0.00     0.149 C 
BRANCH  15  21
HETATM   21  C11 UNL     1      48.829   9.424  -1.254  1.00  0.00     0.056 C 
BRANCH  21  22
HETATM   22  C9  UNL     1      48.727   8.202  -0.378  1.00  0.00    -0.075 C 
HETATM   23  C8  UNL     1      48.851   8.281   0.930  1.00  0.00     0.003 C 
HETATM   24  C10 UNL     1      48.461   6.889  -0.994  1.00  0.00     0.044 C 
BRANCH  23  25
HETATM   25  C7  UNL     1      48.722   7.075   1.740  1.00  0.00     0.004 C 
HETATM   26  C5  UNL     1      49.742   6.664   2.469  1.00  0.00    -0.071 C 
HETATM   27  C6  UNL     1      51.023   7.427   2.463  1.00  0.00     0.044 C 
BRANCH  26  28
HETATM   28  C3  UNL     1      49.674   5.453   3.310  1.00  0.00     0.110 C 
HETATM   29  C4  UNL     1      48.598   4.512   2.756  1.00  0.00     0.025 C 
BRANCH  28  30
HETATM   30  C2  UNL     1      49.463   5.716   4.744  1.00  0.00     0.266 C 
HETATM   31  O2  UNL     1      48.611   6.552   5.125  1.00  0.00    -0.265 OA
BRANCH  30  32
HETATM   32  O1  UNL     1      50.197   5.048   5.705  1.00  0.00    -0.326 OA
HETATM   33  C1  UNL     1      51.606   4.914   5.669  1.00  0.00     0.213 C 
ENDBRANCH  30  32
ENDBRANCH  28  30
ENDBRANCH  26  28
ENDBRANCH  23  25
ENDBRANCH  21  22
BRANCH  21  34
HETATM   34  C12 UNL     1      50.072  10.138  -0.923  1.00  0.00    -0.025 A 
HETATM   35  C13 UNL     1      50.306  11.470  -0.728  1.00  0.00     0.034 A 
HETATM   36  C14 UNL     1      51.644  11.575  -0.413  1.00  0.00     0.142 A 
HETATM   37  O3  UNL     1      52.204  10.391  -0.413  1.00  0.00    -0.334 OA
HETATM   38  C15 UNL     1      51.298   9.520  -0.712  1.00  0.00     0.149 A 
ENDBRANCH  21  34
ENDBRANCH  15  21
BRANCH  16  39
HETATM   39  O7  UNL     1      47.407   9.602  -3.415  1.00  0.00    -0.387 OA
ATOM     40  H7  UNL     1      46.764   9.247  -4.018  1.00  0.00     0.210 HD
ENDBRANCH  16  39
BRANCH  17  41
HETATM   41  O6  UNL     1      45.450   8.356  -2.124  1.00  0.00    -0.392 OA
ATOM     42  H6  UNL     1      46.097   7.888  -2.640  1.00  0.00     0.210 HD
ENDBRANCH  17  41
BRANCH  20  43
HETATM   43  O5  UNL     1      44.363   8.568  -0.016  1.00  0.00    -0.393 OA
ATOM     44  H5  UNL     1      43.572   8.249  -0.434  1.00  0.00     0.210 HD
ENDBRANCH  20  43
ENDBRANCH  12  13
ENDBRANCH  11  12
ENDBRANCH   9  11
ENDBRANCH   1   8
TORSDOF 14
ENDMDL
MODEL 2
REMARK VINA RESULT: -8.043244039      1.117      1.338
REMARK  14 active torsions:
REMARK  status: ('A' for Active; 'I' for Inactive)
REMARK    1  A    between atoms: O1_2  and  C2_3 
REMARK    2  A    between atoms: C2_3  and  C3_5 
REMARK    3  A    between atoms: C3_5  and  C5_7 
REMARK    4  A    between atoms: C7_9  and  C8_10 
REMARK    5  A    between atoms: C9_11  and  C11_13 
REMARK    6  A    between atoms: C11_13  and  C12_14 
REMARK    7  A    between atoms: C11_13  and  C16_19 
REMARK    8  A    between atoms: C18_21  and  O4_22 
REMARK    9  A    between atoms: O4_22  and  C19_23 
REMARK   10  A    between atoms: C19_23  and  C20_24 
REMARK   11  A    between atoms: C22_26  and  C23_27 
REMARK   12  A    between atoms: C29_34  and  O5_35 
REMARK   13  A    between atoms: C31_38  and  O6_39 
REMARK   14  A    between atoms: C32_41  and  O7_43 
ROOT
HETATM    1  C23 UNL     1      45.326  14.638   3.250  1.00  0.00     0.055 A 
HETATM    2  C24 UNL     1      46.614  13.913   3.414  1.00  0.00    -0.013 A 
HETATM    3  C25 UNL     1      47.500  14.722   3.920  1.00  0.00     0.019 A 
HETATM    4  C26 UNL     1      46.882  16.019   4.126  1.00  0.00     0.041 A 
HETATM    5  C27 UNL     1      47.579  17.161   4.675  1.00  0.00     0.099 C 
HETATM    6  N1  UNL     1      48.123  18.077   5.110  1.00  0.00    -0.191 NA
HETATM    7  C28 UNL     1      45.633  15.999   3.749  1.00  0.00     0.008 A 
ENDROOT
BRANCH   1   8
HETATM    8  C22 UNL     1      44.931  14.711   1.826  1.00  0.00    -0.010 C 
HETATM    9  C20 UNL     1      44.725  13.739   0.990  1.00  0.00    -0.063 C 
HETATM   10  C21 UNL     1      44.329  14.136  -0.416  1.00  0.00     0.045 C 
BRANCH   9  11
HETATM   11  C19 UNL     1      44.863  12.326   1.358  1.00  0.00     0.202 C 
BRANCH  11  12
HETATM   12  O4  UNL     1      45.811  11.666   0.567  1.00  0.00    -0.379 OA
BRANCH  12  13
HETATM   13  C18 UNL     1      45.641  10.305   0.563  1.00  0.00     0.151 C 
HETATM   14  C17 UNL     1      46.786   9.512   0.065  1.00  0.00     0.043 C 
HETATM   15  C16 UNL     1      47.557  10.071  -1.100  1.00  0.00     0.037 C 
HETATM   16  C32 UNL     1      46.800  10.240  -2.346  1.00  0.00     0.085 C 
HETATM   17  C31 UNL     1      45.378   9.706  -2.349  1.00  0.00     0.155 C 
HETATM   18  C33 UNL     1      46.731  11.695  -2.822  1.00  0.00     0.049 C 
HETATM   19  C30 UNL     1      44.419  10.458  -1.505  1.00  0.00     0.069 C 
HETATM   20  C29 UNL     1      44.322   9.895  -0.105  1.00  0.00     0.149 C 
BRANCH  15  21
HETATM   21  C11 UNL     1      48.771   9.177  -1.217  1.00  0.00     0.056 C 
BRANCH  21  22
HETATM   22  C9  UNL     1      48.931   8.340   0.025  1.00  0.00    -0.075 C 
HETATM   23  C8  UNL     1      49.688   8.733   1.027  1.00  0.00     0.003 C 
HETATM   24  C10 UNL     1      48.208   7.059   0.134  1.00  0.00     0.044 C 
BRANCH  23  25
HETATM   25  C7  UNL     1      49.797   7.899   2.219  1.00  0.00     0.004 C 
HETATM   26  C5  UNL     1      50.825   7.085   2.358  1.00  0.00    -0.071 C 
HETATM   27  C6  UNL     1      51.872   7.014   1.298  1.00  0.00     0.044 C 
BRANCH  26  28
HETATM   28  C3  UNL     1      50.992   6.218   3.540  1.00  0.00     0.110 C 
HETATM   29  C4  UNL     1      49.655   6.113   4.284  1.00  0.00     0.025 C 
BRANCH  28  30
HETATM   30  C2  UNL     1      52.076   6.628   4.450  1.00  0.00     0.266 C 
HETATM   31  O2  UNL     1      52.371   7.837   4.594  1.00  0.00    -0.265 OA
BRANCH  30  32
HETATM   32  O1  UNL     1      52.793   5.691   5.169  1.00  0.00    -0.326 OA
HETATM   33  C1  UNL     1      53.876   4.951   4.638  1.00  0.00     0.213 C 
ENDBRANCH  30  32
ENDBRANCH  28  30
ENDBRANCH  26  28
ENDBRANCH  23  25
ENDBRANCH  21  22
BRANCH  21  34
HETATM   34  C12 UNL     1      50.037   9.876  -1.481  1.00  0.00    -0.025 A 
HETATM   35  C13 UNL     1      51.231   9.403  -1.950  1.00  0.00     0.034 A 
HETATM   36  C14 UNL     1      52.064  10.500  -2.032  1.00  0.00     0.142 A 
HETATM   37  O3  UNL     1      51.432  11.579  -1.642  1.00  0.00    -0.334 OA
HETATM   38  C15 UNL     1      50.231  11.241  -1.310  1.00  0.00     0.149 A 
ENDBRANCH  21  34
ENDBRANCH  15  21
BRANCH  16  39
HETATM   39  O7  UNL     1      47.392   9.530  -3.386  1.00  0.00    -0.387 OA
ATOM     40  H7  UNL     1      46.850   9.557  -4.166  1.00  0.00     0.210 HD
ENDBRANCH  16  39
BRANCH  17  41
HETATM   41  O6  UNL     1      45.350   8.342  -2.175  1.00  0.00    -0.392 OA
ATOM     42  H6  UNL     1      45.711   7.841  -2.897  1.00  0.00     0.210 HD
ENDBRANCH  17  41
BRANCH  20  43
HETATM   43  O5  UNL     1      44.246   8.526  -0.073  1.00  0.00    -0.393 OA
ATOM     44  H5  UNL     1      43.581   8.258  -0.697  1.00  0.00     0.210 HD
ENDBRANCH  20  43
ENDBRANCH  12  13
ENDBRANCH  11  12
ENDBRANCH   9  11
ENDBRANCH   1   8
TORSDOF 14
ENDMDL
MODEL 3
REMARK VINA RESULT: -7.978250201      3.267      4.835
REMARK  14 active torsions:
REMARK  status: ('A' for Active; 'I' for Inactive)
REMARK    1  A    between atoms: O1_2  and  C2_3 
REMARK    2  A    between atoms: C2_3  and  C3_5 
REMARK    3  A    between atoms: C3_5  and  C5_7 
REMARK    4  A    between atoms: C7_9  and  C8_10 
REMARK    5  A    between atoms: C9_11  and  C11_13 
REMARK    6  A    between atoms: C11_13  and  C12_14 
REMARK    7  A    between atoms: C11_13  and  C16_19 
REMARK    8  A    between atoms: C18_21  and  O4_22 
REMARK    9  A    between atoms: O4_22  and  C19_23 
REMARK   10  A    between atoms: C19_23  and  C20_24 
REMARK   11  A    between atoms: C22_26  and  C23_27 
REMARK   12  A    between atoms: C29_34  and  O5_35 
REMARK   13  A    between atoms: C31_38  and  O6_39 
REMARK   14  A    between atoms: C32_41  and  O7_43 
ROOT
HETATM    1  C23 UNL     1      45.315  14.705   3.242  1.00  0.00     0.055 A 
HETATM    2  C24 UNL     1      46.586  13.942   3.366  1.00  0.00    -0.013 A 
HETATM    3  C25 UNL     1      47.493  14.704   3.905  1.00  0.00     0.019 A 
HETATM    4  C26 UNL     1      46.909  16.004   4.175  1.00  0.00     0.041 A 
HETATM    5  C27 UNL     1      47.635  17.102   4.774  1.00  0.00     0.099 C 
HETATM    6  N1  UNL     1      48.204  17.983   5.249  1.00  0.00    -0.191 NA
HETATM    7  C28 UNL     1      45.658  16.033   3.804  1.00  0.00     0.008 A 
ENDROOT
BRANCH   1   8
HETATM    8  C22 UNL     1      44.917  14.855   1.825  1.00  0.00    -0.010 C 
HETATM    9  C20 UNL     1      44.590  13.933   0.972  1.00  0.00    -0.063 C 
HETATM   10  C21 UNL     1      44.228  14.404  -0.420  1.00  0.00     0.045 C 
BRANCH   9  11
HETATM   11  C19 UNL     1      44.564  12.505   1.310  1.00  0.00     0.202 C 
BRANCH  11  12
HETATM   12  O4  UNL     1      44.560  11.695   0.168  1.00  0.00    -0.379 OA
BRANCH  12  13
HETATM   13  C18 UNL     1      45.619  10.824   0.135  1.00  0.00     0.151 C 
HETATM   14  C17 UNL     1      46.530  10.958  -1.023  1.00  0.00     0.043 C 
HETATM   15  C16 UNL     1      45.908  11.271  -2.357  1.00  0.00     0.037 C 
HETATM   16  C32 UNL     1      44.974  10.268  -2.880  1.00  0.00     0.085 C 
HETATM   17  C31 UNL     1      44.854   8.979  -2.084  1.00  0.00     0.155 C 
HETATM   18  C33 UNL     1      43.553  10.805  -3.076  1.00  0.00     0.049 C 
HETATM   19  C30 UNL     1      44.188   9.111  -0.766  1.00  0.00     0.069 C 
HETATM   20  C29 UNL     1      45.173   9.371   0.352  1.00  0.00     0.149 C 
BRANCH  15  21
HETATM   21  C11 UNL     1      47.081  11.571  -3.262  1.00  0.00     0.056 C 
BRANCH  21  22
HETATM   22  C9  UNL     1      48.380  11.255  -2.566  1.00  0.00    -0.075 C 
HETATM   23  C8  UNL     1      48.938  12.105  -1.732  1.00  0.00     0.003 C 
HETATM   24  C10 UNL     1      49.033   9.954  -2.807  1.00  0.00     0.044 C 
BRANCH  23  25
HETATM   25  C7  UNL     1      50.185  11.747  -1.064  1.00  0.00     0.004 C 
HETATM   26  C5  UNL     1      51.264  12.481  -1.254  1.00  0.00    -0.071 C 
HETATM   27  C6  UNL     1      51.212  13.671  -2.151  1.00  0.00     0.044 C 
BRANCH  26  28
HETATM   28  C3  UNL     1      52.554  12.171  -0.607  1.00  0.00     0.110 C 
HETATM   29  C4  UNL     1      53.372  13.459  -0.465  1.00  0.00     0.025 C 
BRANCH  28  30
HETATM   30  C2  UNL     1      53.335  11.115  -1.276  1.00  0.00     0.266 C 
HETATM   31  O2  UNL     1      54.153  11.399  -2.182  1.00  0.00    -0.265 OA
BRANCH  30  32
HETATM   32  O1  UNL     1      53.187   9.789  -0.921  1.00  0.00    -0.326 OA
HETATM   33  C1  UNL     1      52.491   8.836  -1.703  1.00  0.00     0.213 C 
ENDBRANCH  30  32
ENDBRANCH  28  30
ENDBRANCH  26  28
ENDBRANCH  23  25
ENDBRANCH  21  22
BRANCH  21  34
HETATM   34  C12 UNL     1      47.142  12.950  -3.769  1.00  0.00    -0.025 A 
HETATM   35  C13 UNL     1      46.485  14.076  -3.361  1.00  0.00     0.034 A 
HETATM   36  C14 UNL     1      46.945  15.095  -4.168  1.00  0.00     0.142 A 
HETATM   37  O3  UNL     1      47.828  14.634  -5.020  1.00  0.00    -0.334 OA
HETATM   38  C15 UNL     1      47.964  13.368  -4.808  1.00  0.00     0.149 A 
ENDBRANCH  21  34
ENDBRANCH  15  21
BRANCH  16  39
HETATM   39  O7  UNL     1      45.383   9.813  -4.130  1.00  0.00    -0.387 OA
ATOM     40  H7  UNL     1      44.639   9.526  -4.645  1.00  0.00     0.210 HD
ENDBRANCH  16  39
BRANCH  17  41
HETATM   41  O6  UNL     1      46.042   8.286  -2.060  1.00  0.00    -0.392 OA
ATOM     42  H6  UNL     1      46.728   8.692  -1.544  1.00  0.00     0.210 HD
ENDBRANCH  17  41
BRANCH  20  43
HETATM   43  O5  UNL     1      46.289   8.578   0.290  1.00  0.00    -0.393 OA
ATOM     44  H5  UNL     1      46.264   7.985   1.033  1.00  0.00     0.210 HD
ENDBRANCH  20  43
ENDBRANCH  12  13
ENDBRANCH  11  12
ENDBRANCH   9  11
ENDBRANCH   1   8
TORSDOF 14
ENDMDL
MODEL 4
REMARK VINA RESULT: -7.905877737      1.675      2.499
REMARK  14 active torsions:
REMARK  status: ('A' for Active; 'I' for Inactive)
REMARK    1  A    between atoms: O1_2  and  C2_3 
REMARK    2  A    between atoms: C2_3  and  C3_5 
REMARK    3  A    between atoms: C3_5  and  C5_7 
REMARK    4  A    between atoms: C7_9  and  C8_10 
REMARK    5  A    between atoms: C9_11  and  C11_13 
REMARK    6  A    between atoms: C11_13  and  C12_14 
REMARK    7  A    between atoms: C11_13  and  C16_19 
REMARK    8  A    between atoms: C18_21  and  O4_22 
REMARK    9  A    between atoms: O4_22  and  C19_23 
REMARK   10  A    between atoms: C19_23  and  C20_24 
REMARK   11  A    between atoms: C22_26  and  C23_27 
REMARK   12  A    between atoms: C29_34  and  O5_35 
REMARK   13  A    between atoms: C31_38  and  O6_39 
REMARK   14  A    between atoms: C32_41  and  O7_43 
ROOT
HETATM    1  C23 UNL     1      45.294  14.750   3.128  1.00  0.00     0.055 A 
HETATM    2  C24 UNL     1      46.560  13.976   3.227  1.00  0.00    -0.013 A 
HETATM    3  C25 UNL     1      47.472  14.716   3.790  1.00  0.00     0.019 A 
HETATM    4  C26 UNL     1      46.894  16.010   4.101  1.00  0.00     0.041 A 
HETATM    5  C27 UNL     1      47.626  17.084   4.734  1.00  0.00     0.099 C 
HETATM    6  N1  UNL     1      48.200  17.947   5.237  1.00  0.00    -0.191 NA
HETATM    7  C28 UNL     1      45.643  16.057   3.732  1.00  0.00     0.008 A 
ENDROOT
BRANCH   1   8
HETATM    8  C22 UNL     1      44.896  14.946   1.717  1.00  0.00    -0.010 C 
HETATM    9  C20 UNL     1      44.568  14.053   0.833  1.00  0.00    -0.063 C 
HETATM   10  C21 UNL     1      44.207  14.570  -0.542  1.00  0.00     0.045 C 
BRANCH   9  11
HETATM   11  C19 UNL     1      44.540  12.615   1.124  1.00  0.00     0.202 C 
BRANCH  11  12
HETATM   12  O4  UNL     1      44.637  11.842  -0.038  1.00  0.00    -0.379 OA
BRANCH  12  13
HETATM   13  C18 UNL     1      45.392  10.710   0.140  1.00  0.00     0.151 C 
HETATM   14  C17 UNL     1      46.638  10.633  -0.652  1.00  0.00     0.043 C 
HETATM   15  C16 UNL     1      46.596  11.166  -2.058  1.00  0.00     0.037 C 
HETATM   16  C32 UNL     1      45.669  10.489  -2.972  1.00  0.00     0.085 C 
HETATM   17  C31 UNL     1      44.970   9.253  -2.430  1.00  0.00     0.155 C 
HETATM   18  C33 UNL     1      44.577  11.412  -3.523  1.00  0.00     0.049 C 
HETATM   19  C30 UNL     1      43.960   9.509  -1.377  1.00  0.00     0.069 C 
HETATM   20  C29 UNL     1      44.548   9.434   0.014  1.00  0.00     0.149 C 
BRANCH  15  21
HETATM   21  C11 UNL     1      48.038  11.163  -2.510  1.00  0.00     0.056 C 
BRANCH  21  22
HETATM   22  C9  UNL     1      48.920  10.538  -1.459  1.00  0.00    -0.075 C 
HETATM   23  C8  UNL     1      49.355   9.302  -1.573  1.00  0.00     0.003 C 
HETATM   24  C10 UNL     1      49.323  11.334  -0.284  1.00  0.00     0.044 C 
BRANCH  23  25
HETATM   25  C7  UNL     1      50.224   8.746  -0.542  1.00  0.00     0.004 C 
HETATM   26  C5  UNL     1      49.852   7.665   0.116  1.00  0.00    -0.071 C 
HETATM   27  C6  UNL     1      48.546   7.014  -0.192  1.00  0.00     0.044 C 
BRANCH  26  28
HETATM   28  C3  UNL     1      50.687   7.054   1.169  1.00  0.00     0.110 C 
HETATM   29  C4  UNL     1      50.380   5.555   1.253  1.00  0.00     0.025 C 
BRANCH  28  30
HETATM   30  C2  UNL     1      50.570   7.697   2.490  1.00  0.00     0.266 C 
HETATM   31  O2  UNL     1      49.459   8.089   2.917  1.00  0.00    -0.265 OA
BRANCH  30  32
HETATM   32  O1  UNL     1      51.679   7.881   3.292  1.00  0.00    -0.326 OA
HETATM   33  C1  UNL     1      52.064   6.991   4.323  1.00  0.00     0.213 C 
ENDBRANCH  30  32
ENDBRANCH  28  30
ENDBRANCH  26  28
ENDBRANCH  23  25
ENDBRANCH  21  22
BRANCH  21  34
HETATM   34  C12 UNL     1      48.586  12.482  -2.860  1.00  0.00    -0.025 A 
HETATM   35  C13 UNL     1      49.877  12.885  -3.054  1.00  0.00     0.034 A 
HETATM   36  C14 UNL     1      49.809  14.220  -3.392  1.00  0.00     0.142 A 
HETATM   37  O3  UNL     1      48.562  14.620  -3.407  1.00  0.00    -0.334 OA
HETATM   38  C15 UNL     1      47.815  13.613  -3.096  1.00  0.00     0.149 A 
ENDBRANCH  21  34
ENDBRANCH  15  21
BRANCH  16  39
HETATM   39  O7  UNL     1      46.342   9.993  -4.084  1.00  0.00    -0.387 OA
ATOM     40  H7  UNL     1      46.257  10.585  -4.823  1.00  0.00     0.210 HD
ENDBRANCH  16  39
BRANCH  17  41
HETATM   41  O6  UNL     1      45.867   8.254  -2.134  1.00  0.00    -0.392 OA
ATOM     42  H6  UNL     1      45.927   8.034  -1.212  1.00  0.00     0.210 HD
ENDBRANCH  17  41
BRANCH  20  43
HETATM   43  O5  UNL     1      45.384   8.362   0.195  1.00  0.00    -0.393 OA
ATOM     44  H5  UNL     1      45.823   8.195  -0.631  1.00  0.00     0.210 HD
ENDBRANCH  20  43
ENDBRANCH  12  13
ENDBRANCH  11  12
ENDBRANCH   9  11
ENDBRANCH   1   8
TORSDOF 14
ENDMDL
MODEL 5
REMARK VINA RESULT: -7.699878942      1.075      1.610
REMARK  14 active torsions:
REMARK  status: ('A' for Active; 'I' for Inactive)
REMARK    1  A    between atoms: O1_2  and  C2_3 
REMARK    2  A    between atoms: C2_3  and  C3_5 
REMARK    3  A    between atoms: C3_5  and  C5_7 
REMARK    4  A    between atoms: C7_9  and  C8_10 
REMARK    5  A    between atoms: C9_11  and  C11_13 
REMARK    6  A    between atoms: C11_13  and  C12_14 
REMARK    7  A    between atoms: C11_13  and  C16_19 
REMARK    8  A    between atoms: C18_21  and  O4_22 
REMARK    9  A    between atoms: O4_22  and  C19_23 
REMARK   10  A    between atoms: C19_23  and  C20_24 
REMARK   11  A    between atoms: C22_26  and  C23_27 
REMARK   12  A    between atoms: C29_34  and  O5_35 
REMARK   13  A    between atoms: C31_38  and  O6_39 
REMARK   14  A    between atoms: C32_41  and  O7_43 
ROOT
HETATM    1  C23 UNL     1      45.111  14.586   2.952  1.00  0.00     0.055 A 
HETATM    2  C24 UNL     1      46.382  13.822   3.071  1.00  0.00    -0.013 A 
HETATM    3  C25 UNL     1      47.270  14.558   3.674  1.00  0.00     0.019 A 
HETATM    4  C26 UNL     1      46.671  15.840   3.996  1.00  0.00     0.041 A 
HETATM    5  C27 UNL     1      47.375  16.906   4.673  1.00  0.00     0.099 C 
HETATM    6  N1  UNL     1      47.926  17.763   5.210  1.00  0.00    -0.191 NA
HETATM    7  C28 UNL     1      45.431  15.883   3.593  1.00  0.00     0.008 A 
ENDROOT
BRANCH   1   8
HETATM    8  C22 UNL     1      44.751  14.809   1.535  1.00  0.00    -0.010 C 
HETATM    9  C20 UNL     1      44.544  13.931   0.601  1.00  0.00    -0.063 C 
HETATM   10  C21 UNL     1      44.188  14.474  -0.765  1.00  0.00     0.045 C 
BRANCH   9  11
HETATM   11  C19 UNL     1      44.642  12.484   0.830  1.00  0.00     0.202 C 
BRANCH  11  12
HETATM   12  O4  UNL     1      44.976  11.790  -0.338  1.00  0.00    -0.379 OA
BRANCH  12  13
HETATM   13  C18 UNL     1      44.870  10.430  -0.193  1.00  0.00     0.151 C 
HETATM   14  C17 UNL     1      46.142   9.676  -0.208  1.00  0.00     0.043 C 
HETATM   15  C16 UNL     1      47.209  10.142  -1.161  1.00  0.00     0.037 C 
HETATM   16  C32 UNL     1      46.862  10.089  -2.586  1.00  0.00     0.085 C 
HETATM   17  C31 UNL     1      45.530   9.445  -2.932  1.00  0.00     0.155 C 
HETATM   18  C33 UNL     1      46.885  11.461  -3.268  1.00  0.00     0.049 C 
HETATM   19  C30 UNL     1      44.331  10.218  -2.530  1.00  0.00     0.069 C 
HETATM   20  C29 UNL     1      43.834   9.831  -1.155  1.00  0.00     0.149 C 
BRANCH  15  21
HETATM   21  C11 UNL     1      48.434   9.343  -0.781  1.00  0.00     0.056 C 
BRANCH  21  22
HETATM   22  C9  UNL     1      48.198   8.594   0.505  1.00  0.00    -0.075 C 
HETATM   23  C8  UNL     1      48.159   7.279   0.538  1.00  0.00     0.003 C 
HETATM   24  C10 UNL     1      48.029   9.347   1.762  1.00  0.00     0.044 C 
BRANCH  23  25
HETATM   25  C7  UNL     1      47.950   6.595   1.809  1.00  0.00     0.004 C 
HETATM   26  C5  UNL     1      48.909   5.844   2.315  1.00  0.00    -0.071 C 
HETATM   27  C6  UNL     1      50.202   5.692   1.588  1.00  0.00     0.044 C 
BRANCH  26  28
HETATM   28  C3  UNL     1      48.759   5.129   3.597  1.00  0.00     0.110 C 
HETATM   29  C4  UNL     1      49.314   5.997   4.730  1.00  0.00     0.025 C 
BRANCH  28  30
HETATM   30  C2  UNL     1      49.355   3.781   3.618  1.00  0.00     0.266 C 
HETATM   31  O2  UNL     1      50.358   3.534   4.328  1.00  0.00    -0.265 OA
BRANCH  30  32
HETATM   32  O1  UNL     1      48.825   2.757   2.858  1.00  0.00    -0.326 OA
HETATM   33  C1  UNL     1      47.448   2.433   2.822  1.00  0.00     0.213 C 
ENDBRANCH  30  32
ENDBRANCH  28  30
ENDBRANCH  26  28
ENDBRANCH  23  25
ENDBRANCH  21  22
BRANCH  21  34
HETATM   34  C12 UNL     1      49.674  10.124  -0.651  1.00  0.00    -0.025 A 
HETATM   35  C13 UNL     1      49.886  11.471  -0.726  1.00  0.00     0.034 A 
HETATM   36  C14 UNL     1      51.235  11.653  -0.499  1.00  0.00     0.142 A 
HETATM   37  O3  UNL     1      51.820  10.498  -0.297  1.00  0.00    -0.334 OA
HETATM   38  C15 UNL     1      50.921   9.575  -0.382  1.00  0.00     0.149 A 
ENDBRANCH  21  34
ENDBRANCH  15  21
BRANCH  16  39
HETATM   39  O7  UNL     1      47.770   9.303  -3.288  1.00  0.00    -0.387 OA
ATOM     40  H7  UNL     1      48.126   9.778  -4.030  1.00  0.00     0.210 HD
ENDBRANCH  16  39
BRANCH  17  41
HETATM   41  O6  UNL     1      45.503   8.117  -2.577  1.00  0.00    -0.392 OA
ATOM     42  H6  UNL     1      46.308   7.642  -2.752  1.00  0.00     0.210 HD
ENDBRANCH  17  41
BRANCH  20  43
HETATM   43  O5  UNL     1      43.805   8.476  -0.947  1.00  0.00    -0.393 OA
ATOM     44  H5  UNL     1      43.750   8.054  -1.797  1.00  0.00     0.210 HD
ENDBRANCH  20  43
ENDBRANCH  12  13
ENDBRANCH  11  12
ENDBRANCH   9  11
ENDBRANCH   1   8
TORSDOF 14
ENDMDL
