MODEL 1
REMARK VINA RESULT: -8.385702641      0.000      0.000
REMARK  16 active torsions:
REMARK  status: ('A' for Active; 'I' for Inactive)
REMARK    1  A    between atoms: C2_2  and  O2_4 
REMARK    2  A    between atoms: O2_4  and  C3_5 
REMARK    3  A    between atoms: C7_9  and  C8_10 
REMARK    4  A    between atoms: C8_10  and  O3_11 
REMARK    5  A    between atoms: O3_11  and  C9_12 
REMARK    6  A    between atoms: C9_12  and  C10_14 
REMARK    7  A    between atoms: C10_14  and  C11_15 
REMARK    8  A    between atoms: C11_15  and  C13_17 
REMARK    9  A    between atoms: C13_17  and  C14_18 
REMARK   10  A    between atoms: C14_18  and  C15_19 
REMARK   11  A    between atoms: C16_20  and  C17_21 
REMARK   12  A    between atoms: C17_21  and  O5_24 
REMARK   13  A    between atoms: C23_29  and  C24_30 
REMARK   14  A    between atoms: C25_31  and  C26_32 
REMARK   15  A    between atoms: C26_32  and  O6_35 
REMARK   16  A    between atoms: C32_41  and  O8_42 
ROOT
HETATM    1  C3  UNL     1      50.599   5.674   4.287  1.00  0.00     0.171 C 
HETATM    2  C4  UNL     1      50.010   6.947   3.832  1.00  0.00     0.053 C 
HETATM    3  C5  UNL     1      49.723   7.127   2.396  1.00  0.00     0.018 C 
HETATM    4  C6  UNL     1      50.669   8.175   1.815  1.00  0.00     0.023 C 
HETATM    5  C7  UNL     1      48.359   7.692   2.308  1.00  0.00    -0.048 C 
HETATM    6  C20 UNL     1      47.498   6.711   2.068  1.00  0.00    -0.013 C 
HETATM    7  C21 UNL     1      48.221   5.419   1.982  1.00  0.00     0.050 C 
HETATM    8  C22 UNL     1      48.417   4.785   3.336  1.00  0.00     0.056 C 
HETATM    9  C23 UNL     1      49.845   4.505   3.698  1.00  0.00     0.107 C 
HETATM   10  O7  UNL     1      50.636   4.062   2.671  1.00  0.00    -0.360 OA
HETATM   11  C29 UNL     1      50.497   4.815   1.506  1.00  0.00     0.088 C 
HETATM   12  C30 UNL     1      49.804   3.772   0.577  1.00  0.00     0.049 C 
HETATM   13  C31 UNL     1      51.857   5.010   0.892  1.00  0.00     0.049 C 
HETATM   14  C32 UNL     1      49.593   5.939   1.542  1.00  0.00     0.106 C 
ENDROOT
BRANCH   5  15
HETATM   15  C8  UNL     1      47.941   9.100   2.483  1.00  0.00     0.213 C 
BRANCH  15  16
HETATM   16  O3  UNL     1      47.359   9.578   1.303  1.00  0.00    -0.314 OA
BRANCH  16  17
HETATM   17  C9  UNL     1      47.183  10.933   0.987  1.00  0.00     0.283 C 
HETATM   18  O4  UNL     1      48.089  11.420   0.270  1.00  0.00    -0.260 OA
BRANCH  17  19
HETATM   19  C10 UNL     1      46.041  11.639   1.488  1.00  0.00     0.089 C 
BRANCH  19  20
HETATM   20  C11 UNL     1      45.939  12.787   2.043  1.00  0.00    -0.049 C 
HETATM   21  C12 UNL     1      44.779  13.640   1.523  1.00  0.00     0.049 C 
BRANCH  20  22
HETATM   22  C13 UNL     1      46.729  13.316   3.101  1.00  0.00     0.062 C 
BRANCH  22  23
HETATM   23  C14 UNL     1      46.446  14.051   4.084  1.00  0.00    -0.128 C 
BRANCH  23  24
HETATM   24  C15 UNL     1      46.119  14.855   5.173  1.00  0.00     0.054 C 
HETATM   25  C16 UNL     1      46.423  16.140   5.271  1.00  0.00     0.018 C 
BRANCH  25  26
HETATM   26  C17 UNL     1      47.148  16.876   4.234  1.00  0.00     0.069 C 
HETATM   27  C18 UNL     1      48.525  16.294   4.020  1.00  0.00     0.050 C 
HETATM   28  C19 UNL     1      46.348  16.924   2.962  1.00  0.00     0.050 C 
BRANCH  26  29
HETATM   29  O5  UNL     1      47.368  18.220   4.669  1.00  0.00    -0.387 OA
ATOM     30  H5  UNL     1      47.459  18.788   3.912  1.00  0.00     0.211 HD
ENDBRANCH  26  29
ENDBRANCH  25  26
ENDBRANCH  23  24
ENDBRANCH  22  23
ENDBRANCH  20  22
ENDBRANCH  19  20
ENDBRANCH  17  19
ENDBRANCH  16  17
ENDBRANCH  15  16
ENDBRANCH   5  15
BRANCH  14  31
HETATM   31  O8  UNL     1      49.382   6.401   0.220  1.00  0.00    -0.385 OA
ATOM     32  H8  UNL     1      49.754   7.273   0.169  1.00  0.00     0.210 HD
ENDBRANCH  14  31
BRANCH   1  33
HETATM   33  O2  UNL     1      51.976   5.669   3.910  1.00  0.00    -0.313 OA
BRANCH  33  34
HETATM   34  C2  UNL     1      53.007   5.897   4.772  1.00  0.00     0.255 C 
HETATM   35  C1  UNL     1      53.882   4.738   5.133  1.00  0.00     0.126 C 
HETATM   36  O1  UNL     1      53.164   7.055   5.215  1.00  0.00    -0.266 OA
ENDBRANCH  33  34
ENDBRANCH   1  33
BRANCH   9  37
HETATM   37  C24 UNL     1      49.764   3.477   4.784  1.00  0.00     0.012 C 
HETATM   38  C25 UNL     1      50.818   2.814   5.239  1.00  0.00     0.009 C 
BRANCH  38  39
HETATM   39  C26 UNL     1      50.799   1.795   6.298  1.00  0.00     0.068 C 
HETATM   40  C27 UNL     1      49.385   1.381   6.673  1.00  0.00     0.050 C 
HETATM   41  C28 UNL     1      51.619   0.569   6.012  1.00  0.00     0.050 C 
BRANCH  39  42
HETATM   42  O6  UNL     1      51.339   2.381   7.464  1.00  0.00    -0.387 OA
ATOM     43  H6  UNL     1      50.761   2.166   8.188  1.00  0.00     0.211 HD
ENDBRANCH  39  42
ENDBRANCH  38  39
ENDBRANCH   9  37
TORSDOF 16
ENDMDL
MODEL 2
REMARK VINA RESULT: -7.978229465      6.131      9.699
REMARK  16 active torsions:
REMARK  status: ('A' for Active; 'I' for Inactive)
REMARK    1  A    between atoms: C2_2  and  O2_4 
REMARK    2  A    between atoms: O2_4  and  C3_5 
REMARK    3  A    between atoms: C7_9  and  C8_10 
REMARK    4  A    between atoms: C8_10  and  O3_11 
REMARK    5  A    between atoms: O3_11  and  C9_12 
REMARK    6  A    between atoms: C9_12  and  C10_14 
REMARK    7  A    between atoms: C10_14  and  C11_15 
REMARK    8  A    between atoms: C11_15  and  C13_17 
REMARK    9  A    between atoms: C13_17  and  C14_18 
REMARK   10  A    between atoms: C14_18  and  C15_19 
REMARK   11  A    between atoms: C16_20  and  C17_21 
REMARK   12  A    between atoms: C17_21  and  O5_24 
REMARK   13  A    between atoms: C23_29  and  C24_30 
REMARK   14  A    between atoms: C25_31  and  C26_32 
REMARK   15  A    between atoms: C26_32  and  O6_35 
REMARK   16  A    between atoms: C32_41  and  O8_42 
ROOT
HETATM    1  C3  UNL     1      43.739  10.448  -2.298  1.00  0.00     0.171 C 
HETATM    2  C4  UNL     1      44.760  10.242  -1.256  1.00  0.00     0.053 C 
HETATM    3  C5  UNL     1      46.126   9.857  -1.661  1.00  0.00     0.018 C 
HETATM    4  C6  UNL     1      46.403   8.422  -1.218  1.00  0.00     0.023 C 
HETATM    5  C7  UNL     1      47.050  10.723  -0.898  1.00  0.00    -0.048 C 
HETATM    6  C20 UNL     1      47.416  11.745  -1.661  1.00  0.00    -0.013 C 
HETATM    7  C21 UNL     1      46.761  11.641  -2.987  1.00  0.00     0.050 C 
HETATM    8  C22 UNL     1      45.384  12.255  -2.993  1.00  0.00     0.056 C 
HETATM    9  C23 UNL     1      44.282  11.324  -3.402  1.00  0.00     0.107 C 
HETATM   10  O7  UNL     1      44.591  10.457  -4.416  1.00  0.00    -0.360 OA
HETATM   11  C29 UNL     1      45.818   9.819  -4.238  1.00  0.00     0.088 C 
HETATM   12  C30 UNL     1      46.643  10.464  -5.394  1.00  0.00     0.049 C 
HETATM   13  C31 UNL     1      45.677   8.377  -4.645  1.00  0.00     0.049 C 
HETATM   14  C32 UNL     1      46.560  10.123  -3.039  1.00  0.00     0.106 C 
ENDROOT
BRANCH   5  15
HETATM   15  C8  UNL     1      47.510  10.561   0.499  1.00  0.00     0.213 C 
BRANCH  15  16
HETATM   16  O3  UNL     1      47.482  11.795   1.159  1.00  0.00    -0.314 OA
BRANCH  16  17
HETATM   17  C9  UNL     1      46.488  12.201   2.061  1.00  0.00     0.283 C 
HETATM   18  O4  UNL     1      46.848  12.202   3.262  1.00  0.00    -0.260 OA
BRANCH  17  19
HETATM   19  C10 UNL     1      45.188  12.559   1.576  1.00  0.00     0.089 C 
BRANCH  19  20
HETATM   20  C11 UNL     1      44.687  13.697   1.275  1.00  0.00    -0.049 C 
HETATM   21  C12 UNL     1      44.448  13.906  -0.223  1.00  0.00     0.049 C 
BRANCH  20  22
HETATM   22  C13 UNL     1      44.288  14.735   2.162  1.00  0.00     0.062 C 
BRANCH  22  23
HETATM   23  C14 UNL     1      44.762  15.879   2.396  1.00  0.00    -0.128 C 
BRANCH  23  24
HETATM   24  C15 UNL     1      45.286  17.146   2.638  1.00  0.00     0.054 C 
HETATM   25  C16 UNL     1      46.167  17.421   3.589  1.00  0.00     0.018 C 
BRANCH  25  26
HETATM   26  C17 UNL     1      46.699  16.414   4.508  1.00  0.00     0.069 C 
HETATM   27  C18 UNL     1      45.582  15.634   5.162  1.00  0.00     0.050 C 
HETATM   28  C19 UNL     1      47.679  15.518   3.803  1.00  0.00     0.050 C 
BRANCH  26  29
HETATM   29  O5  UNL     1      47.386  17.062   5.581  1.00  0.00    -0.387 OA
ATOM     30  H5  UNL     1      46.946  16.871   6.401  1.00  0.00     0.211 HD
ENDBRANCH  26  29
ENDBRANCH  25  26
ENDBRANCH  23  24
ENDBRANCH  22  23
ENDBRANCH  20  22
ENDBRANCH  19  20
ENDBRANCH  17  19
ENDBRANCH  16  17
ENDBRANCH  15  16
ENDBRANCH   5  15
BRANCH  14  31
HETATM   31  O8  UNL     1      47.872   9.604  -3.166  1.00  0.00    -0.385 OA
ATOM     32  H8  UNL     1      47.918   8.830  -2.618  1.00  0.00     0.210 HD
ENDBRANCH  14  31
BRANCH   1  33
HETATM   33  O2  UNL     1      43.340   9.164  -2.781  1.00  0.00    -0.313 OA
BRANCH  33  34
HETATM   34  C2  UNL     1      42.279   8.460  -2.296  1.00  0.00     0.255 C 
HETATM   35  C1  UNL     1      40.910   8.865  -2.748  1.00  0.00     0.126 C 
HETATM   36  O1  UNL     1      42.503   7.522  -1.502  1.00  0.00    -0.266 OA
ENDBRANCH  33  34
ENDBRANCH   1  33
BRANCH   9  37
HETATM   37  C24 UNL     1      43.157  12.227  -3.804  1.00  0.00     0.012 C 
HETATM   38  C25 UNL     1      43.063  13.491  -3.413  1.00  0.00     0.009 C 
BRANCH  38  39
HETATM   39  C26 UNL     1      41.984  14.422  -3.773  1.00  0.00     0.068 C 
HETATM   40  C27 UNL     1      41.789  15.508  -2.728  1.00  0.00     0.050 C 
HETATM   41  C28 UNL     1      42.120  15.053  -5.129  1.00  0.00     0.050 C 
BRANCH  39  42
HETATM   42  O6  UNL     1      40.775  13.692  -3.784  1.00  0.00    -0.387 OA
ATOM     43  H6  UNL     1      40.559  13.507  -4.692  1.00  0.00     0.211 HD
ENDBRANCH  39  42
ENDBRANCH  38  39
ENDBRANCH   9  37
TORSDOF 16
ENDMDL
MODEL 3
REMARK VINA RESULT: -7.842503138      1.555      1.992
REMARK  16 active torsions:
REMARK  status: ('A' for Active; 'I' for Inactive)
REMARK    1  A    between atoms: C2_2  and  O2_4 
REMARK    2  A    between atoms: O2_4  and  C3_5 
REMARK    3  A    between atoms: C7_9  and  C8_10 
REMARK    4  A    between atoms: C8_10  and  O3_11 
REMARK    5  A    between atoms: O3_11  and  C9_12 
REMARK    6  A    between atoms: C9_12  and  C10_14 
REMARK    7  A    between atoms: C10_14  and  C11_15 
REMARK    8  A    between atoms: C11_15  and  C13_17 
REMARK    9  A    between atoms: C13_17  and  C14_18 
REMARK   10  A    between atoms: C14_18  and  C15_19 
REMARK   11  A    between atoms: C16_20  and  C17_21 
REMARK   12  A    between atoms: C17_21  and  O5_24 
REMARK   13  A    between atoms: C23_29  and  C24_30 
REMARK   14  A    between atoms: C25_31  and  C26_32 
REMARK   15  A    between atoms: C26_32  and  O6_35 
REMARK   16  A    between atoms: C32_41  and  O8_42 
ROOT
HETATM    1  C3  UNL     1      51.570   6.308   2.995  1.00  0.00     0.171 C 
HETATM    2  C4  UNL     1      50.770   7.401   2.412  1.00  0.00     0.053 C 
HETATM    3  C5  UNL     1      49.474   7.079   1.782  1.00  0.00     0.018 C 
HETATM    4  C6  UNL     1      49.572   7.299   0.274  1.00  0.00     0.023 C 
HETATM    5  C7  UNL     1      48.502   8.069   2.293  1.00  0.00    -0.048 C 
HETATM    6  C20 UNL     1      47.826   7.532   3.301  1.00  0.00    -0.013 C 
HETATM    7  C21 UNL     1      48.297   6.148   3.541  1.00  0.00     0.050 C 
HETATM    8  C22 UNL     1      49.498   6.104   4.451  1.00  0.00     0.056 C 
HETATM    9  C23 UNL     1      50.705   5.431   3.869  1.00  0.00     0.107 C 
HETATM   10  O7  UNL     1      50.450   4.322   3.107  1.00  0.00    -0.360 OA
HETATM   11  C29 UNL     1      49.423   4.515   2.183  1.00  0.00     0.088 C 
HETATM   12  C30 UNL     1      48.328   3.577   2.778  1.00  0.00     0.049 C 
HETATM   13  C31 UNL     1      49.809   3.857   0.886  1.00  0.00     0.049 C 
HETATM   14  C32 UNL     1      48.807   5.819   2.134  1.00  0.00     0.106 C 
ENDROOT
BRANCH   5  15
HETATM   15  C8  UNL     1      48.286   9.459   1.833  1.00  0.00     0.213 C 
BRANCH  15  16
HETATM   16  O3  UNL     1      46.958   9.627   1.425  1.00  0.00    -0.314 OA
BRANCH  16  17
HETATM   17  C9  UNL     1      46.487  10.697   0.649  1.00  0.00     0.283 C 
HETATM   18  O4  UNL     1      47.072  10.836  -0.451  1.00  0.00    -0.260 OA
BRANCH  17  19
HETATM   19  C10 UNL     1      45.427  11.525   1.144  1.00  0.00     0.089 C 
BRANCH  19  20
HETATM   20  C11 UNL     1      45.453  12.603   1.831  1.00  0.00    -0.049 C 
HETATM   21  C12 UNL     1      44.510  13.699   1.326  1.00  0.00     0.049 C 
BRANCH  20  22
HETATM   22  C13 UNL     1      46.201  12.865   3.013  1.00  0.00     0.062 C 
BRANCH  22  23
HETATM   23  C14 UNL     1      46.988  13.797   3.329  1.00  0.00    -0.128 C 
BRANCH  23  24
HETATM   24  C15 UNL     1      47.870  14.815   3.679  1.00  0.00     0.054 C 
HETATM   25  C16 UNL     1      47.500  16.042   4.013  1.00  0.00     0.018 C 
BRANCH  25  26
HETATM   26  C17 UNL     1      46.103  16.477   4.053  1.00  0.00     0.069 C 
HETATM   27  C18 UNL     1      45.557  16.674   2.658  1.00  0.00     0.050 C 
HETATM   28  C19 UNL     1      45.272  15.517   4.858  1.00  0.00     0.050 C 
BRANCH  26  29
HETATM   29  O5  UNL     1      46.021  17.762   4.675  1.00  0.00    -0.387 OA
ATOM     30  H5  UNL     1      46.429  17.725   5.533  1.00  0.00     0.211 HD
ENDBRANCH  26  29
ENDBRANCH  25  26
ENDBRANCH  23  24
ENDBRANCH  22  23
ENDBRANCH  20  22
ENDBRANCH  19  20
ENDBRANCH  17  19
ENDBRANCH  16  17
ENDBRANCH  15  16
ENDBRANCH   5  15
BRANCH  14  31
HETATM   31  O8  UNL     1      47.631   5.741   1.348  1.00  0.00    -0.385 OA
ATOM     32  H8  UNL     1      47.476   4.821   1.171  1.00  0.00     0.210 HD
ENDBRANCH  14  31
BRANCH   1  33
HETATM   33  O2  UNL     1      52.161   5.577   1.920  1.00  0.00    -0.313 OA
BRANCH  33  34
HETATM   34  C2  UNL     1      53.502   5.383   1.772  1.00  0.00     0.255 C 
HETATM   35  C1  UNL     1      54.128   4.248   2.521  1.00  0.00     0.126 C 
HETATM   36  O1  UNL     1      54.135   6.161   1.027  1.00  0.00    -0.266 OA
ENDBRANCH  33  34
ENDBRANCH   1  33
BRANCH   9  37
HETATM   37  C24 UNL     1      51.546   5.074   5.056  1.00  0.00     0.012 C 
HETATM   38  C25 UNL     1      51.812   3.825   5.409  1.00  0.00     0.009 C 
BRANCH  38  39
HETATM   39  C26 UNL     1      52.627   3.414   6.562  1.00  0.00     0.068 C 
HETATM   40  C27 UNL     1      51.950   3.725   7.886  1.00  0.00     0.050 C 
HETATM   41  C28 UNL     1      53.061   1.976   6.549  1.00  0.00     0.050 C 
BRANCH  39  42
HETATM   42  O6  UNL     1      53.805   4.193   6.552  1.00  0.00    -0.387 OA
ATOM     43  H6  UNL     1      54.519   3.639   6.844  1.00  0.00     0.211 HD
ENDBRANCH  39  42
ENDBRANCH  38  39
ENDBRANCH   9  37
TORSDOF 16
ENDMDL
MODEL 4
REMARK VINA RESULT: -7.670238375      2.184      3.858
REMARK  16 active torsions:
REMARK  status: ('A' for Active; 'I' for Inactive)
REMARK    1  A    between atoms: C2_2  and  O2_4 
REMARK    2  A    between atoms: O2_4  and  C3_5 
REMARK    3  A    between atoms: C7_9  and  C8_10 
REMARK    4  A    between atoms: C8_10  and  O3_11 
REMARK    5  A    between atoms: O3_11  and  C9_12 
REMARK    6  A    between atoms: C9_12  and  C10_14 
REMARK    7  A    between atoms: C10_14  and  C11_15 
REMARK    8  A    between atoms: C11_15  and  C13_17 
REMARK    9  A    between atoms: C13_17  and  C14_18 
REMARK   10  A    between atoms: C14_18  and  C15_19 
REMARK   11  A    between atoms: C16_20  and  C17_21 
REMARK   12  A    between atoms: C17_21  and  O5_24 
REMARK   13  A    between atoms: C23_29  and  C24_30 
REMARK   14  A    between atoms: C25_31  and  C26_32 
REMARK   15  A    between atoms: C26_32  and  O6_35 
REMARK   16  A    between atoms: C32_41  and  O8_42 
ROOT
HETATM    1  C3  UNL     1      51.216   8.446   0.533  1.00  0.00     0.171 C 
HETATM    2  C4  UNL     1      50.217   9.487   0.232  1.00  0.00     0.053 C 
HETATM    3  C5  UNL     1      48.898   9.080  -0.294  1.00  0.00     0.018 C 
HETATM    4  C6  UNL     1      48.767   9.533  -1.746  1.00  0.00     0.023 C 
HETATM    5  C7  UNL     1      47.888   9.834   0.479  1.00  0.00    -0.048 C 
HETATM    6  C20 UNL     1      47.424   9.062   1.454  1.00  0.00    -0.013 C 
HETATM    7  C21 UNL     1      48.091   7.739   1.408  1.00  0.00     0.050 C 
HETATM    8  C22 UNL     1      49.398   7.734   2.159  1.00  0.00     0.056 C 
HETATM    9  C23 UNL     1      50.591   7.335   1.342  1.00  0.00     0.107 C 
HETATM   10  O7  UNL     1      50.375   6.326   0.440  1.00  0.00    -0.360 OA
HETATM   11  C29 UNL     1      49.219   6.505  -0.318  1.00  0.00     0.088 C 
HETATM   12  C30 UNL     1      48.337   5.341   0.233  1.00  0.00     0.049 C 
HETATM   13  C31 UNL     1      49.507   6.108  -1.740  1.00  0.00     0.049 C 
HETATM   14  C32 UNL     1      48.445   7.699  -0.082  1.00  0.00     0.106 C 
ENDROOT
BRANCH   5  15
HETATM   15  C8  UNL     1      47.442  11.231   0.282  1.00  0.00     0.213 C 
BRANCH  15  16
HETATM   16  O3  UNL     1      46.185  11.250  -0.333  1.00  0.00    -0.314 OA
BRANCH  16  17
HETATM   17  C9  UNL     1      45.023  11.793   0.235  1.00  0.00     0.283 C 
HETATM   18  O4  UNL     1      44.464  11.053   1.078  1.00  0.00    -0.260 OA
BRANCH  17  19
HETATM   19  C10 UNL     1      44.568  13.090  -0.173  1.00  0.00     0.089 C 
BRANCH  19  20
HETATM   20  C11 UNL     1      44.473  14.190   0.474  1.00  0.00    -0.049 C 
HETATM   21  C12 UNL     1      44.085  15.397  -0.385  1.00  0.00     0.049 C 
BRANCH  20  22
HETATM   22  C13 UNL     1      44.629  14.393   1.874  1.00  0.00     0.062 C 
BRANCH  22  23
HETATM   23  C14 UNL     1      45.630  14.316   2.635  1.00  0.00    -0.128 C 
BRANCH  23  24
HETATM   24  C15 UNL     1      46.727  14.223   3.487  1.00  0.00     0.054 C 
HETATM   25  C16 UNL     1      47.098  15.173   4.332  1.00  0.00     0.018 C 
BRANCH  25  26
HETATM   26  C17 UNL     1      46.392  16.448   4.471  1.00  0.00     0.069 C 
HETATM   27  C18 UNL     1      46.551  17.292   3.228  1.00  0.00     0.050 C 
HETATM   28  C19 UNL     1      44.947  16.217   4.819  1.00  0.00     0.050 C 
BRANCH  26  29
HETATM   29  O5  UNL     1      46.984  17.209   5.525  1.00  0.00    -0.387 OA
ATOM     30  H5  UNL     1      47.910  17.002   5.585  1.00  0.00     0.211 HD
ENDBRANCH  26  29
ENDBRANCH  25  26
ENDBRANCH  23  24
ENDBRANCH  22  23
ENDBRANCH  20  22
ENDBRANCH  19  20
ENDBRANCH  17  19
ENDBRANCH  16  17
ENDBRANCH  15  16
ENDBRANCH   5  15
BRANCH  14  31
HETATM   31  O8  UNL     1      47.193   7.571  -0.733  1.00  0.00    -0.385 OA
ATOM     32  H8  UNL     1      46.627   8.247  -0.380  1.00  0.00     0.210 HD
ENDBRANCH  14  31
BRANCH   1  33
HETATM   33  O2  UNL     1      51.745   7.975  -0.707  1.00  0.00    -0.313 OA
BRANCH  33  34
HETATM   34  C2  UNL     1      52.463   8.742  -1.574  1.00  0.00     0.255 C 
HETATM   35  C1  UNL     1      52.151   8.621  -3.033  1.00  0.00     0.126 C 
HETATM   36  O1  UNL     1      53.342   9.498  -1.109  1.00  0.00    -0.266 OA
ENDBRANCH  33  34
ENDBRANCH   1  33
BRANCH   9  37
HETATM   37  C24 UNL     1      51.620   6.930   2.352  1.00  0.00     0.012 C 
HETATM   38  C25 UNL     1      51.328   6.265   3.461  1.00  0.00     0.009 C 
BRANCH  38  39
HETATM   39  C26 UNL     1      52.293   5.843   4.487  1.00  0.00     0.068 C 
HETATM   40  C27 UNL     1      51.631   5.068   5.615  1.00  0.00     0.050 C 
HETATM   41  C28 UNL     1      53.468   5.065   3.968  1.00  0.00     0.050 C 
BRANCH  39  42
HETATM   42  O6  UNL     1      52.813   7.010   5.090  1.00  0.00    -0.387 OA
ATOM     43  H6  UNL     1      52.103   7.638   5.161  1.00  0.00     0.211 HD
ENDBRANCH  39  42
ENDBRANCH  38  39
ENDBRANCH   9  37
TORSDOF 16
ENDMDL
MODEL 5
REMARK VINA RESULT: -7.548150411      1.868      4.171
REMARK  16 active torsions:
REMARK  status: ('A' for Active; 'I' for Inactive)
REMARK    1  A    between atoms: C2_2  and  O2_4 
REMARK    2  A    between atoms: O2_4  and  C3_5 
REMARK    3  A    between atoms: C7_9  and  C8_10 
REMARK    4  A    between atoms: C8_10  and  O3_11 
REMARK    5  A    between atoms: O3_11  and  C9_12 
REMARK    6  A    between atoms: C9_12  and  C10_14 
REMARK    7  A    between atoms: C10_14  and  C11_15 
REMARK    8  A    between atoms: C11_15  and  C13_17 
REMARK    9  A    between atoms: C13_17  and  C14_18 
REMARK   10  A    between atoms: C14_18  and  C15_19 
REMARK   11  A    between atoms: C16_20  and  C17_21 
REMARK   12  A    between atoms: C17_21  and  O5_24 
REMARK   13  A    between atoms: C23_29  and  C24_30 
REMARK   14  A    between atoms: C25_31  and  C26_32 
REMARK   15  A    between atoms: C26_32  and  O6_35 
REMARK   16  A    between atoms: C32_41  and  O8_42 
ROOT
HETATM    1  C3  UNL     1      48.695   4.709   1.713  1.00  0.00     0.171 C 
HETATM    2  C4  UNL     1      48.229   6.045   2.129  1.00  0.00     0.053 C 
HETATM    3  C5  UNL     1      49.203   6.993   2.704  1.00  0.00     0.018 C 
HETATM    4  C6  UNL     1      48.895   7.204   4.185  1.00  0.00     0.023 C 
HETATM    5  C7  UNL     1      48.972   8.290   2.033  1.00  0.00    -0.048 C 
HETATM    6  C20 UNL     1      49.847   8.429   1.045  1.00  0.00    -0.013 C 
HETATM    7  C21 UNL     1      50.723   7.235   0.979  1.00  0.00     0.050 C 
HETATM    8  C22 UNL     1      50.116   6.127   0.156  1.00  0.00     0.056 C 
HETATM    9  C23 UNL     1      49.949   4.825   0.880  1.00  0.00     0.107 C 
HETATM   10  O7  UNL     1      50.968   4.493   1.734  1.00  0.00    -0.360 OA
HETATM   11  C29 UNL     1      51.352   5.544   2.565  1.00  0.00     0.088 C 
HETATM   12  C30 UNL     1      52.775   5.844   2.002  1.00  0.00     0.049 C 
HETATM   13  C31 UNL     1      51.609   5.000   3.945  1.00  0.00     0.049 C 
HETATM   14  C32 UNL     1      50.634   6.789   2.442  1.00  0.00     0.106 C 
ENDROOT
BRANCH   5  15
HETATM   15  C8  UNL     1      47.936   9.302   2.334  1.00  0.00     0.213 C 
BRANCH  15  16
HETATM   16  O3  UNL     1      47.293   9.696   1.155  1.00  0.00    -0.314 OA
BRANCH  16  17
HETATM   17  C9  UNL     1      46.976  11.020   0.818  1.00  0.00     0.283 C 
HETATM   18  O4  UNL     1      47.710  11.520  -0.066  1.00  0.00    -0.260 OA
BRANCH  17  19
HETATM   19  C10 UNL     1      45.892  11.684   1.481  1.00  0.00     0.089 C 
BRANCH  19  20
HETATM   20  C11 UNL     1      45.820  12.841   2.023  1.00  0.00    -0.049 C 
HETATM   21  C12 UNL     1      44.660  13.704   1.520  1.00  0.00     0.049 C 
BRANCH  20  22
HETATM   22  C13 UNL     1      46.645  13.372   3.054  1.00  0.00     0.062 C 
BRANCH  22  23
HETATM   23  C14 UNL     1      46.388  14.083   4.062  1.00  0.00    -0.128 C 
BRANCH  23  24
HETATM   24  C15 UNL     1      46.090  14.874   5.168  1.00  0.00     0.054 C 
HETATM   25  C16 UNL     1      46.429  16.148   5.288  1.00  0.00     0.018 C 
BRANCH  25  26
HETATM   26  C17 UNL     1      47.166  16.885   4.260  1.00  0.00     0.069 C 
HETATM   27  C18 UNL     1      48.533  16.282   4.038  1.00  0.00     0.050 C 
HETATM   28  C19 UNL     1      46.366  16.962   2.989  1.00  0.00     0.050 C 
BRANCH  26  29
HETATM   29  O5  UNL     1      47.408  18.219   4.711  1.00  0.00    -0.387 OA
ATOM     30  H5  UNL     1      47.950  18.197   5.491  1.00  0.00     0.211 HD
ENDBRANCH  26  29
ENDBRANCH  25  26
ENDBRANCH  23  24
ENDBRANCH  22  23
ENDBRANCH  20  22
ENDBRANCH  19  20
ENDBRANCH  17  19
ENDBRANCH  16  17
ENDBRANCH  15  16
ENDBRANCH   5  15
BRANCH  14  31
HETATM   31  O8  UNL     1      51.332   7.794   3.154  1.00  0.00    -0.385 OA
ATOM     32  H8  UNL     1      52.257   7.587   3.091  1.00  0.00     0.210 HD
ENDBRANCH  14  31
BRANCH   1  33
HETATM   33  O2  UNL     1      48.905   3.931   2.893  1.00  0.00    -0.313 OA
BRANCH  33  34
HETATM   34  C2  UNL     1      48.268   2.757   3.158  1.00  0.00     0.255 C 
HETATM   35  C1  UNL     1      47.169   2.336   2.233  1.00  0.00     0.126 C 
HETATM   36  O1  UNL     1      48.631   2.098   4.156  1.00  0.00    -0.266 OA
ENDBRANCH  33  34
ENDBRANCH   1  33
BRANCH   9  37
HETATM   37  C24 UNL     1      49.818   3.804  -0.208  1.00  0.00     0.012 C 
HETATM   38  C25 UNL     1      48.709   3.631  -0.914  1.00  0.00     0.009 C 
BRANCH  38  39
HETATM   39  C26 UNL     1      48.521   2.647  -1.989  1.00  0.00     0.068 C 
HETATM   40  C27 UNL     1      49.398   2.939  -3.195  1.00  0.00     0.050 C 
HETATM   41  C28 UNL     1      48.702   1.215  -1.575  1.00  0.00     0.050 C 
BRANCH  39  42
HETATM   42  O6  UNL     1      47.193   2.770  -2.453  1.00  0.00    -0.387 OA
ATOM     43  H6  UNL     1      46.641   2.953  -1.702  1.00  0.00     0.211 HD
ENDBRANCH  39  42
ENDBRANCH  38  39
ENDBRANCH   9  37
TORSDOF 16
ENDMDL
