MODEL 1
REMARK VINA RESULT: -7.691006195      0.000      0.000
REMARK  13 active torsions:
REMARK  status: ('A' for Active; 'I' for Inactive)
REMARK    1  A    between atoms: C2_2  and  C3_3 
REMARK    2  A    between atoms: C3_3  and  C4_4 
REMARK    3  A    between atoms: C3_3  and  C30_40 
REMARK    4  A    between atoms: C4_4  and  O1_5 
REMARK    5  A    between atoms: C4_4  and  C5_7 
REMARK    6  A    between atoms: C5_7  and  C6_8 
REMARK    7  A    between atoms: C6_8  and  C8_10 
REMARK    8  A    between atoms: C17_19  and  O2_20 
REMARK    9  A    between atoms: O2_20  and  C18_21 
REMARK   10  A    between atoms: C21_25  and  N1_26 
REMARK   11  A    between atoms: C22_28  and  O4_29 
REMARK   12  A    between atoms: C22_28  and  C23_31 
REMARK   13  A    between atoms: C30_40  and  O7_43 
ROOT
HETATM    1  C8  UNL     1      46.227  11.477   1.415  1.00  0.00     0.129 C 
HETATM    2  C9  UNL     1      46.132  11.995  -0.027  1.00  0.00     0.038 C 
HETATM    3  C10 UNL     1      46.290  10.773  -0.878  1.00  0.00     0.005 C 
HETATM    4  C11 UNL     1      45.980  10.949  -2.311  1.00  0.00    -0.014 C 
HETATM    5  C12 UNL     1      46.295  12.408  -2.686  1.00  0.00     0.010 C 
HETATM    6  C13 UNL     1      46.648  10.048  -3.264  1.00  0.00     0.005 C 
HETATM    7  C14 UNL     1      47.361   8.874  -2.752  1.00  0.00     0.006 C 
HETATM    8  C15 UNL     1      47.524   8.779  -1.270  1.00  0.00     0.001 C 
HETATM    9  C16 UNL     1      48.600   7.834  -0.854  1.00  0.00     0.038 C 
HETATM   10  C17 UNL     1      48.105   6.748   0.028  1.00  0.00     0.141 C 
HETATM   11  C20 UNL     1      48.586   6.768   1.426  1.00  0.00     0.071 A 
HETATM   12  C21 UNL     1      49.499   7.728   2.011  1.00  0.00     0.122 A 
HETATM   13  C26 UNL     1      48.087   8.062   2.124  1.00  0.00     0.156 A 
HETATM   14  O5  UNL     1      47.358   8.790   1.235  1.00  0.00    -0.353 OA
HETATM   15  C27 UNL     1      47.892   9.994   0.852  1.00  0.00     0.269 C 
HETATM   16  O6  UNL     1      47.526  11.074   1.605  1.00  0.00    -0.355 OA
HETATM   17  C28 UNL     1      47.659  10.156  -0.630  1.00  0.00     0.014 C 
HETATM   18  C29 UNL     1      48.781  10.955  -1.196  1.00  0.00     0.021 C 
ENDROOT
BRANCH   1  19
HETATM   19  C6  UNL     1      45.761  12.499   2.402  1.00  0.00     0.013 C 
HETATM   20  C7  UNL     1      44.750  13.411   1.782  1.00  0.00     0.012 C 
BRANCH  19  21
HETATM   21  C5  UNL     1      46.932  13.313   2.971  1.00  0.00     0.039 C 
BRANCH  21  22
HETATM   22  C4  UNL     1      46.304  14.398   3.805  1.00  0.00     0.125 C 
BRANCH  22  23
HETATM   23  C3  UNL     1      46.774  15.776   3.530  1.00  0.00     0.048 C 
BRANCH  23  24
HETATM   24  C2  UNL     1      47.739  16.193   4.614  1.00  0.00     0.006 C 
HETATM   25  C1  UNL     1      49.157  16.324   4.181  1.00  0.00     0.006 C 
ENDBRANCH  23  24
BRANCH  23  26
HETATM   26  C30 UNL     1      45.692  16.820   3.441  1.00  0.00     0.057 C 
HETATM   27  C31 UNL     1      45.087  16.937   2.073  1.00  0.00     0.045 C 
HETATM   28  C32 UNL     1      44.557  16.322   4.353  1.00  0.00     0.045 C 
BRANCH  26  29
HETATM   29  O7  UNL     1      46.076  18.039   3.995  1.00  0.00    -0.390 OA
ATOM     30  H7  UNL     1      45.421  18.397   4.584  1.00  0.00     0.210 HD
ENDBRANCH  26  29
ENDBRANCH  23  26
ENDBRANCH  22  23
BRANCH  22  31
HETATM   31  O1  UNL     1      46.570  14.081   5.133  1.00  0.00    -0.395 OA
ATOM     32  H1  UNL     1      45.891  14.450   5.685  1.00  0.00     0.210 HD
ENDBRANCH  22  31
ENDBRANCH  21  22
ENDBRANCH  19  21
ENDBRANCH   1  19
BRANCH  12  33
HETATM   33  N1  UNL     1      50.144   7.317   3.270  1.00  0.00    -0.366 N 
HETATM   34  C22 UNL     1      51.157   6.557   3.304  1.00  0.00     0.115 C 
ATOM     35  H1  UNL     1      49.760   7.660   4.151  1.00  0.00     0.161 HD
BRANCH  34  36
HETATM   36  O4  UNL     1      51.721   6.064   2.147  1.00  0.00    -0.349 OA
ATOM     37  H4  UNL     1      52.323   5.329   2.166  1.00  0.00     0.219 HD
ENDBRANCH  34  36
BRANCH  34  38
HETATM   38  C23 UNL     1      51.729   6.206   4.628  1.00  0.00     0.052 C 
HETATM   39  C24 UNL     1      53.148   5.732   4.525  1.00  0.00     0.018 C 
HETATM   40  C25 UNL     1      50.914   5.096   5.248  1.00  0.00     0.018 C 
ENDBRANCH  34  38
ENDBRANCH  12  33
BRANCH  10  41
HETATM   41  O2  UNL     1      48.350   5.448  -0.512  1.00  0.00    -0.316 OA
BRANCH  41  42
HETATM   42  C18 UNL     1      49.522   5.064  -1.097  1.00  0.00     0.255 C 
HETATM   43  C19 UNL     1      49.577   4.818  -2.569  1.00  0.00     0.126 C 
HETATM   44  O3  UNL     1      50.536   4.921  -0.402  1.00  0.00    -0.266 OA
ENDBRANCH  41  42
ENDBRANCH  10  41
TORSDOF 13
ENDMDL
MODEL 2
REMARK VINA RESULT: -7.452816573      1.451      1.626
REMARK  13 active torsions:
REMARK  status: ('A' for Active; 'I' for Inactive)
REMARK    1  A    between atoms: C2_2  and  C3_3 
REMARK    2  A    between atoms: C3_3  and  C4_4 
REMARK    3  A    between atoms: C3_3  and  C30_40 
REMARK    4  A    between atoms: C4_4  and  O1_5 
REMARK    5  A    between atoms: C4_4  and  C5_7 
REMARK    6  A    between atoms: C5_7  and  C6_8 
REMARK    7  A    between atoms: C6_8  and  C8_10 
REMARK    8  A    between atoms: C17_19  and  O2_20 
REMARK    9  A    between atoms: O2_20  and  C18_21 
REMARK   10  A    between atoms: C21_25  and  N1_26 
REMARK   11  A    between atoms: C22_28  and  O4_29 
REMARK   12  A    between atoms: C22_28  and  C23_31 
REMARK   13  A    between atoms: C30_40  and  O7_43 
ROOT
HETATM    1  C8  UNL     1      46.846  10.594   1.481  1.00  0.00     0.129 C 
HETATM    2  C9  UNL     1      47.341  11.268   0.193  1.00  0.00     0.038 C 
HETATM    3  C10 UNL     1      47.635  10.133  -0.738  1.00  0.00     0.005 C 
HETATM    4  C11 UNL     1      47.885  10.510  -2.144  1.00  0.00    -0.014 C 
HETATM    5  C12 UNL     1      48.498  11.921  -2.153  1.00  0.00     0.010 C 
HETATM    6  C13 UNL     1      48.728   9.609  -2.947  1.00  0.00     0.005 C 
HETATM    7  C14 UNL     1      49.054   8.280  -2.418  1.00  0.00     0.006 C 
HETATM    8  C15 UNL     1      48.661   8.005  -1.003  1.00  0.00     0.001 C 
HETATM    9  C16 UNL     1      49.386   6.847  -0.405  1.00  0.00     0.038 C 
HETATM   10  C17 UNL     1      48.473   5.779   0.073  1.00  0.00     0.141 C 
HETATM   11  C20 UNL     1      48.419   5.568   1.536  1.00  0.00     0.071 A 
HETATM   12  C21 UNL     1      49.177   6.286   2.539  1.00  0.00     0.122 A 
HETATM   13  C26 UNL     1      47.874   6.850   2.220  1.00  0.00     0.156 A 
HETATM   14  O5  UNL     1      47.611   7.784   1.266  1.00  0.00    -0.353 OA
HETATM   15  C27 UNL     1      48.397   8.908   1.283  1.00  0.00     0.269 C 
HETATM   16  O6  UNL     1      47.928   9.951   2.030  1.00  0.00    -0.355 OA
HETATM   17  C28 UNL     1      48.734   9.262  -0.145  1.00  0.00     0.014 C 
HETATM   18  C29 UNL     1      50.076   9.905  -0.164  1.00  0.00     0.021 C 
ENDROOT
BRANCH   1  19
HETATM   19  C6  UNL     1      46.192  11.574   2.401  1.00  0.00     0.013 C 
HETATM   20  C7  UNL     1      44.845  11.969   1.885  1.00  0.00     0.012 C 
BRANCH  19  21
HETATM   21  C5  UNL     1      47.065  12.819   2.616  1.00  0.00     0.039 C 
BRANCH  21  22
HETATM   22  C4  UNL     1      46.292  13.698   3.562  1.00  0.00     0.125 C 
BRANCH  22  23
HETATM   23  C3  UNL     1      46.440  15.158   3.354  1.00  0.00     0.048 C 
BRANCH  23  24
HETATM   24  C2  UNL     1      47.263  15.735   4.481  1.00  0.00     0.006 C 
HETATM   25  C1  UNL     1      48.565  16.329   4.073  1.00  0.00     0.006 C 
ENDBRANCH  23  24
BRANCH  23  26
HETATM   26  C30 UNL     1      45.151  15.932   3.272  1.00  0.00     0.057 C 
HETATM   27  C31 UNL     1      45.315  17.304   2.687  1.00  0.00     0.045 C 
HETATM   28  C32 UNL     1      44.266  15.163   2.275  1.00  0.00     0.045 C 
BRANCH  26  29
HETATM   29  O7  UNL     1      44.434  15.909   4.466  1.00  0.00    -0.390 OA
ATOM     30  H7  UNL     1      44.581  15.115   4.967  1.00  0.00     0.210 HD
ENDBRANCH  26  29
ENDBRANCH  23  26
ENDBRANCH  22  23
BRANCH  22  31
HETATM   31  O1  UNL     1      46.721  13.374   4.845  1.00  0.00    -0.395 OA
ATOM     32  H1  UNL     1      47.446  12.763   4.786  1.00  0.00     0.210 HD
ENDBRANCH  22  31
ENDBRANCH  21  22
ENDBRANCH  19  21
ENDBRANCH   1  19
BRANCH  12  33
HETATM   33  N1  UNL     1      49.271   5.639   3.860  1.00  0.00    -0.366 N 
HETATM   34  C22 UNL     1      50.156   4.778   4.139  1.00  0.00     0.115 C 
ATOM     35  H1  UNL     1      48.594   5.896   4.579  1.00  0.00     0.161 HD
BRANCH  34  36
HETATM   36  O4  UNL     1      51.098   4.391   3.208  1.00  0.00    -0.349 OA
ATOM     37  H4  UNL     1      51.971   4.126   3.471  1.00  0.00     0.219 HD
ENDBRANCH  34  36
BRANCH  34  38
HETATM   38  C23 UNL     1      50.159   4.188   5.501  1.00  0.00     0.052 C 
HETATM   39  C24 UNL     1      51.508   4.271   6.151  1.00  0.00     0.018 C 
HETATM   40  C25 UNL     1      49.773   2.730   5.418  1.00  0.00     0.018 C 
ENDBRANCH  34  38
ENDBRANCH  12  33
BRANCH  10  41
HETATM   41  O2  UNL     1      48.726   4.520  -0.553  1.00  0.00    -0.316 OA
BRANCH  41  42
HETATM   42  C18 UNL     1      49.968   3.982  -0.730  1.00  0.00     0.255 C 
HETATM   43  C19 UNL     1      50.537   3.854  -2.105  1.00  0.00     0.126 C 
HETATM   44  O3  UNL     1      50.618   3.603   0.252  1.00  0.00    -0.266 OA
ENDBRANCH  41  42
ENDBRANCH  10  41
TORSDOF 13
ENDMDL
MODEL 3
REMARK VINA RESULT: -7.411978526      3.348      6.273
REMARK  13 active torsions:
REMARK  status: ('A' for Active; 'I' for Inactive)
REMARK    1  A    between atoms: C2_2  and  C3_3 
REMARK    2  A    between atoms: C3_3  and  C4_4 
REMARK    3  A    between atoms: C3_3  and  C30_40 
REMARK    4  A    between atoms: C4_4  and  O1_5 
REMARK    5  A    between atoms: C4_4  and  C5_7 
REMARK    6  A    between atoms: C5_7  and  C6_8 
REMARK    7  A    between atoms: C6_8  and  C8_10 
REMARK    8  A    between atoms: C17_19  and  O2_20 
REMARK    9  A    between atoms: O2_20  and  C18_21 
REMARK   10  A    between atoms: C21_25  and  N1_26 
REMARK   11  A    between atoms: C22_28  and  O4_29 
REMARK   12  A    between atoms: C22_28  and  C23_31 
REMARK   13  A    between atoms: C30_40  and  O7_43 
ROOT
HETATM    1  C8  UNL     1      46.144  11.498   1.211  1.00  0.00     0.129 C 
HETATM    2  C9  UNL     1      47.159  10.530   1.834  1.00  0.00     0.038 C 
HETATM    3  C10 UNL     1      47.739   9.789   0.670  1.00  0.00     0.005 C 
HETATM    4  C11 UNL     1      48.934   8.971   0.964  1.00  0.00    -0.014 C 
HETATM    5  C12 UNL     1      48.836   8.503   2.426  1.00  0.00     0.010 C 
HETATM    6  C13 UNL     1      49.189   7.810   0.098  1.00  0.00     0.005 C 
HETATM    7  C14 UNL     1      48.426   7.669  -1.147  1.00  0.00     0.006 C 
HETATM    8  C15 UNL     1      47.297   8.626  -1.356  1.00  0.00     0.001 C 
HETATM    9  C16 UNL     1      46.320   8.168  -2.385  1.00  0.00     0.038 C 
HETATM   10  C17 UNL     1      46.165   9.132  -3.502  1.00  0.00     0.141 C 
HETATM   11  C20 UNL     1      44.854   9.809  -3.608  1.00  0.00     0.071 A 
HETATM   12  C21 UNL     1      43.710   9.613  -2.744  1.00  0.00     0.122 A 
HETATM   13  C26 UNL     1      44.619  10.675  -2.342  1.00  0.00     0.156 A 
HETATM   14  O5  UNL     1      45.691  10.548  -1.514  1.00  0.00    -0.353 OA
HETATM   15  C27 UNL     1      45.464   9.919  -0.317  1.00  0.00     0.269 C 
HETATM   16  O6  UNL     1      45.114  10.730   0.726  1.00  0.00    -0.355 OA
HETATM   17  C28 UNL     1      46.638   9.012  -0.037  1.00  0.00     0.014 C 
HETATM   18  C29 UNL     1      46.149   7.839   0.737  1.00  0.00     0.021 C 
ENDROOT
BRANCH   1  19
HETATM   19  C6  UNL     1      45.710  12.547   2.184  1.00  0.00     0.013 C 
HETATM   20  C7  UNL     1      44.741  13.492   1.547  1.00  0.00     0.012 C 
BRANCH  19  21
HETATM   21  C5  UNL     1      46.908  13.320   2.755  1.00  0.00     0.039 C 
BRANCH  21  22
HETATM   22  C4  UNL     1      46.321  14.342   3.691  1.00  0.00     0.125 C 
BRANCH  22  23
HETATM   23  C3  UNL     1      46.773  15.738   3.486  1.00  0.00     0.048 C 
BRANCH  23  24
HETATM   24  C2  UNL     1      47.720  16.119   4.600  1.00  0.00     0.006 C 
HETATM   25  C1  UNL     1      49.131  16.339   4.181  1.00  0.00     0.006 C 
ENDBRANCH  23  24
BRANCH  23  26
HETATM   26  C30 UNL     1      45.677  16.770   3.432  1.00  0.00     0.057 C 
HETATM   27  C31 UNL     1      45.041  16.894   2.079  1.00  0.00     0.045 C 
HETATM   28  C32 UNL     1      44.568  16.246   4.362  1.00  0.00     0.045 C 
BRANCH  26  29
HETATM   29  O7  UNL     1      46.057  17.987   3.993  1.00  0.00    -0.390 OA
ATOM     30  H7  UNL     1      45.774  18.079   4.895  1.00  0.00     0.210 HD
ENDBRANCH  26  29
ENDBRANCH  23  26
ENDBRANCH  22  23
BRANCH  22  31
HETATM   31  O1  UNL     1      46.657  13.939   4.980  1.00  0.00    -0.395 OA
ATOM     32  H1  UNL     1      47.493  14.320   5.219  1.00  0.00     0.210 HD
ENDBRANCH  22  31
ENDBRANCH  21  22
ENDBRANCH  19  21
ENDBRANCH   1  19
BRANCH  12  33
HETATM   33  N1  UNL     1      42.415  10.069  -3.277  1.00  0.00    -0.366 N 
HETATM   34  C22 UNL     1      41.333   9.440  -3.079  1.00  0.00     0.115 C 
ATOM     35  H1  UNL     1      42.388  10.927  -3.828  1.00  0.00     0.161 HD
BRANCH  34  36
HETATM   36  O4  UNL     1      41.307   8.275  -2.341  1.00  0.00    -0.349 OA
ATOM     37  H4  UNL     1      40.904   7.485  -2.681  1.00  0.00     0.219 HD
ENDBRANCH  34  36
BRANCH  34  38
HETATM   38  C23 UNL     1      40.083   9.989  -3.663  1.00  0.00     0.052 C 
HETATM   39  C24 UNL     1      40.008  11.481  -3.540  1.00  0.00     0.018 C 
HETATM   40  C25 UNL     1      38.893   9.404  -2.940  1.00  0.00     0.018 C 
ENDBRANCH  34  38
ENDBRANCH  12  33
BRANCH  10  41
HETATM   41  O2  UNL     1      46.476   8.555  -4.772  1.00  0.00    -0.316 OA
BRANCH  41  42
HETATM   42  C18 UNL     1      46.448   7.216  -5.039  1.00  0.00     0.255 C 
HETATM   43  C19 UNL     1      47.719   6.432  -5.059  1.00  0.00     0.126 C 
HETATM   44  O3  UNL     1      45.367   6.657  -5.262  1.00  0.00    -0.266 OA
ENDBRANCH  41  42
ENDBRANCH  10  41
TORSDOF 13
ENDMDL
MODEL 4
REMARK VINA RESULT: -7.353196718      1.128      1.210
REMARK  13 active torsions:
REMARK  status: ('A' for Active; 'I' for Inactive)
REMARK    1  A    between atoms: C2_2  and  C3_3 
REMARK    2  A    between atoms: C3_3  and  C4_4 
REMARK    3  A    between atoms: C3_3  and  C30_40 
REMARK    4  A    between atoms: C4_4  and  O1_5 
REMARK    5  A    between atoms: C4_4  and  C5_7 
REMARK    6  A    between atoms: C5_7  and  C6_8 
REMARK    7  A    between atoms: C6_8  and  C8_10 
REMARK    8  A    between atoms: C17_19  and  O2_20 
REMARK    9  A    between atoms: O2_20  and  C18_21 
REMARK   10  A    between atoms: C21_25  and  N1_26 
REMARK   11  A    between atoms: C22_28  and  O4_29 
REMARK   12  A    between atoms: C22_28  and  C23_31 
REMARK   13  A    between atoms: C30_40  and  O7_43 
ROOT
HETATM    1  C8  UNL     1      46.773  10.709   1.367  1.00  0.00     0.129 C 
HETATM    2  C9  UNL     1      46.898  11.456   0.031  1.00  0.00     0.038 C 
HETATM    3  C10 UNL     1      47.129  10.379  -0.983  1.00  0.00     0.005 C 
HETATM    4  C11 UNL     1      47.028  10.800  -2.395  1.00  0.00    -0.014 C 
HETATM    5  C12 UNL     1      47.445  12.279  -2.477  1.00  0.00     0.010 C 
HETATM    6  C13 UNL     1      47.789  10.025  -3.389  1.00  0.00     0.005 C 
HETATM    7  C14 UNL     1      48.381   8.744  -2.990  1.00  0.00     0.006 C 
HETATM    8  C15 UNL     1      48.332   8.405  -1.536  1.00  0.00     0.001 C 
HETATM    9  C16 UNL     1      49.306   7.344  -1.145  1.00  0.00     0.038 C 
HETATM   10  C17 UNL     1      48.654   6.162  -0.529  1.00  0.00     0.141 C 
HETATM   11  C20 UNL     1      48.936   5.929   0.904  1.00  0.00     0.071 A 
HETATM   12  C21 UNL     1      49.792   6.728   1.755  1.00  0.00     0.122 A 
HETATM   13  C26 UNL     1      48.392   7.122   1.735  1.00  0.00     0.156 A 
HETATM   14  O5  UNL     1      47.820   8.025   0.892  1.00  0.00    -0.353 OA
HETATM   15  C27 UNL     1      48.445   9.240   0.788  1.00  0.00     0.269 C 
HETATM   16  O6  UNL     1      48.018  10.206   1.656  1.00  0.00    -0.355 OA
HETATM   17  C28 UNL     1      48.427   9.651  -0.664  1.00  0.00     0.014 C 
HETATM   18  C29 UNL     1      49.645  10.463  -0.936  1.00  0.00     0.021 C 
ENDROOT
BRANCH   1  19
HETATM   19  C6  UNL     1      46.211  11.586   2.440  1.00  0.00     0.013 C 
HETATM   20  C7  UNL     1      44.817  12.010   2.100  1.00  0.00     0.012 C 
BRANCH  19  21
HETATM   21  C5  UNL     1      47.096  12.816   2.687  1.00  0.00     0.039 C 
BRANCH  21  22
HETATM   22  C4  UNL     1      46.299  13.712   3.598  1.00  0.00     0.125 C 
BRANCH  22  23
HETATM   23  C3  UNL     1      46.443  15.167   3.359  1.00  0.00     0.048 C 
BRANCH  23  24
HETATM   24  C2  UNL     1      47.253  15.772   4.481  1.00  0.00     0.006 C 
HETATM   25  C1  UNL     1      48.580  16.315   4.080  1.00  0.00     0.006 C 
ENDBRANCH  23  24
BRANCH  23  26
HETATM   26  C30 UNL     1      45.152  15.934   3.249  1.00  0.00     0.057 C 
HETATM   27  C31 UNL     1      45.319  17.301   2.654  1.00  0.00     0.045 C 
HETATM   28  C32 UNL     1      44.287  15.151   2.246  1.00  0.00     0.045 C 
BRANCH  26  29
HETATM   29  O7  UNL     1      44.415  15.919   4.432  1.00  0.00    -0.390 OA
ATOM     30  H7  UNL     1      44.121  16.784   4.691  1.00  0.00     0.210 HD
ENDBRANCH  26  29
ENDBRANCH  23  26
ENDBRANCH  22  23
BRANCH  22  31
HETATM   31  O1  UNL     1      46.705  13.419   4.896  1.00  0.00    -0.395 OA
ATOM     32  H1  UNL     1      46.256  12.637   5.195  1.00  0.00     0.210 HD
ENDBRANCH  22  31
ENDBRANCH  21  22
ENDBRANCH  19  21
ENDBRANCH   1  19
BRANCH  12  33
HETATM   33  N1  UNL     1      50.242   6.085   3.002  1.00  0.00    -0.366 N 
HETATM   34  C22 UNL     1      51.164   6.565   3.726  1.00  0.00     0.115 C 
ATOM     35  H1  UNL     1      49.791   5.217   3.294  1.00  0.00     0.161 HD
BRANCH  34  36
HETATM   36  O4  UNL     1      51.808   7.734   3.383  1.00  0.00    -0.349 OA
ATOM     37  H4  UNL     1      52.721   7.877   3.604  1.00  0.00     0.219 HD
ENDBRANCH  34  36
BRANCH  34  38
HETATM   38  C23 UNL     1      51.538   5.835   4.963  1.00  0.00     0.052 C 
HETATM   39  C24 UNL     1      52.877   5.170   4.845  1.00  0.00     0.018 C 
HETATM   40  C25 UNL     1      50.512   4.762   5.243  1.00  0.00     0.018 C 
ENDBRANCH  34  38
ENDBRANCH  12  33
BRANCH  10  41
HETATM   41  O2  UNL     1      48.924   4.953  -1.242  1.00  0.00    -0.316 OA
BRANCH  41  42
HETATM   42  C18 UNL     1      49.999   4.144  -1.009  1.00  0.00     0.255 C 
HETATM   43  C19 UNL     1      49.801   2.799  -0.391  1.00  0.00     0.126 C 
HETATM   44  O3  UNL     1      51.135   4.530  -1.312  1.00  0.00    -0.266 OA
ENDBRANCH  41  42
ENDBRANCH  10  41
TORSDOF 13
ENDMDL
MODEL 5
REMARK VINA RESULT: -7.287027398      3.923      7.482
REMARK  13 active torsions:
REMARK  status: ('A' for Active; 'I' for Inactive)
REMARK    1  A    between atoms: C2_2  and  C3_3 
REMARK    2  A    between atoms: C3_3  and  C4_4 
REMARK    3  A    between atoms: C3_3  and  C30_40 
REMARK    4  A    between atoms: C4_4  and  O1_5 
REMARK    5  A    between atoms: C4_4  and  C5_7 
REMARK    6  A    between atoms: C5_7  and  C6_8 
REMARK    7  A    between atoms: C6_8  and  C8_10 
REMARK    8  A    between atoms: C17_19  and  O2_20 
REMARK    9  A    between atoms: O2_20  and  C18_21 
REMARK   10  A    between atoms: C21_25  and  N1_26 
REMARK   11  A    between atoms: C22_28  and  O4_29 
REMARK   12  A    between atoms: C22_28  and  C23_31 
REMARK   13  A    between atoms: C30_40  and  O7_43 
ROOT
HETATM    1  C8  UNL     1      49.938  11.493  -1.587  1.00  0.00     0.129 C 
HETATM    2  C9  UNL     1      50.683  10.172  -1.349  1.00  0.00     0.038 C 
HETATM    3  C10 UNL     1      49.611   9.128  -1.352  1.00  0.00     0.005 C 
HETATM    4  C11 UNL     1      50.082   7.729  -1.400  1.00  0.00    -0.014 C 
HETATM    5  C12 UNL     1      51.455   7.670  -0.707  1.00  0.00     0.010 C 
HETATM    6  C13 UNL     1      49.203   6.698  -0.824  1.00  0.00     0.005 C 
HETATM    7  C14 UNL     1      47.821   7.052  -0.482  1.00  0.00     0.006 C 
HETATM    8  C15 UNL     1      47.457   8.499  -0.565  1.00  0.00     0.001 C 
HETATM    9  C16 UNL     1      46.219   8.839   0.193  1.00  0.00     0.038 C 
HETATM   10  C17 UNL     1      45.168   9.444  -0.662  1.00  0.00     0.141 C 
HETATM   11  C20 UNL     1      44.846  10.864  -0.400  1.00  0.00     0.071 A 
HETATM   12  C21 UNL     1      45.441  11.710   0.613  1.00  0.00     0.122 A 
HETATM   13  C26 UNL     1      46.097  11.736  -0.685  1.00  0.00     0.156 A 
HETATM   14  O5  UNL     1      47.116  10.930  -1.090  1.00  0.00    -0.353 OA
HETATM   15  C27 UNL     1      48.191  10.838  -0.244  1.00  0.00     0.269 C 
HETATM   16  O6  UNL     1      49.197  11.738  -0.458  1.00  0.00    -0.355 OA
HETATM   17  C28 UNL     1      48.638   9.396  -0.213  1.00  0.00     0.014 C 
HETATM   18  C29 UNL     1      49.207   9.111   1.133  1.00  0.00     0.021 C 
ENDROOT
BRANCH   1  19
HETATM   19  C6  UNL     1      50.877  12.600  -1.947  1.00  0.00     0.013 C 
HETATM   20  C7  UNL     1      50.914  12.803  -3.428  1.00  0.00     0.012 C 
BRANCH  19  21
HETATM   21  C5  UNL     1      52.292  12.339  -1.411  1.00  0.00     0.039 C 
BRANCH  21  22
HETATM   22  C4  UNL     1      52.471  13.290  -0.258  1.00  0.00     0.125 C 
BRANCH  22  23
HETATM   23  C3  UNL     1      53.756  14.027  -0.223  1.00  0.00     0.048 C 
BRANCH  23  24
HETATM   24  C2  UNL     1      53.810  14.979  -1.394  1.00  0.00     0.006 C 
HETATM   25  C1  UNL     1      52.745  16.018  -1.413  1.00  0.00     0.006 C 
ENDBRANCH  23  24
BRANCH  23  26
HETATM   26  C30 UNL     1      54.993  13.169  -0.261  1.00  0.00     0.057 C 
HETATM   27  C31 UNL     1      55.378  12.739  -1.646  1.00  0.00     0.045 C 
HETATM   28  C32 UNL     1      56.140  14.071   0.225  1.00  0.00     0.045 C 
BRANCH  26  29
HETATM   29  O7  UNL     1      54.952  12.127   0.663  1.00  0.00    -0.390 OA
ATOM     30  H7  UNL     1      55.816  11.794   0.879  1.00  0.00     0.210 HD
ENDBRANCH  26  29
ENDBRANCH  23  26
ENDBRANCH  22  23
BRANCH  22  31
HETATM   31  O1  UNL     1      52.346  12.533   0.903  1.00  0.00    -0.395 OA
ATOM     32  H1  UNL     1      51.631  12.878   1.426  1.00  0.00     0.210 HD
ENDBRANCH  22  31
ENDBRANCH  21  22
ENDBRANCH  19  21
ENDBRANCH   1  19
BRANCH  12  33
HETATM   33  N1  UNL     1      44.689  12.930   0.955  1.00  0.00    -0.366 N 
HETATM   34  C22 UNL     1      45.050  13.721   1.877  1.00  0.00     0.115 C 
ATOM     35  H1  UNL     1      43.842  13.147   0.428  1.00  0.00     0.161 HD
BRANCH  34  36
HETATM   36  O4  UNL     1      46.185  13.481   2.622  1.00  0.00    -0.349 OA
ATOM     37  H4  UNL     1      46.134  13.093   3.488  1.00  0.00     0.219 HD
ENDBRANCH  34  36
BRANCH  34  38
HETATM   38  C23 UNL     1      44.218  14.922   2.139  1.00  0.00     0.052 C 
HETATM   39  C24 UNL     1      44.160  15.841   0.956  1.00  0.00     0.018 C 
HETATM   40  C25 UNL     1      44.803  15.694   3.298  1.00  0.00     0.018 C 
ENDBRANCH  34  38
ENDBRANCH  12  33
BRANCH  10  41
HETATM   41  O2  UNL     1      43.950   8.698  -0.645  1.00  0.00    -0.316 OA
BRANCH  41  42
HETATM   42  C18 UNL     1      43.356   8.165  -1.753  1.00  0.00     0.255 C 
HETATM   43  C19 UNL     1      44.029   8.263  -3.082  1.00  0.00     0.126 C 
HETATM   44  O3  UNL     1      42.259   7.600  -1.650  1.00  0.00    -0.266 OA
ENDBRANCH  41  42
ENDBRANCH  10  41
TORSDOF 13
ENDMDL
