MODEL 1
REMARK VINA RESULT: -6.733493818      0.000      0.000
REMARK  12 active torsions:
REMARK  status: ('A' for Active; 'I' for Inactive)
REMARK    1  A    between atoms: C3_5  and  C4_6 
REMARK    2  A    between atoms: C9_11  and  O1_12 
REMARK    3  A    between atoms: C12_16  and  C13_17 
REMARK    4  A    between atoms: C13_17  and  O2_19 
REMARK    5  A    between atoms: C13_17  and  C15_21 
REMARK    6  A    between atoms: C16_23  and  C17_24 
REMARK    7  A    between atoms: C17_24  and  O4_25 
REMARK    8  A    between atoms: C18_27  and  C19_28 
REMARK    9  A    between atoms: C19_28  and  C21_30 
REMARK   10  A    between atoms: C21_30  and  C22_31 
REMARK   11  A    between atoms: C22_31  and  C23_32 
REMARK   12  A    between atoms: C23_32  and  C24_33 
ROOT
HETATM    1  C1  UNL     1      46.743  14.027   4.702  1.00  0.00     0.071 C 
HETATM    2  C2  UNL     1      46.079  14.218   3.382  1.00  0.00     0.043 A 
HETATM    3  N1  UNL     1      46.088  13.253   2.504  1.00  0.00    -0.355 N 
ATOM      4  H1  UNL     1      46.564  12.393   2.777  1.00  0.00     0.166 HD
HETATM    5  C3  UNL     1      45.517  13.273   1.237  1.00  0.00     0.064 A 
HETATM    6  C31 UNL     1      44.905  14.428   0.951  1.00  0.00     0.034 A 
HETATM    7  C32 UNL     1      44.118  14.678  -0.245  1.00  0.00     0.070 C 
HETATM    8  N2  UNL     1      44.873  15.483   1.858  1.00  0.00    -0.348 N 
ATOM      9  H2  UNL     1      44.399  16.350   1.602  1.00  0.00     0.166 HD
HETATM   10  C33 UNL     1      45.441  15.382   3.035  1.00  0.00     0.136 A 
HETATM   11  C34 UNL     1      45.430  16.465   4.006  1.00  0.00     0.119 C 
HETATM   12  N3  UNL     1      45.427  17.338   4.764  1.00  0.00    -0.190 NA
ENDROOT
BRANCH   5  13
HETATM   13  C4  UNL     1      45.657  12.009   0.481  1.00  0.00     0.001 C 
HETATM   14  C5  UNL     1      44.457  11.527   0.074  1.00  0.00    -0.014 C 
HETATM   15  C6  UNL     1      44.493  10.265  -0.673  1.00  0.00     0.028 C 
HETATM   16  C7  UNL     1      45.272   9.321   0.357  1.00  0.00     0.012 C 
HETATM   17  C8  UNL     1      46.707   9.688   0.169  1.00  0.00     0.034 C 
HETATM   18  C9  UNL     1      46.850  11.181   0.244  1.00  0.00     0.091 C 
HETATM   19  C29 UNL     1      47.772   8.800   0.646  1.00  0.00    -0.027 C 
HETATM   20  C10 UNL     1      47.560  11.506  -1.020  1.00  0.00     0.044 C 
HETATM   21  C11 UNL     1      48.233  10.417  -1.766  1.00  0.00     0.012 C 
HETATM   22  C12 UNL     1      49.414   9.708  -1.119  1.00  0.00     0.038 C 
HETATM   23  C16 UNL     1      49.015   8.590  -0.258  1.00  0.00    -0.001 C 
HETATM   24  C18 UNL     1      49.854   7.880   0.693  1.00  0.00     0.001 C 
HETATM   25  C27 UNL     1      49.826   8.805   1.915  1.00  0.00     0.007 C 
HETATM   26  C28 UNL     1      48.293   8.930   2.042  1.00  0.00     0.011 C 
HETATM   27  C30 UNL     1      46.902   7.540   0.805  1.00  0.00     0.016 C 
BRANCH  18  28
HETATM   28  O1  UNL     1      47.601  11.535   1.387  1.00  0.00    -0.384 OA
ATOM     29  H1  UNL     1      47.076  11.104   2.052  1.00  0.00     0.211 HD
ENDBRANCH  18  28
BRANCH  22  30
HETATM   30  C13 UNL     1      50.477  10.704  -1.010  1.00  0.00     0.111 C 
HETATM   31  C14 UNL     1      50.507  11.520  -2.345  1.00  0.00     0.054 C 
BRANCH  30  32
HETATM   32  O2  UNL     1      50.537  11.665  -0.083  1.00  0.00    -0.383 OA
ATOM     33  H2  UNL     1      50.995  11.597   0.747  1.00  0.00     0.211 HD
ENDBRANCH  30  32
BRANCH  30  34
HETATM   34  C15 UNL     1      51.910  10.252  -1.133  1.00  0.00     0.269 C 
HETATM   35  O3  UNL     1      52.785  10.670  -0.393  1.00  0.00    -0.304 OA
ENDBRANCH  30  34
ENDBRANCH  22  30
BRANCH  23  36
HETATM   36  C17 UNL     1      48.575   7.511  -1.261  1.00  0.00     0.175 C 
BRANCH  36  37
HETATM   37  O4  UNL     1      49.300   7.314  -2.364  1.00  0.00    -0.400 OA
ATOM     38  H4  UNL     1      48.892   7.432  -3.214  1.00  0.00     0.209 HD
ENDBRANCH  36  37
ENDBRANCH  23  36
BRANCH  24  39
HETATM   39  C19 UNL     1      51.030   7.094   0.678  1.00  0.00    -0.014 C 
HETATM   40  C20 UNL     1      51.057   5.672   0.177  1.00  0.00     0.010 C 
BRANCH  39  41
HETATM   41  C21 UNL     1      51.620   6.896   2.106  1.00  0.00     0.005 C 
BRANCH  41  42
HETATM   42  C22 UNL     1      51.279   5.623   2.754  1.00  0.00     0.001 C 
BRANCH  42  43
HETATM   43  C23 UNL     1      50.798   6.011   4.164  1.00  0.00     0.004 C 
BRANCH  43  44
HETATM   44  C24 UNL     1      49.369   5.569   4.371  1.00  0.00    -0.023 C 
HETATM   45  C25 UNL     1      48.569   6.760   4.857  1.00  0.00     0.009 C 
HETATM   46  C26 UNL     1      48.740   5.100   3.077  1.00  0.00     0.009 C 
ENDBRANCH  43  44
ENDBRANCH  42  43
ENDBRANCH  41  42
ENDBRANCH  39  41
ENDBRANCH  24  39
ENDBRANCH   5  13
TORSDOF 12
ENDMDL
MODEL 2
REMARK VINA RESULT: -6.537659995      3.472      8.239
REMARK  12 active torsions:
REMARK  status: ('A' for Active; 'I' for Inactive)
REMARK    1  A    between atoms: C3_5  and  C4_6 
REMARK    2  A    between atoms: C9_11  and  O1_12 
REMARK    3  A    between atoms: C12_16  and  C13_17 
REMARK    4  A    between atoms: C13_17  and  O2_19 
REMARK    5  A    between atoms: C13_17  and  C15_21 
REMARK    6  A    between atoms: C16_23  and  C17_24 
REMARK    7  A    between atoms: C17_24  and  O4_25 
REMARK    8  A    between atoms: C18_27  and  C19_28 
REMARK    9  A    between atoms: C19_28  and  C21_30 
REMARK   10  A    between atoms: C21_30  and  C22_31 
REMARK   11  A    between atoms: C22_31  and  C23_32 
REMARK   12  A    between atoms: C23_32  and  C24_33 
ROOT
HETATM    1  C1  UNL     1      49.391   5.453   4.560  1.00  0.00     0.071 C 
HETATM    2  C2  UNL     1      49.113   5.097   3.140  1.00  0.00     0.043 A 
HETATM    3  N1  UNL     1      49.114   6.026   2.225  1.00  0.00    -0.355 N 
ATOM      4  H1  UNL     1      49.311   6.976   2.540  1.00  0.00     0.166 HD
HETATM    5  C3  UNL     1      48.876   5.859   0.866  1.00  0.00     0.064 A 
HETATM    6  C31 UNL     1      48.632   4.588   0.525  1.00  0.00     0.034 A 
HETATM    7  C32 UNL     1      48.479   4.107  -0.839  1.00  0.00     0.070 C 
HETATM    8  N2  UNL     1      48.621   3.565   1.469  1.00  0.00    -0.348 N 
ATOM      9  H2  UNL     1      48.428   2.609   1.170  1.00  0.00     0.166 HD
HETATM   10  C33 UNL     1      48.853   3.811   2.736  1.00  0.00     0.136 A 
HETATM   11  C34 UNL     1      48.846   2.769   3.751  1.00  0.00     0.119 C 
HETATM   12  N3  UNL     1      48.823   1.935   4.551  1.00  0.00    -0.190 NA
ENDROOT
BRANCH   5  13
HETATM   13  C4  UNL     1      48.983   7.098   0.066  1.00  0.00     0.001 C 
HETATM   14  C5  UNL     1      50.260   7.342  -0.321  1.00  0.00    -0.014 C 
HETATM   15  C6  UNL     1      50.469   8.562  -1.108  1.00  0.00     0.028 C 
HETATM   16  C7  UNL     1      49.850   9.667  -0.132  1.00  0.00     0.012 C 
HETATM   17  C8  UNL     1      48.377   9.557  -0.349  1.00  0.00     0.034 C 
HETATM   18  C9  UNL     1      47.965   8.118  -0.231  1.00  0.00     0.091 C 
HETATM   19  C29 UNL     1      47.479  10.639   0.068  1.00  0.00    -0.027 C 
HETATM   20  C10 UNL     1      47.237   7.880  -1.504  1.00  0.00     0.044 C 
HETATM   21  C11 UNL     1      46.789   9.044  -2.304  1.00  0.00     0.012 C 
HETATM   22  C12 UNL     1      45.741   9.977  -1.714  1.00  0.00     0.038 C 
HETATM   23  C16 UNL     1      46.315  11.036  -0.878  1.00  0.00    -0.001 C 
HETATM   24  C18 UNL     1      45.597  11.919   0.025  1.00  0.00     0.001 C 
HETATM   25  C27 UNL     1      45.430  11.049   1.277  1.00  0.00     0.007 C 
HETATM   26  C28 UNL     1      46.912  10.655   1.451  1.00  0.00     0.011 C 
HETATM   27  C30 UNL     1      48.559  11.727   0.212  1.00  0.00     0.016 C 
BRANCH  18  28
HETATM   28  O1  UNL     1      47.138   7.947   0.900  1.00  0.00    -0.384 OA
ATOM     29  H1  UNL     1      46.702   8.791   0.898  1.00  0.00     0.211 HD
ENDBRANCH  18  28
BRANCH  22  30
HETATM   30  C13 UNL     1      44.514   9.192  -1.604  1.00  0.00     0.111 C 
HETATM   31  C14 UNL     1      44.440   8.243  -2.846  1.00  0.00     0.054 C 
BRANCH  30  32
HETATM   32  O2  UNL     1      44.215   8.370  -0.594  1.00  0.00    -0.383 OA
ATOM     33  H2  UNL     1      43.422   7.851  -0.527  1.00  0.00     0.211 HD
ENDBRANCH  30  32
BRANCH  30  34
HETATM   34  C15 UNL     1      43.197   9.860  -1.907  1.00  0.00     0.269 C 
HETATM   35  O3  UNL     1      42.461   9.465  -2.797  1.00  0.00    -0.304 OA
ENDBRANCH  30  34
ENDBRANCH  22  30
BRANCH  23  36
HETATM   36  C17 UNL     1      46.966  11.981  -1.902  1.00  0.00     0.175 C 
BRANCH  36  37
HETATM   37  O4  UNL     1      46.351  12.201  -3.066  1.00  0.00    -0.400 OA
ATOM     38  H4  UNL     1      46.153  13.094  -3.323  1.00  0.00     0.209 HD
ENDBRANCH  36  37
ENDBRANCH  23  36
BRANCH  24  39
HETATM   39  C19 UNL     1      44.583  12.903  -0.049  1.00  0.00    -0.014 C 
HETATM   40  C20 UNL     1      44.702  14.137  -0.906  1.00  0.00     0.010 C 
BRANCH  39  41
HETATM   41  C21 UNL     1      44.297  13.553   1.338  1.00  0.00     0.005 C 
BRANCH  41  42
HETATM   42  C22 UNL     1      44.661  14.972   1.451  1.00  0.00     0.001 C 
BRANCH  42  43
HETATM   43  C23 UNL     1      45.102  15.153   2.915  1.00  0.00     0.004 C 
BRANCH  43  44
HETATM   44  C24 UNL     1      46.561  14.797   3.070  1.00  0.00    -0.023 C 
HETATM   45  C25 UNL     1      47.270  15.971   3.713  1.00  0.00     0.009 C 
HETATM   46  C26 UNL     1      46.749  13.603   3.980  1.00  0.00     0.009 C 
ENDBRANCH  43  44
ENDBRANCH  42  43
ENDBRANCH  41  42
ENDBRANCH  39  41
ENDBRANCH  24  39
ENDBRANCH   5  13
TORSDOF 12
ENDMDL
MODEL 3
REMARK VINA RESULT: -6.509176602      3.748      7.461
REMARK  12 active torsions:
REMARK  status: ('A' for Active; 'I' for Inactive)
REMARK    1  A    between atoms: C3_5  and  C4_6 
REMARK    2  A    between atoms: C9_11  and  O1_12 
REMARK    3  A    between atoms: C12_16  and  C13_17 
REMARK    4  A    between atoms: C13_17  and  O2_19 
REMARK    5  A    between atoms: C13_17  and  C15_21 
REMARK    6  A    between atoms: C16_23  and  C17_24 
REMARK    7  A    between atoms: C17_24  and  O4_25 
REMARK    8  A    between atoms: C18_27  and  C19_28 
REMARK    9  A    between atoms: C19_28  and  C21_30 
REMARK   10  A    between atoms: C21_30  and  C22_31 
REMARK   11  A    between atoms: C22_31  and  C23_32 
REMARK   12  A    between atoms: C23_32  and  C24_33 
ROOT
HETATM    1  C1  UNL     1      57.238  11.684  -0.090  1.00  0.00     0.071 C 
HETATM    2  C2  UNL     1      56.046  12.467  -0.520  1.00  0.00     0.043 A 
HETATM    3  N1  UNL     1      55.079  11.878  -1.166  1.00  0.00    -0.355 N 
ATOM      4  H1  UNL     1      55.193  10.881  -1.348  1.00  0.00     0.166 HD
HETATM    5  C3  UNL     1      53.908  12.464  -1.633  1.00  0.00     0.064 A 
HETATM    6  C31 UNL     1      53.823  13.770  -1.353  1.00  0.00     0.034 A 
HETATM    7  C32 UNL     1      52.658  14.601  -1.606  1.00  0.00     0.070 C 
HETATM    8  N2  UNL     1      54.833  14.439  -0.667  1.00  0.00    -0.348 N 
ATOM      9  H2  UNL     1      54.733  15.436  -0.474  1.00  0.00     0.166 HD
HETATM   10  C33 UNL     1      55.910  13.809  -0.263  1.00  0.00     0.136 A 
HETATM   11  C34 UNL     1      56.986  14.475   0.453  1.00  0.00     0.119 C 
HETATM   12  N3  UNL     1      57.841  15.019   1.008  1.00  0.00    -0.190 NA
ENDROOT
BRANCH   5  13
HETATM   13  C4  UNL     1      52.976  11.529  -2.299  1.00  0.00     0.001 C 
HETATM   14  C5  UNL     1      53.173  11.486  -3.640  1.00  0.00    -0.014 C 
HETATM   15  C6  UNL     1      52.283  10.594  -4.390  1.00  0.00     0.028 C 
HETATM   16  C7  UNL     1      50.849  11.149  -3.949  1.00  0.00     0.012 C 
HETATM   17  C8  UNL     1      50.626  10.543  -2.603  1.00  0.00     0.034 C 
HETATM   18  C9  UNL     1      51.834  10.784  -1.745  1.00  0.00     0.091 C 
HETATM   19  C29 UNL     1      49.280  10.496  -2.020  1.00  0.00    -0.027 C 
HETATM   20  C10 UNL     1      52.184   9.416  -1.281  1.00  0.00     0.044 C 
HETATM   21  C11 UNL     1      51.179   8.335  -1.410  1.00  0.00     0.012 C 
HETATM   22  C12 UNL     1      49.891   8.432  -0.604  1.00  0.00     0.038 C 
HETATM   23  C16 UNL     1      48.844   9.204  -1.281  1.00  0.00    -0.001 C 
HETATM   24  C18 UNL     1      47.611   9.700  -0.693  1.00  0.00     0.001 C 
HETATM   25  C27 UNL     1      48.070  10.981   0.012  1.00  0.00     0.007 C 
HETATM   26  C28 UNL     1      48.777  11.636  -1.194  1.00  0.00     0.011 C 
HETATM   27  C30 UNL     1      48.507  10.753  -3.326  1.00  0.00     0.016 C 
BRANCH  18  28
HETATM   28  O1  UNL     1      51.501  11.644  -0.676  1.00  0.00    -0.384 OA
ATOM     29  H1  UNL     1      52.245  11.474  -0.108  1.00  0.00     0.211 HD
ENDBRANCH  18  28
BRANCH  22  30
HETATM   30  C13 UNL     1      50.281   8.321   0.799  1.00  0.00     0.111 C 
HETATM   31  C14 UNL     1      51.194   7.058   0.944  1.00  0.00     0.054 C 
BRANCH  30  32
HETATM   32  O2  UNL     1      50.958   9.247   1.485  1.00  0.00    -0.383 OA
ATOM     33  H2  UNL     1      51.067   9.257   2.430  1.00  0.00     0.211 HD
ENDBRANCH  30  32
BRANCH  30  34
HETATM   34  C15 UNL     1      49.264   7.826   1.797  1.00  0.00     0.269 C 
HETATM   35  O3  UNL     1      48.880   8.518   2.725  1.00  0.00    -0.304 OA
ENDBRANCH  30  34
ENDBRANCH  22  30
BRANCH  23  36
HETATM   36  C17 UNL     1      48.382   8.263  -2.405  1.00  0.00     0.175 C 
BRANCH  36  37
HETATM   37  O4  UNL     1      48.026   7.012  -2.101  1.00  0.00    -0.400 OA
ATOM     38  H4  UNL     1      47.215   6.663  -2.454  1.00  0.00     0.209 HD
ENDBRANCH  36  37
ENDBRANCH  23  36
BRANCH  24  39
HETATM   39  C19 UNL     1      46.449   9.173  -0.083  1.00  0.00    -0.014 C 
HETATM   40  C20 UNL     1      45.193   8.854  -0.853  1.00  0.00     0.010 C 
BRANCH  39  41
HETATM   41  C21 UNL     1      45.873  10.130   1.004  1.00  0.00     0.005 C 
BRANCH  41  42
HETATM   42  C22 UNL     1      44.590  10.760   0.668  1.00  0.00     0.001 C 
BRANCH  42  43
HETATM   43  C23 UNL     1      44.523  12.021   1.548  1.00  0.00     0.004 C 
BRANCH  43  44
HETATM   44  C24 UNL     1      45.081  13.210   0.804  1.00  0.00    -0.023 C 
HETATM   45  C25 UNL     1      44.720  13.066  -0.660  1.00  0.00     0.009 C 
HETATM   46  C26 UNL     1      44.474  14.507   1.294  1.00  0.00     0.009 C 
ENDBRANCH  43  44
ENDBRANCH  42  43
ENDBRANCH  41  42
ENDBRANCH  39  41
ENDBRANCH  24  39
ENDBRANCH   5  13
TORSDOF 12
ENDMDL
MODEL 4
REMARK VINA RESULT: -6.449288993      1.079      1.539
REMARK  12 active torsions:
REMARK  status: ('A' for Active; 'I' for Inactive)
REMARK    1  A    between atoms: C3_5  and  C4_6 
REMARK    2  A    between atoms: C9_11  and  O1_12 
REMARK    3  A    between atoms: C12_16  and  C13_17 
REMARK    4  A    between atoms: C13_17  and  O2_19 
REMARK    5  A    between atoms: C13_17  and  C15_21 
REMARK    6  A    between atoms: C16_23  and  C17_24 
REMARK    7  A    between atoms: C17_24  and  O4_25 
REMARK    8  A    between atoms: C18_27  and  C19_28 
REMARK    9  A    between atoms: C19_28  and  C21_30 
REMARK   10  A    between atoms: C21_30  and  C22_31 
REMARK   11  A    between atoms: C22_31  and  C23_32 
REMARK   12  A    between atoms: C23_32  and  C24_33 
ROOT
HETATM    1  C1  UNL     1      46.755  13.911   4.549  1.00  0.00     0.071 C 
HETATM    2  C2  UNL     1      46.091  14.034   3.221  1.00  0.00     0.043 A 
HETATM    3  N1  UNL     1      46.119  13.034   2.385  1.00  0.00    -0.355 N 
ATOM      4  H1  UNL     1      46.609  12.194   2.695  1.00  0.00     0.166 HD
HETATM    5  C3  UNL     1      45.552  12.989   1.116  1.00  0.00     0.064 A 
HETATM    6  C31 UNL     1      44.921  14.121   0.780  1.00  0.00     0.034 A 
HETATM    7  C32 UNL     1      44.133  14.307  -0.427  1.00  0.00     0.070 C 
HETATM    8  N2  UNL     1      44.868  15.213   1.641  1.00  0.00    -0.348 N 
ATOM      9  H2  UNL     1      44.380  16.060   1.348  1.00  0.00     0.166 HD
HETATM   10  C33 UNL     1      45.435  15.172   2.824  1.00  0.00     0.136 A 
HETATM   11  C34 UNL     1      45.402  16.295   3.747  1.00  0.00     0.119 C 
HETATM   12  N3  UNL     1      45.382  17.199   4.467  1.00  0.00    -0.190 NA
ENDROOT
BRANCH   5  13
HETATM   13  C4  UNL     1      45.716  11.698   0.415  1.00  0.00     0.001 C 
HETATM   14  C5  UNL     1      44.528  11.197  -0.006  1.00  0.00    -0.014 C 
HETATM   15  C6  UNL     1      44.588   9.907  -0.702  1.00  0.00     0.028 C 
HETATM   16  C7  UNL     1      45.338   9.006   0.386  1.00  0.00     0.012 C 
HETATM   17  C8  UNL     1      46.778   9.369   0.226  1.00  0.00     0.034 C 
HETATM   18  C9  UNL     1      46.917  10.864   0.246  1.00  0.00     0.091 C 
HETATM   19  C29 UNL     1      47.830   8.503   0.768  1.00  0.00    -0.027 C 
HETATM   20  C10 UNL     1      47.662  11.141  -1.009  1.00  0.00     0.044 C 
HETATM   21  C11 UNL     1      48.358  10.025  -1.693  1.00  0.00     0.012 C 
HETATM   22  C12 UNL     1      49.521   9.345  -0.984  1.00  0.00     0.038 C 
HETATM   23  C16 UNL     1      49.099   8.261  -0.092  1.00  0.00    -0.001 C 
HETATM   24  C18 UNL     1      49.911   7.592   0.910  1.00  0.00     0.001 C 
HETATM   25  C27 UNL     1      49.846   8.564   2.094  1.00  0.00     0.007 C 
HETATM   26  C28 UNL     1      48.310   8.690   2.171  1.00  0.00     0.011 C 
HETATM   27  C30 UNL     1      46.957   7.248   0.951  1.00  0.00     0.016 C 
BRANCH  18  28
HETATM   28  O1  UNL     1      47.633  11.265   1.394  1.00  0.00    -0.384 OA
ATOM     29  H1  UNL     1      47.388  10.557   1.980  1.00  0.00     0.211 HD
ENDBRANCH  18  28
BRANCH  22  30
HETATM   30  C13 UNL     1      50.578  10.348  -0.884  1.00  0.00     0.111 C 
HETATM   31  C14 UNL     1      50.644  11.112  -2.248  1.00  0.00     0.054 C 
BRANCH  30  32
HETATM   32  O2  UNL     1      50.611  11.344   0.007  1.00  0.00    -0.383 OA
ATOM     33  H2  UNL     1      50.217  11.318   0.871  1.00  0.00     0.211 HD
ENDBRANCH  30  32
BRANCH  30  34
HETATM   34  C15 UNL     1      52.015   9.896  -0.950  1.00  0.00     0.269 C 
HETATM   35  O3  UNL     1      52.938  10.626  -0.628  1.00  0.00    -0.304 OA
ENDBRANCH  30  34
ENDBRANCH  22  30
BRANCH  23  36
HETATM   36  C17 UNL     1      48.689   7.142  -1.064  1.00  0.00     0.175 C 
BRANCH  36  37
HETATM   37  O4  UNL     1      49.488   6.850  -2.093  1.00  0.00    -0.400 OA
ATOM     38  H4  UNL     1      50.242   7.402  -2.264  1.00  0.00     0.209 HD
ENDBRANCH  36  37
ENDBRANCH  23  36
BRANCH  24  39
HETATM   39  C19 UNL     1      51.088   6.808   0.960  1.00  0.00    -0.014 C 
HETATM   40  C20 UNL     1      51.092   5.322   0.710  1.00  0.00     0.010 C 
BRANCH  39  41
HETATM   41  C21 UNL     1      51.764   6.857   2.363  1.00  0.00     0.005 C 
BRANCH  41  42
HETATM   42  C22 UNL     1      52.528   5.658   2.732  1.00  0.00     0.001 C 
BRANCH  42  43
HETATM   43  C23 UNL     1      52.763   5.787   4.248  1.00  0.00     0.004 C 
BRANCH  43  44
HETATM   44  C24 UNL     1      53.896   4.890   4.682  1.00  0.00    -0.023 C 
HETATM   45  C25 UNL     1      53.350   3.879   5.668  1.00  0.00     0.009 C 
HETATM   46  C26 UNL     1      54.471   4.117   3.514  1.00  0.00     0.009 C 
ENDBRANCH  43  44
ENDBRANCH  42  43
ENDBRANCH  41  42
ENDBRANCH  39  41
ENDBRANCH  24  39
ENDBRANCH   5  13
TORSDOF 12
ENDMDL
MODEL 5
REMARK VINA RESULT: -6.394824027      4.413      9.009
REMARK  12 active torsions:
REMARK  status: ('A' for Active; 'I' for Inactive)
REMARK    1  A    between atoms: C3_5  and  C4_6 
REMARK    2  A    between atoms: C9_11  and  O1_12 
REMARK    3  A    between atoms: C12_16  and  C13_17 
REMARK    4  A    between atoms: C13_17  and  O2_19 
REMARK    5  A    between atoms: C13_17  and  C15_21 
REMARK    6  A    between atoms: C16_23  and  C17_24 
REMARK    7  A    between atoms: C17_24  and  O4_25 
REMARK    8  A    between atoms: C18_27  and  C19_28 
REMARK    9  A    between atoms: C19_28  and  C21_30 
REMARK   10  A    between atoms: C21_30  and  C22_31 
REMARK   11  A    between atoms: C22_31  and  C23_32 
REMARK   12  A    between atoms: C23_32  and  C24_33 
ROOT
HETATM    1  C1  UNL     1      44.049   1.911   3.338  1.00  0.00     0.071 C 
HETATM    2  C2  UNL     1      45.417   1.521   2.897  1.00  0.00     0.043 A 
HETATM    3  N1  UNL     1      46.381   2.399   2.914  1.00  0.00    -0.355 N 
ATOM      4  H1  UNL     1      46.139   3.335   3.240  1.00  0.00     0.166 HD
HETATM    5  C3  UNL     1      47.703   2.195   2.537  1.00  0.00     0.064 A 
HETATM    6  C31 UNL     1      47.948   0.945   2.129  1.00  0.00     0.034 A 
HETATM    7  C32 UNL     1      49.264   0.419   1.801  1.00  0.00     0.070 C 
HETATM    8  N2  UNL     1      46.949  -0.024   2.093  1.00  0.00    -0.348 N 
ATOM      9  H2  UNL     1      47.175  -0.966   1.772  1.00  0.00     0.166 HD
HETATM   10  C33 UNL     1      45.722   0.255   2.464  1.00  0.00     0.136 A 
HETATM   11  C34 UNL     1      44.652  -0.730   2.437  1.00  0.00     0.119 C 
HETATM   12  N3  UNL     1      43.807  -1.517   2.397  1.00  0.00    -0.190 NA
ENDROOT
BRANCH   5  13
HETATM   13  C4  UNL     1      48.579   3.375   2.705  1.00  0.00     0.001 C 
HETATM   14  C5  UNL     1      49.199   3.378   3.910  1.00  0.00    -0.014 C 
HETATM   15  C6  UNL     1      50.079   4.521   4.175  1.00  0.00     0.028 C 
HETATM   16  C7  UNL     1      49.075   5.743   3.944  1.00  0.00     0.012 C 
HETATM   17  C8  UNL     1      49.021   5.891   2.459  1.00  0.00     0.034 C 
HETATM   18  C9  UNL     1      48.749   4.552   1.837  1.00  0.00     0.091 C 
HETATM   19  C29 UNL     1      48.514   7.126   1.851  1.00  0.00    -0.027 C 
HETATM   20  C10 UNL     1      49.858   4.414   0.857  1.00  0.00     0.044 C 
HETATM   21  C11 UNL     1      50.631   5.619   0.474  1.00  0.00     0.012 C 
HETATM   22  C12 UNL     1      49.920   6.738  -0.273  1.00  0.00     0.038 C 
HETATM   23  C16 UNL     1      49.261   7.699   0.617  1.00  0.00    -0.001 C 
HETATM   24  C18 UNL     1      48.297   8.717   0.238  1.00  0.00     0.001 C 
HETATM   25  C27 UNL     1      46.987   7.923   0.159  1.00  0.00     0.007 C 
HETATM   26  C28 UNL     1      47.055   7.277   1.559  1.00  0.00     0.011 C 
HETATM   27  C30 UNL     1      48.626   8.008   3.107  1.00  0.00     0.016 C 
BRANCH  18  28
HETATM   28  O1  UNL     1      47.482   4.559   1.216  1.00  0.00    -0.384 OA
ATOM     29  H1  UNL     1      47.703   5.040   0.426  1.00  0.00     0.211 HD
ENDBRANCH  18  28
BRANCH  22  30
HETATM   30  C13 UNL     1      49.549   6.186  -1.574  1.00  0.00     0.111 C 
HETATM   31  C14 UNL     1      50.793   5.427  -2.144  1.00  0.00     0.054 C 
BRANCH  30  32
HETATM   32  O2  UNL     1      48.558   5.315  -1.786  1.00  0.00    -0.383 OA
ATOM     33  H2  UNL     1      48.287   4.991  -2.637  1.00  0.00     0.211 HD
ENDBRANCH  30  32
BRANCH  30  34
HETATM   34  C15 UNL     1      49.448   7.119  -2.754  1.00  0.00     0.269 C 
HETATM   35  O3  UNL     1      48.373   7.469  -3.211  1.00  0.00    -0.304 OA
ENDBRANCH  30  34
ENDBRANCH  22  30
BRANCH  23  36
HETATM   36  C17 UNL     1      50.436   8.486   1.219  1.00  0.00     0.175 C 
BRANCH  36  37
HETATM   37  O4  UNL     1      51.387   8.956   0.408  1.00  0.00    -0.400 OA
ATOM     38  H4  UNL     1      51.447   9.893   0.260  1.00  0.00     0.209 HD
ENDBRANCH  36  37
ENDBRANCH  23  36
BRANCH  24  39
HETATM   39  C19 UNL     1      48.247   9.864  -0.590  1.00  0.00    -0.014 C 
HETATM   40  C20 UNL     1      48.647  11.236  -0.112  1.00  0.00     0.010 C 
BRANCH  39  41
HETATM   41  C21 UNL     1      46.802  10.156  -1.097  1.00  0.00     0.005 C 
BRANCH  41  42
HETATM   42  C22 UNL     1      46.195  11.390  -0.581  1.00  0.00     0.001 C 
BRANCH  42  43
HETATM   43  C23 UNL     1      44.919  10.930   0.147  1.00  0.00     0.004 C 
BRANCH  43  44
HETATM   44  C24 UNL     1      44.743  11.701   1.433  1.00  0.00    -0.023 C 
HETATM   45  C25 UNL     1      45.961  11.460   2.301  1.00  0.00     0.009 C 
HETATM   46  C26 UNL     1      44.655  13.191   1.181  1.00  0.00     0.009 C 
ENDBRANCH  43  44
ENDBRANCH  42  43
ENDBRANCH  41  42
ENDBRANCH  39  41
ENDBRANCH  24  39
ENDBRANCH   5  13
TORSDOF 12
ENDMDL
