MODEL 1
REMARK VINA RESULT: -4.868413624      0.000      0.000
REMARK  3 active torsions:
REMARK  status: ('A' for Active; 'I' for Inactive)
REMARK    1  A    between atoms: C3_5  and  N2_6 
REMARK    2  A    between atoms: N2_6  and  N3_8 
REMARK    3  A    between atoms: N3_8  and  C4_10 
ROOT
HETATM    1  N3  UNL     1       4.545 100.188   7.917  1.00  0.00    -0.117 N 
ATOM      2  H3  UNL     1       4.708 100.294   8.918  1.00  0.00     0.206 HD
ENDROOT
BRANCH   1   3
HETATM    3  N2  UNL     1       4.188  98.951   7.405  1.00  0.00    -0.118 N 
ATOM      4  H2  UNL     1       3.279  98.539   7.613  1.00  0.00     0.206 HD
BRANCH   3   5
HETATM    5  C3  UNL     1       5.132  98.270   6.574  1.00  0.00     0.689 C 
HETATM    6  N1  UNL     1       5.061  98.346   5.148  1.00  0.00    -0.224 N 
HETATM    7  C2  UNL     1       6.380  97.977   4.687  1.00  0.00     0.158 C 
ATOM      8  H1  UNL     1       4.254  98.604   4.579  1.00  0.00     0.177 HD
HETATM    9  C1  UNL     1       6.832  97.029   5.773  1.00  0.00     0.158 C 
HETATM   10  N7  UNL     1       6.123  97.534   6.929  1.00  0.00    -0.224 N 
ATOM     11  H7  UNL     1       6.376  97.333   7.896  1.00  0.00     0.177 HD
ENDBRANCH   3   5
ENDBRANCH   1   3
BRANCH   1  12
HETATM   12  C4  UNL     1       4.686 101.318   7.049  1.00  0.00     0.704 C 
HETATM   13  N4  UNL     1       3.813 101.537   6.147  1.00  0.00    -0.223 N 
HETATM   14  C5  UNL     1       3.881 102.639   5.245  1.00  0.00     0.156 C 
ATOM     15  H4  UNL     1       3.027 100.892   6.066  1.00  0.00     0.177 HD
HETATM   16  C6  UNL     1       4.898 103.679   5.569  1.00  0.00     0.155 C 
HETATM   17  N5  UNL     1       6.082 103.084   6.154  1.00  0.00    -0.125 NA
HETATM   18  N6  UNL     1       5.782 102.197   7.177  1.00  0.00    -0.135 N 
ATOM     19  H6  UNL     1       6.353 102.180   8.022  1.00  0.00     0.201 HD
ENDBRANCH   1  12
TORSDOF 3
ENDMDL
MODEL 2
REMARK VINA RESULT: -4.804625441      0.193      1.057
REMARK  3 active torsions:
REMARK  status: ('A' for Active; 'I' for Inactive)
REMARK    1  A    between atoms: C3_5  and  N2_6 
REMARK    2  A    between atoms: N2_6  and  N3_8 
REMARK    3  A    between atoms: N3_8  and  C4_10 
ROOT
HETATM    1  N3  UNL     1       4.521 100.187   7.896  1.00  0.00    -0.117 N 
ATOM      2  H3  UNL     1       4.620 100.282   8.907  1.00  0.00     0.206 HD
ENDROOT
BRANCH   1   3
HETATM    3  N2  UNL     1       4.234  98.949   7.345  1.00  0.00    -0.118 N 
ATOM      4  H2  UNL     1       3.358  98.470   7.556  1.00  0.00     0.206 HD
BRANCH   3   5
HETATM    5  C3  UNL     1       5.202  98.361   6.471  1.00  0.00     0.689 C 
HETATM    6  N1  UNL     1       6.125  97.374   6.937  1.00  0.00    -0.224 N 
HETATM    7  C2  UNL     1       6.577  96.693   5.745  1.00  0.00     0.158 C 
ATOM      8  H1  UNL     1       6.403  97.190   7.902  1.00  0.00     0.177 HD
HETATM    9  C1  UNL     1       6.482  97.787   4.710  1.00  0.00     0.158 C 
HETATM   10  N7  UNL     1       5.398  98.596   5.223  1.00  0.00    -0.224 N 
ATOM     11  H7  UNL     1       4.861  99.263   4.670  1.00  0.00     0.177 HD
ENDBRANCH   3   5
ENDBRANCH   1   3
BRANCH   1  12
HETATM   12  C4  UNL     1       4.678 101.335   7.054  1.00  0.00     0.704 C 
HETATM   13  N4  UNL     1       3.819 101.577   6.146  1.00  0.00    -0.223 N 
HETATM   14  C5  UNL     1       3.903 102.698   5.269  1.00  0.00     0.156 C 
ATOM     15  H4  UNL     1       3.031 100.938   6.041  1.00  0.00     0.177 HD
HETATM   16  C6  UNL     1       4.920 103.726   5.629  1.00  0.00     0.155 C 
HETATM   17  N5  UNL     1       6.094 103.113   6.217  1.00  0.00    -0.125 NA
HETATM   18  N6  UNL     1       5.776 102.206   7.217  1.00  0.00    -0.135 N 
ATOM     19  H6  UNL     1       6.335 102.168   8.069  1.00  0.00     0.201 HD
ENDBRANCH   1  12
TORSDOF 3
ENDMDL
MODEL 3
REMARK VINA RESULT: -4.731442580      3.030      4.013
REMARK  3 active torsions:
REMARK  status: ('A' for Active; 'I' for Inactive)
REMARK    1  A    between atoms: C3_5  and  N2_6 
REMARK    2  A    between atoms: N2_6  and  N3_8 
REMARK    3  A    between atoms: N3_8  and  C4_10 
ROOT
HETATM    1  N3  UNL     1       3.451  99.677   6.622  1.00  0.00    -0.117 N 
ATOM      2  H3  UNL     1       3.475  99.283   7.562  1.00  0.00     0.206 HD
ENDROOT
BRANCH   1   3
HETATM    3  N2  UNL     1       2.814  98.989   5.602  1.00  0.00    -0.118 N 
ATOM      4  H2  UNL     1       3.340  98.391   4.964  1.00  0.00     0.206 HD
BRANCH   3   5
HETATM    5  C3  UNL     1       1.398  99.140   5.471  1.00  0.00     0.689 C 
HETATM    6  N1  UNL     1       0.515  98.868   6.562  1.00  0.00    -0.224 N 
HETATM    7  C2  UNL     1      -0.707  99.568   6.237  1.00  0.00     0.158 C 
ATOM      8  H1  UNL     1       0.707  98.303   7.390  1.00  0.00     0.177 HD
HETATM    9  C1  UNL     1      -0.691  99.533   4.728  1.00  0.00     0.158 C 
HETATM   10  N7  UNL     1       0.727  99.513   4.441  1.00  0.00    -0.224 N 
ATOM     11  H7  UNL     1       1.139  99.762   3.542  1.00  0.00     0.177 HD
ENDBRANCH   3   5
ENDBRANCH   1   3
BRANCH   1  12
HETATM   12  C4  UNL     1       4.075 100.940   6.363  1.00  0.00     0.704 C 
HETATM   13  N4  UNL     1       3.575 101.728   5.496  1.00  0.00    -0.223 N 
HETATM   14  C5  UNL     1       4.135 103.001   5.181  1.00  0.00     0.156 C 
ATOM     15  H4  UNL     1       2.733 101.433   5.002  1.00  0.00     0.177 HD
HETATM   16  C6  UNL     1       5.202 103.483   6.103  1.00  0.00     0.155 C 
HETATM   17  N5  UNL     1       6.008 102.382   6.588  1.00  0.00    -0.125 NA
HETATM   18  N6  UNL     1       5.240 101.327   7.058  1.00  0.00    -0.135 N 
ATOM     19  H6  UNL     1       5.518 100.831   7.905  1.00  0.00     0.201 HD
ENDBRANCH   1  12
TORSDOF 3
ENDMDL
MODEL 4
REMARK VINA RESULT: -4.722193195      0.571      1.332
REMARK  3 active torsions:
REMARK  status: ('A' for Active; 'I' for Inactive)
REMARK    1  A    between atoms: C3_5  and  N2_6 
REMARK    2  A    between atoms: N2_6  and  N3_8 
REMARK    3  A    between atoms: N3_8  and  C4_10 
ROOT
HETATM    1  N3  UNL     1       4.572 100.153   7.865  1.00  0.00    -0.117 N 
ATOM      2  H3  UNL     1       4.777 100.246   8.859  1.00  0.00     0.206 HD
ENDROOT
BRANCH   1   3
HETATM    3  N2  UNL     1       4.214  98.919   7.347  1.00  0.00    -0.118 N 
ATOM      4  H2  UNL     1       3.299  98.512   7.544  1.00  0.00     0.206 HD
BRANCH   3   5
HETATM    5  C3  UNL     1       5.165  98.231   6.530  1.00  0.00     0.689 C 
HETATM    6  N1  UNL     1       5.099  98.287   5.103  1.00  0.00    -0.224 N 
HETATM    7  C2  UNL     1       6.423  97.918   4.653  1.00  0.00     0.158 C 
ATOM      8  H1  UNL     1       4.293  98.533   4.528  1.00  0.00     0.177 HD
HETATM    9  C1  UNL     1       6.874  96.988   5.753  1.00  0.00     0.158 C 
HETATM   10  N7  UNL     1       6.158  97.505   6.899  1.00  0.00    -0.224 N 
ATOM     11  H7  UNL     1       6.408  97.318   7.870  1.00  0.00     0.177 HD
ENDBRANCH   3   5
ENDBRANCH   1   3
BRANCH   1  12
HETATM   12  C4  UNL     1       4.655 101.299   7.010  1.00  0.00     0.704 C 
HETATM   13  N4  UNL     1       5.550 102.181   7.217  1.00  0.00    -0.223 N 
HETATM   14  C5  UNL     1       5.699 103.348   6.411  1.00  0.00     0.156 C 
ATOM     15  H4  UNL     1       6.193 102.046   7.998  1.00  0.00     0.177 HD
HETATM   16  C6  UNL     1       4.909 103.367   5.148  1.00  0.00     0.155 C 
HETATM   17  N5  UNL     1       3.633 102.704   5.322  1.00  0.00    -0.125 NA
HETATM   18  N6  UNL     1       3.755 101.466   5.936  1.00  0.00    -0.135 N 
ATOM     19  H6  UNL     1       3.195 100.678   5.612  1.00  0.00     0.201 HD
ENDBRANCH   1  12
TORSDOF 3
ENDMDL
MODEL 5
REMARK VINA RESULT: -4.688169735      3.257      5.436
REMARK  3 active torsions:
REMARK  status: ('A' for Active; 'I' for Inactive)
REMARK    1  A    between atoms: C3_5  and  N2_6 
REMARK    2  A    between atoms: N2_6  and  N3_8 
REMARK    3  A    between atoms: N3_8  and  C4_10 
ROOT
HETATM    1  N3  UNL     1       3.174  99.291   5.560  1.00  0.00    -0.117 N 
ATOM      2  H3  UNL     1       3.724  99.224   4.703  1.00  0.00     0.206 HD
ENDROOT
BRANCH   1   3
HETATM    3  N2  UNL     1       3.697  99.940   6.666  1.00  0.00    -0.118 N 
ATOM      4  H2  UNL     1       3.693  99.498   7.586  1.00  0.00     0.206 HD
BRANCH   3   5
HETATM    5  C3  UNL     1       4.244 101.249   6.481  1.00  0.00     0.689 C 
HETATM    6  N1  UNL     1       5.183 101.801   7.407  1.00  0.00    -0.224 N 
HETATM    7  C2  UNL     1       5.851 102.855   6.677  1.00  0.00     0.158 C 
ATOM      8  H1  UNL     1       5.346 101.514   8.372  1.00  0.00     0.177 HD
HETATM    9  C1  UNL     1       4.770 103.302   5.722  1.00  0.00     0.158 C 
HETATM   10  N7  UNL     1       4.010 102.086   5.535  1.00  0.00    -0.224 N 
ATOM     11  H7  UNL     1       3.374 101.915   4.757  1.00  0.00     0.177 HD
ENDBRANCH   3   5
ENDBRANCH   1   3
BRANCH   1  12
HETATM   12  C4  UNL     1       1.865  98.713   5.612  1.00  0.00     0.704 C 
HETATM   13  N4  UNL     1       0.911  99.352   6.165  1.00  0.00    -0.223 N 
HETATM   14  C5  UNL     1      -0.419  98.846   6.257  1.00  0.00     0.156 C 
ATOM     15  H4  UNL     1       1.109 100.271   6.562  1.00  0.00     0.177 HD
HETATM   16  C6  UNL     1      -0.705  97.629   5.447  1.00  0.00     0.155 C 
HETATM   17  N5  UNL     1       0.451  96.759   5.388  1.00  0.00    -0.125 NA
HETATM   18  N6  UNL     1       1.614  97.440   5.058  1.00  0.00    -0.135 N 
ATOM     19  H6  UNL     1       2.286  97.021   4.416  1.00  0.00     0.201 HD
ENDBRANCH   1  12
TORSDOF 3
ENDMDL
