MODEL 1
REMARK VINA RESULT: -5.558451824      0.000      0.000
REMARK  5 active torsions:
REMARK  status: ('A' for Active; 'I' for Inactive)
REMARK    1  A    between atoms: N1_1  and  C1_4 
REMARK    2  A    between atoms: C3_10  and  O1_11 
REMARK    3  A    between atoms: C3_10  and  N4_13 
REMARK    4  A    between atoms: N4_13  and  N5_15 
REMARK    5  A    between atoms: N6_20  and  O3_21 
ROOT
HETATM    1  C1  UNL     1       2.068 100.818   5.286  1.00  0.00     0.720 A 
HETATM    2  N2  UNL     1       1.976 102.144   5.134  1.00  0.00    -0.130 N 
ATOM      3  H2  UNL     1       1.103 102.555   4.802  1.00  0.00     0.205 HD
HETATM    4  N3  UNL     1       3.000 102.925   5.408  1.00  0.00    -0.278 N 
ATOM      5  H3  UNL     1       2.899 103.933   5.283  1.00  0.00     0.188 HD
HETATM    6  C2  UNL     1       4.205 102.425   5.859  1.00  0.00     0.172 A 
HETATM    7  C3  UNL     1       5.295 103.329   6.144  1.00  0.00     0.189 C 
HETATM    8  C4  UNL     1       4.312 101.079   6.018  1.00  0.00     0.320 A 
HETATM    9  O2  UNL     1       5.360 100.544   6.419  1.00  0.00    -0.262 OA
HETATM   10  N6  UNL     1       3.220 100.301   5.721  1.00  0.00    -0.010 N 
ENDROOT
BRANCH   7  11
HETATM   11  O1  UNL     1       5.017 104.584   5.936  1.00  0.00    -0.343 OA
ATOM     12  H1  UNL     1       5.776 105.127   5.756  1.00  0.00     0.219 HD
ENDBRANCH   7  11
BRANCH   7  13
HETATM   13  N4  UNL     1       6.573 103.082   6.597  1.00  0.00    -0.285 N 
ATOM     14  H4  UNL     1       7.212 102.550   6.006  1.00  0.00     0.188 HD
BRANCH  13  15
HETATM   15  N5  UNL     1       7.031 103.544   7.866  1.00  0.00    -0.343 N 
ATOM     16  H52 UNL     1       6.497 104.281   8.326  1.00  0.00     0.176 HD
ATOM     17  H51 UNL     1       7.864 103.163   8.315  1.00  0.00     0.176 HD
ENDBRANCH  13  15
ENDBRANCH   7  13
BRANCH  10  18
HETATM   18  O3  UNL     1       3.365  98.933   5.894  1.00  0.00    -0.266 OA
ATOM     19  H3  UNL     1       3.870  98.415   5.279  1.00  0.00     0.246 HD
ENDBRANCH  10  18
BRANCH   1  20
HETATM   20  N1  UNL     1       1.047 100.062   5.010  1.00  0.00    -0.231 N 
ATOM     21  H12 UNL     1       1.149  99.055   4.889  1.00  0.00     0.174 HD
ATOM     22  H11 UNL     1       0.121 100.476   4.909  1.00  0.00     0.174 HD
ENDBRANCH   1  20
TORSDOF 5
ENDMDL
MODEL 2
REMARK VINA RESULT: -5.333839244      1.527      4.806
REMARK  5 active torsions:
REMARK  status: ('A' for Active; 'I' for Inactive)
REMARK    1  A    between atoms: N1_1  and  C1_4 
REMARK    2  A    between atoms: C3_10  and  O1_11 
REMARK    3  A    between atoms: C3_10  and  N4_13 
REMARK    4  A    between atoms: N4_13  and  N5_15 
REMARK    5  A    between atoms: N6_20  and  O3_21 
ROOT
HETATM    1  C1  UNL     1       5.587 102.598   6.962  1.00  0.00     0.720 A 
HETATM    2  N2  UNL     1       5.171 101.475   7.558  1.00  0.00    -0.130 N 
ATOM      3  H2  UNL     1       5.667 101.125   8.377  1.00  0.00     0.205 HD
HETATM    4  N3  UNL     1       4.128 100.816   7.098  1.00  0.00    -0.278 N 
ATOM      5  H3  UNL     1       3.834  99.964   7.575  1.00  0.00     0.188 HD
HETATM    6  C2  UNL     1       3.419 101.243   5.993  1.00  0.00     0.172 A 
HETATM    7  C3  UNL     1       2.282 100.480   5.532  1.00  0.00     0.189 C 
HETATM    8  C4  UNL     1       3.831 102.383   5.377  1.00  0.00     0.320 A 
HETATM    9  O2  UNL     1       3.252 102.839   4.376  1.00  0.00    -0.262 OA
HETATM   10  N6  UNL     1       4.924 103.039   5.890  1.00  0.00    -0.010 N 
ENDROOT
BRANCH   7  11
HETATM   11  O1  UNL     1       2.029  99.417   6.240  1.00  0.00    -0.343 OA
ATOM     12  H1  UNL     1       1.370  99.544   6.912  1.00  0.00     0.219 HD
ENDBRANCH   7  11
BRANCH   7  13
HETATM   13  N4  UNL     1       1.426 100.693   4.473  1.00  0.00    -0.285 N 
ATOM     14  H4  UNL     1       1.556 100.153   3.617  1.00  0.00     0.188 HD
BRANCH  13  15
HETATM   15  N5  UNL     1       0.365 101.643   4.533  1.00  0.00    -0.343 N 
ATOM     16  H52 UNL     1       0.612 102.633   4.557  1.00  0.00     0.176 HD
ATOM     17  H51 UNL     1      -0.616 101.363   4.553  1.00  0.00     0.176 HD
ENDBRANCH  13  15
ENDBRANCH   7  13
BRANCH  10  18
HETATM   18  O3  UNL     1       5.317 104.197   5.237  1.00  0.00    -0.266 OA
ATOM     19  H3  UNL     1       4.714 104.923   5.128  1.00  0.00     0.246 HD
ENDBRANCH  10  18
BRANCH   1  20
HETATM   20  N1  UNL     1       6.620 103.235   7.429  1.00  0.00    -0.231 N 
ATOM     21  H12 UNL     1       7.120 102.904   8.253  1.00  0.00     0.174 HD
ATOM     22  H11 UNL     1       6.943 104.085   6.968  1.00  0.00     0.174 HD
ENDBRANCH   1  20
TORSDOF 5
ENDMDL
MODEL 3
REMARK VINA RESULT: -5.273646581      7.963      9.179
REMARK  5 active torsions:
REMARK  status: ('A' for Active; 'I' for Inactive)
REMARK    1  A    between atoms: N1_1  and  C1_4 
REMARK    2  A    between atoms: C3_10  and  O1_11 
REMARK    3  A    between atoms: C3_10  and  N4_13 
REMARK    4  A    between atoms: N4_13  and  N5_15 
REMARK    5  A    between atoms: N6_20  and  O3_21 
ROOT
HETATM    1  C1  UNL     1       6.844 103.280  12.771  1.00  0.00     0.720 A 
HETATM    2  N2  UNL     1       6.241 104.376  12.298  1.00  0.00    -0.130 N 
ATOM      3  H2  UNL     1       5.376 104.286  11.764  1.00  0.00     0.205 HD
HETATM    4  N3  UNL     1       6.750 105.571  12.515  1.00  0.00    -0.278 N 
ATOM      5  H3  UNL     1       6.266 106.388  12.142  1.00  0.00     0.188 HD
HETATM    6  C2  UNL     1       7.917 105.753  13.229  1.00  0.00     0.172 A 
HETATM    7  C3  UNL     1       8.431 107.087  13.436  1.00  0.00     0.189 C 
HETATM    8  C4  UNL     1       8.541 104.647  13.716  1.00  0.00     0.320 A 
HETATM    9  O2  UNL     1       9.596 104.718  14.369  1.00  0.00    -0.262 OA
HETATM   10  N6  UNL     1       7.975 103.420  13.467  1.00  0.00    -0.010 N 
ENDROOT
BRANCH   7  11
HETATM   11  O1  UNL     1       7.707 108.028  12.901  1.00  0.00    -0.343 OA
ATOM     12  H1  UNL     1       7.819 108.881  13.302  1.00  0.00     0.219 HD
ENDBRANCH   7  11
BRANCH   7  13
HETATM   13  N4  UNL     1       9.555 107.524  14.103  1.00  0.00    -0.285 N 
ATOM     14  H4  UNL     1      10.339 107.888  13.562  1.00  0.00     0.188 HD
BRANCH  13  15
HETATM   15  N5  UNL     1       9.658 107.485  15.524  1.00  0.00    -0.343 N 
ATOM     16  H52 UNL     1       9.611 108.370  16.030  1.00  0.00     0.176 HD
ATOM     17  H51 UNL     1       9.775 106.611  16.037  1.00  0.00     0.176 HD
ENDBRANCH  13  15
ENDBRANCH   7  13
BRANCH  10  18
HETATM   18  O3  UNL     1       8.638 102.314  13.977  1.00  0.00    -0.266 OA
ATOM     19  H3  UNL     1       9.038 102.341  14.838  1.00  0.00     0.246 HD
ENDBRANCH  10  18
BRANCH   1  20
HETATM   20  N1  UNL     1       6.327 102.108  12.547  1.00  0.00    -0.231 N 
ATOM     21  H12 UNL     1       6.264 101.727  11.604  1.00  0.00     0.174 HD
ATOM     22  H11 UNL     1       5.974 101.552  13.325  1.00  0.00     0.174 HD
ENDBRANCH   1  20
TORSDOF 5
ENDMDL
MODEL 4
REMARK VINA RESULT: -5.212430588      1.931      2.585
REMARK  5 active torsions:
REMARK  status: ('A' for Active; 'I' for Inactive)
REMARK    1  A    between atoms: N1_1  and  C1_4 
REMARK    2  A    between atoms: C3_10  and  O1_11 
REMARK    3  A    between atoms: C3_10  and  N4_13 
REMARK    4  A    between atoms: N4_13  and  N5_15 
REMARK    5  A    between atoms: N6_20  and  O3_21 
ROOT
HETATM    1  C1  UNL     1       3.976  98.449   5.360  1.00  0.00     0.720 A 
HETATM    2  N2  UNL     1       3.030  99.071   4.646  1.00  0.00    -0.130 N 
ATOM      3  H2  UNL     1       2.431  98.529   4.023  1.00  0.00     0.205 HD
HETATM    4  N3  UNL     1       2.865 100.374   4.739  1.00  0.00    -0.278 N 
ATOM      5  H3  UNL     1       2.136 100.819   4.182  1.00  0.00     0.188 HD
HETATM    6  C2  UNL     1       3.648 101.157   5.564  1.00  0.00     0.172 A 
HETATM    7  C3  UNL     1       3.423 102.582   5.626  1.00  0.00     0.189 C 
HETATM    8  C4  UNL     1       4.612 100.537   6.296  1.00  0.00     0.320 A 
HETATM    9  O2  UNL     1       5.362 101.164   7.064  1.00  0.00    -0.262 OA
HETATM   10  N6  UNL     1       4.750  99.176   6.169  1.00  0.00    -0.010 N 
ENDROOT
BRANCH   7  11
HETATM   11  O1  UNL     1       2.459 103.005   4.860  1.00  0.00    -0.343 OA
ATOM     12  H1  UNL     1       1.657 103.217   5.323  1.00  0.00     0.219 HD
ENDBRANCH   7  11
BRANCH   7  13
HETATM   13  N4  UNL     1       4.057 103.561   6.359  1.00  0.00    -0.285 N 
ATOM     14  H4  UNL     1       3.608 103.913   7.205  1.00  0.00     0.188 HD
BRANCH  13  15
HETATM   15  N5  UNL     1       5.321 104.099   5.976  1.00  0.00    -0.343 N 
ATOM     16  H52 UNL     1       6.062 103.443   5.727  1.00  0.00     0.176 HD
ATOM     17  H51 UNL     1       5.498 105.103   5.946  1.00  0.00     0.176 HD
ENDBRANCH  13  15
ENDBRANCH   7  13
BRANCH  10  18
HETATM   18  O3  UNL     1       5.744  98.578   6.930  1.00  0.00    -0.266 OA
ATOM     19  H3  UNL     1       6.124  97.748   6.668  1.00  0.00     0.246 HD
ENDBRANCH  10  18
BRANCH   1  20
HETATM   20  N1  UNL     1       4.125  97.162   5.256  1.00  0.00    -0.231 N 
ATOM     21  H12 UNL     1       3.542  96.609   4.629  1.00  0.00     0.174 HD
ATOM     22  H11 UNL     1       4.836  96.686   5.810  1.00  0.00     0.174 HD
ENDBRANCH   1  20
TORSDOF 5
ENDMDL
MODEL 5
REMARK VINA RESULT: -5.185557330      1.703      4.308
REMARK  5 active torsions:
REMARK  status: ('A' for Active; 'I' for Inactive)
REMARK    1  A    between atoms: N1_1  and  C1_4 
REMARK    2  A    between atoms: C3_10  and  O1_11 
REMARK    3  A    between atoms: C3_10  and  N4_13 
REMARK    4  A    between atoms: N4_13  and  N5_15 
REMARK    5  A    between atoms: N6_20  and  O3_21 
ROOT
HETATM    1  C1  UNL     1       5.031 102.711   6.322  1.00  0.00     0.720 A 
HETATM    2  N2  UNL     1       4.104 103.641   6.072  1.00  0.00    -0.130 N 
ATOM      3  H2  UNL     1       4.313 104.624   6.248  1.00  0.00     0.205 HD
HETATM    4  N3  UNL     1       2.922 103.303   5.599  1.00  0.00    -0.278 N 
ATOM      5  H3  UNL     1       2.235 104.035   5.417  1.00  0.00     0.188 HD
HETATM    6  C2  UNL     1       2.582 101.989   5.343  1.00  0.00     0.172 A 
HETATM    7  C3  UNL     1       1.271 101.676   4.825  1.00  0.00     0.189 C 
HETATM    8  C4  UNL     1       3.516 101.033   5.593  1.00  0.00     0.320 A 
HETATM    9  O2  UNL     1       3.296  99.827   5.392  1.00  0.00    -0.262 OA
HETATM   10  N6  UNL     1       4.736 101.430   6.085  1.00  0.00    -0.010 N 
ENDROOT
BRANCH   7  11
HETATM   11  O1  UNL     1       0.505 102.713   4.645  1.00  0.00    -0.343 OA
ATOM     12  H1  UNL     1       0.319 103.202   5.437  1.00  0.00     0.219 HD
ENDBRANCH   7  11
BRANCH   7  13
HETATM   13  N4  UNL     1       0.702 100.465   4.493  1.00  0.00    -0.285 N 
ATOM     14  H4  UNL     1       0.639 100.204   3.509  1.00  0.00     0.188 HD
BRANCH  13  15
HETATM   15  N5  UNL     1       0.199  99.566   5.478  1.00  0.00    -0.343 N 
ATOM     16  H52 UNL     1       0.850  98.896   5.888  1.00  0.00     0.176 HD
ATOM     17  H51 UNL     1      -0.776  99.576   5.777  1.00  0.00     0.176 HD
ENDBRANCH  13  15
ENDBRANCH   7  13
BRANCH  10  18
HETATM   18  O3  UNL     1       5.664 100.429   6.330  1.00  0.00    -0.266 OA
ATOM     19  H3  UNL     1       6.457 100.363   5.810  1.00  0.00     0.246 HD
ENDBRANCH  10  18
BRANCH   1  20
HETATM   20  N1  UNL     1       6.193 103.063   6.789  1.00  0.00    -0.231 N 
ATOM     21  H12 UNL     1       6.291 103.463   7.721  1.00  0.00     0.174 HD
ATOM     22  H11 UNL     1       7.028 102.942   6.217  1.00  0.00     0.174 HD
ENDBRANCH   1  20
TORSDOF 5
ENDMDL
