MODEL 1
REMARK VINA RESULT: -6.073723926      0.000      0.000
REMARK  2 active torsions:
REMARK  status: ('A' for Active; 'I' for Inactive)
REMARK    1  A    between atoms: C2_7  and  N3_8 
REMARK    2  A    between atoms: N3_8  and  C3_10 
ROOT
HETATM    1  N3  UNL     1       4.461 100.202   7.755  1.00  0.00    -0.019 N 
ATOM      2  H3  UNL     1       4.051 100.212   8.689  1.00  0.00     0.203 HD
ENDROOT
BRANCH   1   3
HETATM    3  C2  UNL     1       4.819  98.962   7.162  1.00  0.00     0.715 A 
HETATM    4  N2  UNL     1       5.583  97.976   7.646  1.00  0.00    -0.127 N 
HETATM    5  N1  UNL     1       5.662  96.977   6.753  1.00  0.00    -0.237 N 
ATOM      6  H2  UNL     1       6.038  97.984   8.559  1.00  0.00     0.205 HD
HETATM    7  C1  UNL     1       4.939  97.321   5.677  1.00  0.00     0.353 A 
ATOM      8  H1  UNL     1       6.182  96.108   6.872  1.00  0.00     0.192 HD
HETATM    9  O1  UNL     1       4.752  96.662   4.610  1.00  0.00    -0.245 OA
HETATM   10  N8  UNL     1       4.427  98.546   5.945  1.00  0.00    -0.138 N 
ATOM     11  H8  UNL     1       3.829  99.077   5.313  1.00  0.00     0.189 HD
ENDBRANCH   1   3
BRANCH   1  12
HETATM   12  C3  UNL     1       4.668 101.450   7.059  1.00  0.00     0.709 A 
HETATM   13  N4  UNL     1       5.575 102.282   7.439  1.00  0.00    -0.117 N 
HETATM   14  N5  UNL     1       5.754 103.476   6.750  1.00  0.00    -0.231 N 
ATOM     15  H4  UNL     1       6.162 102.065   8.245  1.00  0.00     0.207 HD
HETATM   16  N6  UNL     1       5.088 103.852   5.741  1.00  0.00    -0.303 N 
ATOM     17  H5  UNL     1       6.484 104.103   7.085  1.00  0.00     0.208 HD
HETATM   18  C4  UNL     1       4.034 103.034   5.190  1.00  0.00     0.280 A 
ATOM     19  H6  UNL     1       5.301 104.751   5.308  1.00  0.00     0.183 HD
HETATM   20  N7  UNL     1       3.878 101.800   5.932  1.00  0.00    -0.207 N 
ATOM     21  H7  UNL     1       3.159 101.145   5.628  1.00  0.00     0.179 HD
ENDBRANCH   1  12
TORSDOF 2
ENDMDL
MODEL 2
REMARK VINA RESULT: -5.793775325      3.215      4.227
REMARK  2 active torsions:
REMARK  status: ('A' for Active; 'I' for Inactive)
REMARK    1  A    between atoms: C2_7  and  N3_8 
REMARK    2  A    between atoms: N3_8  and  C3_10 
ROOT
HETATM    1  N3  UNL     1       2.476 100.989   4.559  1.00  0.00    -0.019 N 
ATOM      2  H3  UNL     1       2.642 100.758   3.579  1.00  0.00     0.203 HD
ENDROOT
BRANCH   1   3
HETATM    3  C2  UNL     1       1.294 100.526   5.195  1.00  0.00     0.715 A 
HETATM    4  N2  UNL     1       0.163 101.186   5.472  1.00  0.00    -0.127 N 
HETATM    5  N1  UNL     1      -0.707 100.366   6.084  1.00  0.00    -0.237 N 
ATOM      6  H2  UNL     1      -0.012 102.166   5.250  1.00  0.00     0.205 HD
HETATM    7  C1  UNL     1      -0.130  99.161   6.205  1.00  0.00     0.353 A 
ATOM      8  H1  UNL     1      -1.643 100.616   6.402  1.00  0.00     0.192 HD
HETATM    9  O1  UNL     1      -0.608  98.107   6.723  1.00  0.00    -0.245 OA
HETATM   10  N8  UNL     1       1.100  99.277   5.653  1.00  0.00    -0.138 N 
ATOM     11  H8  UNL     1       1.785  98.523   5.592  1.00  0.00     0.189 HD
ENDBRANCH   1   3
BRANCH   1  12
HETATM   12  C3  UNL     1       3.448 101.782   5.274  1.00  0.00     0.709 A 
HETATM   13  N4  UNL     1       3.584 103.041   5.037  1.00  0.00    -0.117 N 
HETATM   14  N5  UNL     1       4.528 103.780   5.742  1.00  0.00    -0.231 N 
ATOM     15  H4  UNL     1       3.001 103.494   4.334  1.00  0.00     0.207 HD
HETATM   16  N6  UNL     1       5.305 103.328   6.633  1.00  0.00    -0.303 N 
ATOM     17  H5  UNL     1       4.599 104.773   5.523  1.00  0.00     0.208 HD
HETATM   18  C4  UNL     1       5.278 101.936   7.014  1.00  0.00     0.280 A 
ATOM     19  H6  UNL     1       5.963 103.959   7.090  1.00  0.00     0.183 HD
HETATM   20  N7  UNL     1       4.285 101.198   6.262  1.00  0.00    -0.207 N 
ATOM     21  H7  UNL     1       4.181 100.202   6.453  1.00  0.00     0.179 HD
ENDBRANCH   1  12
TORSDOF 2
ENDMDL
MODEL 3
REMARK VINA RESULT: -5.710395010      3.241      4.144
REMARK  2 active torsions:
REMARK  status: ('A' for Active; 'I' for Inactive)
REMARK    1  A    between atoms: C2_7  and  N3_8 
REMARK    2  A    between atoms: N3_8  and  C3_10 
ROOT
HETATM    1  N3  UNL     1       2.585 100.904   4.710  1.00  0.00    -0.019 N 
ATOM      2  H3  UNL     1       2.777 100.726   3.725  1.00  0.00     0.203 HD
ENDROOT
BRANCH   1   3
HETATM    3  C2  UNL     1       1.352 100.473   5.270  1.00  0.00     0.715 A 
HETATM    4  N2  UNL     1       0.224 101.162   5.475  1.00  0.00    -0.127 N 
HETATM    5  N1  UNL     1      -0.704 100.366   6.031  1.00  0.00    -0.237 N 
ATOM      6  H2  UNL     1       0.089 102.146   5.244  1.00  0.00     0.205 HD
HETATM    7  C1  UNL     1      -0.168  99.146   6.186  1.00  0.00     0.353 A 
ATOM      8  H1  UNL     1      -1.651 100.641   6.289  1.00  0.00     0.192 HD
HETATM    9  O1  UNL     1      -0.706  98.106   6.673  1.00  0.00    -0.245 OA
HETATM   10  N8  UNL     1       1.097  99.230   5.713  1.00  0.00    -0.138 N 
ATOM     11  H8  UNL     1       1.764  98.458   5.696  1.00  0.00     0.189 HD
ENDBRANCH   1   3
BRANCH   1  12
HETATM   12  C3  UNL     1       3.569 101.591   5.512  1.00  0.00     0.709 A 
HETATM   13  N4  UNL     1       4.116 101.020   6.529  1.00  0.00    -0.117 N 
HETATM   14  N5  UNL     1       5.062 101.705   7.283  1.00  0.00    -0.231 N 
ATOM     15  H4  UNL     1       3.854 100.067   6.781  1.00  0.00     0.207 HD
HETATM   16  N6  UNL     1       5.463 102.886   7.067  1.00  0.00    -0.303 N 
ATOM     17  H5  UNL     1       5.469 101.213   8.078  1.00  0.00     0.208 HD
HETATM   18  C4  UNL     1       4.948 103.663   5.966  1.00  0.00     0.280 A 
ATOM     19  H6  UNL     1       6.164 103.296   7.684  1.00  0.00     0.183 HD
HETATM   20  N7  UNL     1       3.968 102.920   5.204  1.00  0.00    -0.207 N 
ATOM     21  H7  UNL     1       3.537 103.376   4.400  1.00  0.00     0.179 HD
ENDBRANCH   1  12
TORSDOF 2
ENDMDL
MODEL 4
REMARK VINA RESULT: -5.482034732      1.298      1.689
REMARK  2 active torsions:
REMARK  status: ('A' for Active; 'I' for Inactive)
REMARK    1  A    between atoms: C2_7  and  N3_8 
REMARK    2  A    between atoms: N3_8  and  C3_10 
ROOT
HETATM    1  N3  UNL     1       4.157  99.782   6.944  1.00  0.00    -0.019 N 
ATOM      2  H3  UNL     1       3.367  99.540   7.541  1.00  0.00     0.203 HD
ENDROOT
BRANCH   1   3
HETATM    3  C2  UNL     1       5.090  98.776   6.577  1.00  0.00     0.715 A 
HETATM    4  N2  UNL     1       5.543  97.736   7.288  1.00  0.00    -0.127 N 
HETATM    5  N1  UNL     1       6.420  97.029   6.557  1.00  0.00    -0.237 N 
ATOM      6  H2  UNL     1       5.262  97.513   8.243  1.00  0.00     0.205 HD
HETATM    7  C1  UNL     1       6.536  97.620   5.358  1.00  0.00     0.353 A 
ATOM      8  H1  UNL     1       6.912  96.190   6.860  1.00  0.00     0.192 HD
HETATM    9  O1  UNL     1       7.259  97.275   4.376  1.00  0.00    -0.245 OA
HETATM   10  N8  UNL     1       5.711  98.694   5.388  1.00  0.00    -0.138 N 
ATOM     11  H8  UNL     1       5.579  99.348   4.616  1.00  0.00     0.189 HD
ENDBRANCH   1   3
BRANCH   1  12
HETATM   12  C3  UNL     1       4.308 101.143   6.486  1.00  0.00     0.709 A 
HETATM   13  N4  UNL     1       3.474 101.660   5.651  1.00  0.00    -0.117 N 
HETATM   14  N5  UNL     1       3.643 102.974   5.227  1.00  0.00    -0.231 N 
ATOM     15  H4  UNL     1       2.692 101.107   5.301  1.00  0.00     0.207 HD
HETATM   16  N6  UNL     1       4.572 103.753   5.590  1.00  0.00    -0.303 N 
ATOM     17  H5  UNL     1       2.959 103.342   4.567  1.00  0.00     0.208 HD
HETATM   18  C4  UNL     1       5.588 103.325   6.522  1.00  0.00     0.280 A 
ATOM     19  H6  UNL     1       4.604 104.702   5.217  1.00  0.00     0.183 HD
HETATM   20  N7  UNL     1       5.380 101.955   6.942  1.00  0.00    -0.207 N 
ATOM     21  H7  UNL     1       6.043 101.549   7.603  1.00  0.00     0.179 HD
ENDBRANCH   1  12
TORSDOF 2
ENDMDL
MODEL 5
REMARK VINA RESULT: -5.369596533      3.386      5.373
REMARK  2 active torsions:
REMARK  status: ('A' for Active; 'I' for Inactive)
REMARK    1  A    between atoms: C2_7  and  N3_8 
REMARK    2  A    between atoms: N3_8  and  C3_10 
ROOT
HETATM    1  N3  UNL     1       3.558  99.017   5.394  1.00  0.00    -0.019 N 
ATOM      2  H3  UNL     1       4.207  98.549   4.763  1.00  0.00     0.203 HD
ENDROOT
BRANCH   1   3
HETATM    3  C2  UNL     1       3.984 100.171   6.105  1.00  0.00     0.715 A 
HETATM    4  N2  UNL     1       4.390 100.285   7.375  1.00  0.00    -0.127 N 
HETATM    5  N1  UNL     1       4.704 101.563   7.642  1.00  0.00    -0.237 N 
ATOM      6  H2  UNL     1       4.451  99.515   8.041  1.00  0.00     0.205 HD
HETATM    7  C1  UNL     1       4.499 102.284   6.530  1.00  0.00     0.353 A 
ATOM      8  H1  UNL     1       5.041 101.923   8.534  1.00  0.00     0.192 HD
HETATM    9  O1  UNL     1       4.672 103.528   6.353  1.00  0.00    -0.245 OA
HETATM   10  N8  UNL     1       4.056 101.412   5.594  1.00  0.00    -0.138 N 
ATOM     11  H8  UNL     1       3.810 101.661   4.635  1.00  0.00     0.189 HD
ENDBRANCH   1   3
BRANCH   1  12
HETATM   12  C3  UNL     1       2.221  98.496   5.550  1.00  0.00     0.709 A 
HETATM   13  N4  UNL     1       1.350  99.103   6.280  1.00  0.00    -0.117 N 
HETATM   14  N5  UNL     1       0.069  98.579   6.412  1.00  0.00    -0.231 N 
ATOM     15  H4  UNL     1       1.601  99.966   6.762  1.00  0.00     0.207 HD
HETATM   16  N6  UNL     1      -0.354  97.519   5.865  1.00  0.00    -0.303 N 
ATOM     17  H5  UNL     1      -0.587  99.093   6.999  1.00  0.00     0.208 HD
HETATM   18  C4  UNL     1       0.497  96.722   5.015  1.00  0.00     0.280 A 
ATOM     19  H6  UNL     1      -1.316  97.222   6.028  1.00  0.00     0.183 HD
HETATM   20  N7  UNL     1       1.821  97.297   4.901  1.00  0.00    -0.207 N 
ATOM     21  H7  UNL     1       2.507  96.813   4.322  1.00  0.00     0.179 HD
ENDBRANCH   1  12
TORSDOF 2
ENDMDL
