MODEL 1
REMARK VINA RESULT: -4.562603012      0.000      0.000
REMARK  2 active torsions:
REMARK  status: ('A' for Active; 'I' for Inactive)
REMARK    1  A    between atoms: C3_5  and  N2_6 
REMARK    2  A    between atoms: N2_6  and  C4_8 
ROOT
HETATM    1  C1  UNL     1      10.022  12.544  16.706  1.00  0.00     0.037 C 
HETATM    2  C2  UNL     1       9.852  11.657  17.511  1.00  0.00    -0.000 C 
HETATM    3  N1  UNL     1       9.629  10.626  18.450  1.00  0.00    -0.312 N 
ATOM      4  H1  UNL     1       9.120  10.817  19.312  1.00  0.00     0.177 HD
HETATM    5  C3  UNL     1      10.075   9.442  18.207  1.00  0.00     0.184 C 
ENDROOT
BRANCH   5   6
HETATM    6  N2  UNL     1      10.789   9.103  17.034  1.00  0.00    -0.381 N 
ATOM      7  H2  UNL     1      11.786   9.317  17.007  1.00  0.00     0.160 HD
BRANCH   6   8
HETATM    8  C4  UNL     1      10.212   8.485  15.885  1.00  0.00     0.082 C 
HETATM    9  C5  UNL     1       8.680   8.418  15.904  1.00  0.00     0.025 C 
HETATM   10  C6  UNL     1       8.657   9.639  15.050  1.00  0.00     0.004 C 
HETATM   11  C7  UNL     1      10.094   9.366  14.660  1.00  0.00     0.025 C 
ENDBRANCH   6   8
ENDBRANCH   5   6
TORSDOF 2
ENDMDL
MODEL 2
REMARK VINA RESULT: -4.150541768      1.438      3.587
REMARK  2 active torsions:
REMARK  status: ('A' for Active; 'I' for Inactive)
REMARK    1  A    between atoms: C3_5  and  N2_6 
REMARK    2  A    between atoms: N2_6  and  C4_8 
ROOT
HETATM    1  C1  UNL     1       7.738   8.501  15.432  1.00  0.00     0.037 C 
HETATM    2  C2  UNL     1       8.761   8.801  14.859  1.00  0.00    -0.000 C 
HETATM    3  N1  UNL     1       9.943   9.171  14.182  1.00  0.00    -0.312 N 
ATOM      4  H1  UNL     1       9.950   9.250  13.165  1.00  0.00     0.177 HD
HETATM    5  C3  UNL     1      11.014   9.407  14.858  1.00  0.00     0.184 C 
ENDROOT
BRANCH   5   6
HETATM    6  N2  UNL     1      11.079   9.318  16.269  1.00  0.00    -0.381 N 
ATOM      7  H2  UNL     1      11.143   8.388  16.682  1.00  0.00     0.160 HD
BRANCH   6   8
HETATM    8  C4  UNL     1      11.063  10.438  17.152  1.00  0.00     0.082 C 
HETATM    9  C5  UNL     1      10.959  11.797  16.450  1.00  0.00     0.025 C 
HETATM   10  C6  UNL     1       9.492  11.777  16.718  1.00  0.00     0.004 C 
HETATM   11  C7  UNL     1       9.726  10.740  17.796  1.00  0.00     0.025 C 
ENDBRANCH   6   8
ENDBRANCH   5   6
TORSDOF 2
ENDMDL
MODEL 3
REMARK VINA RESULT: -3.978735902      1.700      3.486
REMARK  2 active torsions:
REMARK  status: ('A' for Active; 'I' for Inactive)
REMARK    1  A    between atoms: C3_5  and  N2_6 
REMARK    2  A    between atoms: N2_6  and  C4_8 
ROOT
HETATM    1  C1  UNL     1       8.295   7.514  15.281  1.00  0.00     0.037 C 
HETATM    2  C2  UNL     1       8.486   8.695  15.097  1.00  0.00    -0.000 C 
HETATM    3  N1  UNL     1       8.686  10.075  14.876  1.00  0.00    -0.312 N 
ATOM      4  H1  UNL     1       8.537  10.474  13.949  1.00  0.00     0.177 HD
HETATM    5  C3  UNL     1       9.058  10.826  15.854  1.00  0.00     0.184 C 
ENDROOT
BRANCH   5   6
HETATM    6  N2  UNL     1       9.283  10.343  17.165  1.00  0.00    -0.381 N 
ATOM      7  H2  UNL     1       8.467  10.149  17.745  1.00  0.00     0.160 HD
BRANCH   6   8
HETATM    8  C4  UNL     1      10.572  10.111  17.732  1.00  0.00     0.082 C 
HETATM    9  C5  UNL     1      10.812   8.666  18.187  1.00  0.00     0.025 C 
HETATM   10  C6  UNL     1      11.520   8.421  16.899  1.00  0.00     0.004 C 
HETATM   11  C7  UNL     1      11.696   9.916  16.737  1.00  0.00     0.025 C 
ENDBRANCH   6   8
ENDBRANCH   5   6
TORSDOF 2
ENDMDL
MODEL 4
REMARK VINA RESULT: -3.820792386      1.325      1.616
REMARK  2 active torsions:
REMARK  status: ('A' for Active; 'I' for Inactive)
REMARK    1  A    between atoms: C3_5  and  N2_6 
REMARK    2  A    between atoms: N2_6  and  C4_8 
ROOT
HETATM    1  C1  UNL     1       9.824  12.497  16.859  1.00  0.00     0.037 C 
HETATM    2  C2  UNL     1      10.747  11.859  16.403  1.00  0.00    -0.000 C 
HETATM    3  N1  UNL     1      11.838  11.129  15.886  1.00  0.00    -0.312 N 
ATOM      4  H1  UNL     1      12.603  11.612  15.415  1.00  0.00     0.177 HD
HETATM    5  C3  UNL     1      11.860   9.847  16.013  1.00  0.00     0.184 C 
ENDROOT
BRANCH   5   6
HETATM    6  N2  UNL     1      10.836   9.111  16.654  1.00  0.00    -0.381 N 
ATOM      7  H2  UNL     1      10.848   9.070  17.673  1.00  0.00     0.160 HD
BRANCH   6   8
HETATM    8  C4  UNL     1       9.788   8.421  15.974  1.00  0.00     0.082 C 
HETATM    9  C5  UNL     1       8.376   8.898  16.338  1.00  0.00     0.025 C 
HETATM   10  C6  UNL     1       8.389   9.742  15.110  1.00  0.00     0.004 C 
HETATM   11  C7  UNL     1       9.511   8.886  14.561  1.00  0.00     0.025 C 
ENDBRANCH   6   8
ENDBRANCH   5   6
TORSDOF 2
ENDMDL
MODEL 5
REMARK VINA RESULT: -3.729454791      0.996      1.576
REMARK  2 active torsions:
REMARK  status: ('A' for Active; 'I' for Inactive)
REMARK    1  A    between atoms: C3_5  and  N2_6 
REMARK    2  A    between atoms: N2_6  and  C4_8 
ROOT
HETATM    1  C1  UNL     1       9.939  12.734  16.659  1.00  0.00     0.037 C 
HETATM    2  C2  UNL     1       9.834  11.897  17.528  1.00  0.00    -0.000 C 
HETATM    3  N1  UNL     1       9.694  10.936  18.552  1.00  0.00    -0.312 N 
ATOM      4  H1  UNL     1       9.893  11.185  19.521  1.00  0.00     0.177 HD
HETATM    5  C3  UNL     1       9.314   9.743  18.253  1.00  0.00     0.184 C 
ENDROOT
BRANCH   5   6
HETATM    6  N2  UNL     1       9.021   9.326  16.933  1.00  0.00    -0.381 N 
ATOM      7  H2  UNL     1       8.084   9.513  16.574  1.00  0.00     0.160 HD
BRANCH   6   8
HETATM    8  C4  UNL     1       9.942   8.663  16.069  1.00  0.00     0.082 C 
HETATM    9  C5  UNL     1      10.250   9.419  14.771  1.00  0.00     0.025 C 
HETATM   10  C6  UNL     1      11.489   9.939  15.416  1.00  0.00     0.004 C 
HETATM   11  C7  UNL     1      11.404   8.820  16.432  1.00  0.00     0.025 C 
ENDBRANCH   6   8
ENDBRANCH   5   6
TORSDOF 2
ENDMDL
