MODEL 1
REMARK VINA RESULT: -4.210607145      0.000      0.000
REMARK  2 active torsions:
REMARK  status: ('A' for Active; 'I' for Inactive)
REMARK    1  A    between atoms: N2_4  and  N3_6 
REMARK    2  A    between atoms: C1_8  and  C2_9 
ROOT
HETATM    1  N3  UNL     1      11.422  11.720  16.180  1.00  0.00    -0.295 N 
ATOM      2  H3  UNL     1      12.318  12.205  16.226  1.00  0.00     0.187 HD
HETATM    3  C1  UNL     1      11.406  10.504  15.781  1.00  0.00     0.145 C 
ENDROOT
BRANCH   1   4
HETATM    4  N2  UNL     1      10.270  12.414  16.555  1.00  0.00    -0.250 N 
HETATM    5  N1  UNL     1       9.761  12.270  17.694  1.00  0.00    -0.331 N 
ATOM      6  H12 UNL     1      10.211  11.629  18.348  1.00  0.00     0.178 HD
ATOM      7  H11 UNL     1       8.920  12.776  17.968  1.00  0.00     0.178 HD
ATOM      8  H2  UNL     1       9.832  13.050  15.889  1.00  0.00     0.207 HD
ENDBRANCH   1   4
BRANCH   3   9
HETATM    9  C2  UNL     1      10.132   9.764  15.699  1.00  0.00     0.091 A 
HETATM   10  C3  UNL     1       9.637   9.200  14.531  1.00  0.00     0.040 A 
HETATM   11  C4  UNL     1       8.429   8.588  14.821  1.00  0.00     0.027 A 
HETATM   12  C5  UNL     1       8.251   8.814  16.172  1.00  0.00     0.142 A 
HETATM   13  O1  UNL     1       9.282   9.510  16.642  1.00  0.00    -0.321 OA
ENDBRANCH   3   9
TORSDOF 2
ENDMDL
MODEL 2
REMARK VINA RESULT: -4.148695914      1.083      1.861
REMARK  2 active torsions:
REMARK  status: ('A' for Active; 'I' for Inactive)
REMARK    1  A    between atoms: N2_4  and  N3_6 
REMARK    2  A    between atoms: C1_8  and  C2_9 
ROOT
HETATM    1  N3  UNL     1       9.760  11.248  18.239  1.00  0.00    -0.295 N 
ATOM      2  H3  UNL     1       9.886  11.509  19.217  1.00  0.00     0.187 HD
HETATM    3  C1  UNL     1       9.734  10.004  17.938  1.00  0.00     0.145 C 
ENDROOT
BRANCH   1   4
HETATM    4  N2  UNL     1       9.623  12.263  17.291  1.00  0.00    -0.250 N 
HETATM    5  N1  UNL     1      10.571  12.582  16.532  1.00  0.00    -0.331 N 
ATOM      6  H12 UNL     1      11.454  12.079  16.623  1.00  0.00     0.178 HD
ATOM      7  H11 UNL     1      10.471  13.324  15.839  1.00  0.00     0.178 HD
ATOM      8  H2  UNL     1       8.733  12.757  17.214  1.00  0.00     0.207 HD
ENDBRANCH   1   4
BRANCH   3   9
HETATM    9  C2  UNL     1       9.554   9.580  16.536  1.00  0.00     0.091 A 
HETATM   10  C3  UNL     1       8.408   8.964  16.054  1.00  0.00     0.040 A 
HETATM   11  C4  UNL     1       8.585   8.709  14.705  1.00  0.00     0.027 A 
HETATM   12  C5  UNL     1       9.851   9.191  14.432  1.00  0.00     0.142 A 
HETATM   13  O1  UNL     1      10.378   9.694  15.544  1.00  0.00    -0.321 OA
ENDBRANCH   3   9
TORSDOF 2
ENDMDL
MODEL 3
REMARK VINA RESULT: -4.100956419      3.024      3.417
REMARK  2 active torsions:
REMARK  status: ('A' for Active; 'I' for Inactive)
REMARK    1  A    between atoms: N2_4  and  N3_6 
REMARK    2  A    between atoms: C1_8  and  C2_9 
ROOT
HETATM    1  N3  UNL     1       9.627   9.052  14.283  1.00  0.00    -0.295 N 
ATOM      2  H3  UNL     1       9.882   8.685  13.367  1.00  0.00     0.187 HD
HETATM    3  C1  UNL     1      10.525   9.647  14.975  1.00  0.00     0.145 C 
ENDROOT
BRANCH   1   4
HETATM    4  N2  UNL     1       8.314   8.883  14.726  1.00  0.00    -0.250 N 
HETATM    5  N1  UNL     1       7.991   7.918  15.463  1.00  0.00    -0.331 N 
ATOM      6  H12 UNL     1       8.715   7.253  15.735  1.00  0.00     0.178 HD
ATOM      7  H11 UNL     1       7.032   7.795  15.787  1.00  0.00     0.178 HD
ATOM      8  H2  UNL     1       7.602   9.557  14.444  1.00  0.00     0.207 HD
ENDBRANCH   1   4
BRANCH   3   9
HETATM    9  C2  UNL     1      10.201  10.194  16.305  1.00  0.00     0.091 A 
HETATM   10  C3  UNL     1      10.127  11.551  16.589  1.00  0.00     0.040 A 
HETATM   11  C4  UNL     1       9.802  11.699  17.927  1.00  0.00     0.027 A 
HETATM   12  C5  UNL     1       9.692  10.404  18.394  1.00  0.00     0.142 A 
HETATM   13  O1  UNL     1       9.936   9.556  17.400  1.00  0.00    -0.321 OA
ENDBRANCH   3   9
TORSDOF 2
ENDMDL
MODEL 4
REMARK VINA RESULT: -4.097678923      1.026      1.611
REMARK  2 active torsions:
REMARK  status: ('A' for Active; 'I' for Inactive)
REMARK    1  A    between atoms: N2_4  and  N3_6 
REMARK    2  A    between atoms: C1_8  and  C2_9 
ROOT
HETATM    1  N3  UNL     1       9.888  11.389  18.089  1.00  0.00    -0.295 N 
ATOM      2  H3  UNL     1      10.173  11.723  19.010  1.00  0.00     0.187 HD
HETATM    3  C1  UNL     1       9.855  10.126  17.881  1.00  0.00     0.145 C 
ENDROOT
BRANCH   1   4
HETATM    4  N2  UNL     1       9.551  12.329  17.115  1.00  0.00    -0.250 N 
HETATM    5  N1  UNL     1      10.425  13.046  16.567  1.00  0.00    -0.331 N 
ATOM      6  H12 UNL     1      11.397  12.926  16.851  1.00  0.00     0.178 HD
ATOM      7  H11 UNL     1      10.179  13.733  15.855  1.00  0.00     0.178 HD
ATOM      8  H2  UNL     1       8.573  12.437  16.843  1.00  0.00     0.207 HD
ENDBRANCH   1   4
BRANCH   3   9
HETATM    9  C2  UNL     1       9.448   9.598  16.565  1.00  0.00     0.091 A 
HETATM   10  C3  UNL     1      10.260   9.611  15.440  1.00  0.00     0.040 A 
HETATM   11  C4  UNL     1       9.560   9.039  14.391  1.00  0.00     0.027 A 
HETATM   12  C5  UNL     1       8.339   8.703  14.942  1.00  0.00     0.142 A 
HETATM   13  O1  UNL     1       8.324   9.053  16.225  1.00  0.00    -0.321 OA
ENDBRANCH   3   9
TORSDOF 2
ENDMDL
MODEL 5
REMARK VINA RESULT: -3.598275459      3.052      3.375
REMARK  2 active torsions:
REMARK  status: ('A' for Active; 'I' for Inactive)
REMARK    1  A    between atoms: N2_4  and  N3_6 
REMARK    2  A    between atoms: C1_8  and  C2_9 
ROOT
HETATM    1  N3  UNL     1       9.493   9.273  14.256  1.00  0.00    -0.295 N 
ATOM      2  H3  UNL     1       9.639   9.281  13.247  1.00  0.00     0.187 HD
HETATM    3  C1  UNL     1      10.483   9.554  15.019  1.00  0.00     0.145 C 
ENDROOT
BRANCH   1   4
HETATM    4  N2  UNL     1       8.224   8.957  14.743  1.00  0.00    -0.250 N 
HETATM    5  N1  UNL     1       8.022   7.914  15.414  1.00  0.00    -0.331 N 
ATOM      6  H12 UNL     1       8.812   7.296  15.599  1.00  0.00     0.178 HD
ATOM      7  H11 UNL     1       7.094   7.683  15.770  1.00  0.00     0.178 HD
ATOM      8  H2  UNL     1       7.445   9.585  14.549  1.00  0.00     0.207 HD
ENDBRANCH   1   4
BRANCH   3   9
HETATM    9  C2  UNL     1      10.318   9.555  16.484  1.00  0.00     0.091 A 
HETATM   10  C3  UNL     1      11.054   8.756  17.348  1.00  0.00     0.040 A 
HETATM   11  C4  UNL     1      10.638   9.015  18.643  1.00  0.00     0.027 A 
HETATM   12  C5  UNL     1       9.655   9.974  18.497  1.00  0.00     0.142 A 
HETATM   13  O1  UNL     1       9.505  10.257  17.207  1.00  0.00    -0.321 OA
ENDBRANCH   3   9
TORSDOF 2
ENDMDL
