MODEL 1
REMARK VINA RESULT: -3.964804604      0.000      0.000
REMARK  2 active torsions:
REMARK  status: ('A' for Active; 'I' for Inactive)
REMARK    1  A    between atoms: N1_1  and  N2_4 
REMARK    2  A    between atoms: N2_4  and  N3_6 
ROOT
HETATM    1  N3  UNL     1       8.401   9.348  15.434  1.00  0.00    -0.275 N 
ATOM      2  H3  UNL     1       7.512   9.678  15.808  1.00  0.00     0.189 HD
HETATM    3  C1  UNL     1       9.449  10.087  15.568  1.00  0.00     0.093 C 
HETATM    4  C2  UNL     1       9.444  11.409  16.244  1.00  0.00     0.079 C 
HETATM    5  C3  UNL     1      10.890  11.733  16.516  1.00  0.00     0.027 C 
HETATM    6  C4  UNL     1      11.712  10.603  15.954  1.00  0.00     0.121 C 
HETATM    7  N4  UNL     1      10.788   9.858  15.141  1.00  0.00    -0.379 N 
ATOM      8  H4  UNL     1      11.054   9.250  14.366  1.00  0.00     0.160 HD
ENDROOT
BRANCH   1   9
HETATM    9  N2  UNL     1       8.447   8.105  14.788  1.00  0.00    -0.248 N 
ATOM     10  H2  UNL     1       8.739   8.034  13.814  1.00  0.00     0.207 HD
BRANCH   9  11
HETATM   11  N1  UNL     1       8.112   7.054  15.455  1.00  0.00    -0.331 N 
ATOM     12  H12 UNL     1       7.126   6.836  15.596  1.00  0.00     0.178 HD
ATOM     13  H11 UNL     1       8.852   6.459  15.829  1.00  0.00     0.178 HD
ENDBRANCH   9  11
ENDBRANCH   1   9
TORSDOF 2
ENDMDL
MODEL 2
REMARK VINA RESULT: -3.880051252      0.976      1.503
REMARK  2 active torsions:
REMARK  status: ('A' for Active; 'I' for Inactive)
REMARK    1  A    between atoms: N1_1  and  N2_4 
REMARK    2  A    between atoms: N2_4  and  N3_6 
ROOT
HETATM    1  N3  UNL     1       9.199   8.797  14.937  1.00  0.00    -0.275 N 
ATOM      2  H3  UNL     1       9.685   8.552  14.074  1.00  0.00     0.189 HD
HETATM    3  C1  UNL     1       9.728   9.668  15.727  1.00  0.00     0.093 C 
HETATM    4  C2  UNL     1      11.020  10.348  15.457  1.00  0.00     0.079 C 
HETATM    5  C3  UNL     1      11.066  11.524  16.397  1.00  0.00     0.027 C 
HETATM    6  C4  UNL     1       9.809  11.479  17.227  1.00  0.00     0.121 C 
HETATM    7  N4  UNL     1       9.259  10.174  16.972  1.00  0.00    -0.379 N 
ATOM      8  H4  UNL     1       8.621   9.680  17.597  1.00  0.00     0.160 HD
ENDROOT
BRANCH   1   9
HETATM    9  N2  UNL     1       7.977   8.176  15.229  1.00  0.00    -0.248 N 
ATOM     10  H2  UNL     1       7.124   8.726  15.331  1.00  0.00     0.207 HD
BRANCH   9  11
HETATM   11  N1  UNL     1       7.956   6.895  15.364  1.00  0.00    -0.331 N 
ATOM     12  H12 UNL     1       8.831   6.370  15.365  1.00  0.00     0.178 HD
ATOM     13  H11 UNL     1       7.053   6.432  15.469  1.00  0.00     0.178 HD
ENDBRANCH   9  11
ENDBRANCH   1   9
TORSDOF 2
ENDMDL
MODEL 3
REMARK VINA RESULT: -3.853005352      2.364      3.915
REMARK  2 active torsions:
REMARK  status: ('A' for Active; 'I' for Inactive)
REMARK    1  A    between atoms: N1_1  and  N2_4 
REMARK    2  A    between atoms: N2_4  and  N3_6 
ROOT
HETATM    1  N3  UNL     1      10.173  10.874  17.511  1.00  0.00    -0.275 N 
ATOM      2  H3  UNL     1      10.805  10.494  18.217  1.00  0.00     0.189 HD
HETATM    3  C1  UNL     1       9.765  10.104  16.560  1.00  0.00     0.093 C 
HETATM    4  C2  UNL     1      10.159   8.680  16.424  1.00  0.00     0.079 C 
HETATM    5  C3  UNL     1       9.184   8.078  15.447  1.00  0.00     0.027 C 
HETATM    6  C4  UNL     1       8.261   9.183  15.003  1.00  0.00     0.121 C 
HETATM    7  N4  UNL     1       8.894  10.388  15.469  1.00  0.00    -0.379 N 
ATOM      8  H4  UNL     1       8.742  11.316  15.074  1.00  0.00     0.160 HD
ENDROOT
BRANCH   1   9
HETATM    9  N2  UNL     1       9.778  12.214  17.604  1.00  0.00    -0.248 N 
ATOM     10  H2  UNL     1       9.244  12.546  18.408  1.00  0.00     0.207 HD
BRANCH   9  11
HETATM   11  N1  UNL     1      10.104  13.018  16.651  1.00  0.00    -0.331 N 
ATOM     12  H12 UNL     1      11.084  13.123  16.388  1.00  0.00     0.178 HD
ATOM     13  H11 UNL     1       9.363  13.536  16.178  1.00  0.00     0.178 HD
ENDBRANCH   9  11
ENDBRANCH   1   9
TORSDOF 2
ENDMDL
MODEL 4
REMARK VINA RESULT: -3.797236118      1.361      1.520
REMARK  2 active torsions:
REMARK  status: ('A' for Active; 'I' for Inactive)
REMARK    1  A    between atoms: N1_1  and  N2_4 
REMARK    2  A    between atoms: N2_4  and  N3_6 
ROOT
HETATM    1  N3  UNL     1       8.843   9.752  14.889  1.00  0.00    -0.275 N 
ATOM      2  H3  UNL     1       8.579  10.437  14.181  1.00  0.00     0.189 HD
HETATM    3  C1  UNL     1       9.377  10.164  15.988  1.00  0.00     0.093 C 
HETATM    4  C2  UNL     1       9.636  11.594  16.294  1.00  0.00     0.079 C 
HETATM    5  C3  UNL     1       9.890  11.654  17.777  1.00  0.00     0.027 C 
HETATM    6  C4  UNL     1       9.812  10.242  18.299  1.00  0.00     0.121 C 
HETATM    7  N4  UNL     1       9.828   9.422  17.117  1.00  0.00    -0.379 N 
ATOM      8  H4  UNL     1      10.121   8.445  17.090  1.00  0.00     0.160 HD
ENDROOT
BRANCH   1   9
HETATM    9  N2  UNL     1       8.615   8.393  14.638  1.00  0.00    -0.248 N 
ATOM     10  H2  UNL     1       9.085   7.919  13.867  1.00  0.00     0.207 HD
BRANCH   9  11
HETATM   11  N1  UNL     1       7.797   7.755  15.404  1.00  0.00    -0.331 N 
ATOM     12  H12 UNL     1       8.128   6.958  15.947  1.00  0.00     0.178 HD
ATOM     13  H11 UNL     1       6.828   8.070  15.449  1.00  0.00     0.178 HD
ENDBRANCH   9  11
ENDBRANCH   1   9
TORSDOF 2
ENDMDL
MODEL 5
REMARK VINA RESULT: -3.461814254      2.761      3.954
REMARK  2 active torsions:
REMARK  status: ('A' for Active; 'I' for Inactive)
REMARK    1  A    between atoms: N1_1  and  N2_4 
REMARK    2  A    between atoms: N2_4  and  N3_6 
ROOT
HETATM    1  N3  UNL     1      10.895  11.725  16.164  1.00  0.00    -0.275 N 
ATOM      2  H3  UNL     1      11.428  11.808  15.298  1.00  0.00     0.189 HD
HETATM    3  C1  UNL     1      10.726  10.557  16.685  1.00  0.00     0.093 C 
HETATM    4  C2  UNL     1      11.266   9.306  16.097  1.00  0.00     0.079 C 
HETATM    5  C3  UNL     1      11.179   8.272  17.188  1.00  0.00     0.027 C 
HETATM    6  C4  UNL     1      10.549   8.939  18.383  1.00  0.00     0.121 C 
HETATM    7  N4  UNL     1      10.032  10.180  17.870  1.00  0.00    -0.379 N 
ATOM      8  H4  UNL     1       9.275  10.714  18.295  1.00  0.00     0.160 HD
ENDROOT
BRANCH   1   9
HETATM    9  N2  UNL     1      10.369  12.883  16.751  1.00  0.00    -0.248 N 
ATOM     10  H2  UNL     1      10.899  13.400  17.452  1.00  0.00     0.207 HD
BRANCH   9  11
HETATM   11  N1  UNL     1       9.198  13.280  16.384  1.00  0.00    -0.331 N 
ATOM     12  H12 UNL     1       8.367  12.859  16.799  1.00  0.00     0.178 HD
ATOM     13  H11 UNL     1       9.133  14.014  15.679  1.00  0.00     0.178 HD
ENDBRANCH   9  11
ENDBRANCH   1   9
TORSDOF 2
ENDMDL
