MODEL 1
REMARK VINA RESULT: -7.867812273      0.000      0.000
REMARK  11 active torsions:
REMARK  status: ('A' for Active; 'I' for Inactive)
REMARK    1  A    between atoms: C2_2  and  O1_3 
REMARK    2  A    between atoms: C2_2  and  C3_5 
REMARK    3  A    between atoms: C4_8  and  O2_9 
REMARK    4  A    between atoms: C5_11  and  N2_12 
REMARK    5  A    between atoms: N2_12  and  C6_14 
REMARK    6  A    between atoms: C6_14  and  C7_18 
REMARK    7  A    between atoms: C7_18  and  C8_19 
REMARK    8  A    between atoms: C8_19  and  C9_20 
REMARK    9  A    between atoms: C9_20  and  C10_21 
REMARK   10  A    between atoms: C10_21  and  C11_22 
REMARK   11  A    between atoms: C11_22  and  N4_23 
ROOT
HETATM    1  C3  UNL     1     -13.426   9.096  11.706  1.00  0.00     0.204 C 
HETATM    2  N1  UNL     1     -14.468   8.331  12.270  1.00  0.00    -0.354 N 
ATOM      3  H1  UNL     1     -15.171   8.954  12.667  1.00  0.00     0.162 HD
HETATM    4  C4  UNL     1     -14.854   7.020  12.464  1.00  0.00     0.159 C 
HETATM    5  C5  UNL     1     -14.447   5.940  13.402  1.00  0.00     0.061 C 
HETATM    6  C13 UNL     1     -13.791   6.370  14.664  1.00  0.00     0.061 C 
HETATM    7  C14 UNL     1     -14.866   6.979  15.578  1.00  0.00     0.006 C 
HETATM    8  C15 UNL     1     -14.439   6.949  17.011  1.00  0.00     0.000 C 
HETATM    9  C16 UNL     1     -14.935   8.167  17.721  1.00  0.00     0.000 C 
HETATM   10  C17 UNL     1     -16.393   8.400  17.466  1.00  0.00     0.004 C 
HETATM   11  C18 UNL     1     -16.646   9.894  17.226  1.00  0.00     0.027 C 
HETATM   12  C19 UNL     1     -17.657  10.009  16.162  1.00  0.00    -0.031 C 
HETATM   13  C20 UNL     1     -17.647  10.931  15.246  1.00  0.00    -0.030 C 
HETATM   14  C21 UNL     1     -16.636  11.998  15.120  1.00  0.00     0.030 C 
HETATM   15  C22 UNL     1     -16.287  12.237  13.678  1.00  0.00     0.054 C 
HETATM   16  C23 UNL     1     -14.837  11.925  13.333  1.00  0.00     0.121 C 
HETATM   17  C24 UNL     1     -14.145  13.302  13.359  1.00  0.00     0.068 C 
HETATM   18  C25 UNL     1     -13.414  13.321  14.655  1.00  0.00     0.134 C 
HETATM   19  N7  UNL     1     -13.294  11.932  15.048  1.00  0.00    -0.146 NA
HETATM   20  N8  UNL     1     -14.264  11.246  14.400  1.00  0.00    -0.116 NA
HETATM   21  N9  UNL     1     -14.745  11.340  12.014  1.00  0.00    -0.335 N 
ATOM     22  H9  UNL     1     -15.526  11.592  11.408  1.00  0.00     0.164 HD
HETATM   23  C26 UNL     1     -13.831  10.518  11.404  1.00  0.00     0.244 C 
HETATM   24  O3  UNL     1     -13.194  11.018  10.392  1.00  0.00    -0.271 OA
ENDROOT
BRANCH   5  25
HETATM   25  N2  UNL     1     -13.932   4.767  12.775  1.00  0.00    -0.346 N 
ATOM     26  H2  UNL     1     -13.145   4.318  13.243  1.00  0.00     0.167 HD
BRANCH  25  27
HETATM   27  C6  UNL     1     -14.386   4.143  11.567  1.00  0.00     0.074 C 
HETATM   28  N3  UNL     1     -15.564   3.670  11.454  1.00  0.00    -0.389 N 
ATOM     29  H32 UNL     1     -16.214   3.747  12.236  1.00  0.00     0.157 HD
ATOM     30  H31 UNL     1     -15.887   3.225  10.595  1.00  0.00     0.157 HD
BRANCH  27  31
HETATM   31  C7  UNL     1     -13.443   4.032  10.433  1.00  0.00     0.076 C 
BRANCH  31  32
HETATM   32  C8  UNL     1     -12.284   4.940  10.423  1.00  0.00     0.007 C 
BRANCH  32  33
HETATM   33  C9  UNL     1     -10.944   4.389  10.674  1.00  0.00     0.002 C 
BRANCH  33  34
HETATM   34  C10 UNL     1     -10.427   4.339  12.057  1.00  0.00     0.020 C 
BRANCH  34  35
HETATM   35  C11 UNL     1      -9.057   3.774  12.253  1.00  0.00     0.122 C 
BRANCH  35  36
HETATM   36  N4  UNL     1      -8.095   4.640  12.838  1.00  0.00    -0.367 N 
HETATM   37  C12 UNL     1      -7.325   4.289  13.810  1.00  0.00     0.196 C 
HETATM   38  N5  UNL     1      -7.405   2.961  14.367  1.00  0.00    -0.067 NA
HETATM   39  N6  UNL     1      -6.384   5.206  14.351  1.00  0.00    -0.067 NA
ATOM     40  H4  UNL     1      -8.010   5.587  12.471  1.00  0.00     0.161 HD
ENDBRANCH  35  36
ENDBRANCH  34  35
ENDBRANCH  33  34
ENDBRANCH  32  33
ENDBRANCH  31  32
ENDBRANCH  27  31
ENDBRANCH  25  27
ENDBRANCH   5  25
BRANCH   4  41
HETATM   41  O2  UNL     1     -15.809   6.538  11.671  1.00  0.00    -0.345 OA
ATOM     42  H2  UNL     1     -16.678   6.910  11.758  1.00  0.00     0.219 HD
ENDBRANCH   4  41
BRANCH   1  43
HETATM   43  C2  UNL     1     -12.089   9.172  12.372  1.00  0.00     0.146 C 
HETATM   44  C1  UNL     1     -11.344   7.856  12.253  1.00  0.00     0.042 C 
BRANCH  43  45
HETATM   45  O1  UNL     1     -12.204   9.351  13.772  1.00  0.00    -0.393 OA
ATOM     46  H1  UNL     1     -12.926   8.781  14.004  1.00  0.00     0.210 HD
ENDBRANCH  43  45
ENDBRANCH   1  43
TORSDOF 11
ENDMDL
MODEL 2
REMARK VINA RESULT: -7.849211122      3.370      5.570
REMARK  11 active torsions:
REMARK  status: ('A' for Active; 'I' for Inactive)
REMARK    1  A    between atoms: C2_2  and  O1_3 
REMARK    2  A    between atoms: C2_2  and  C3_5 
REMARK    3  A    between atoms: C4_8  and  O2_9 
REMARK    4  A    between atoms: C5_11  and  N2_12 
REMARK    5  A    between atoms: N2_12  and  C6_14 
REMARK    6  A    between atoms: C6_14  and  C7_18 
REMARK    7  A    between atoms: C7_18  and  C8_19 
REMARK    8  A    between atoms: C8_19  and  C9_20 
REMARK    9  A    between atoms: C9_20  and  C10_21 
REMARK   10  A    between atoms: C10_21  and  C11_22 
REMARK   11  A    between atoms: C11_22  and  N4_23 
ROOT
HETATM    1  C3  UNL     1     -16.093   8.393  15.906  1.00  0.00     0.204 C 
HETATM    2  N1  UNL     1     -15.845   7.862  14.622  1.00  0.00    -0.354 N 
ATOM      3  H1  UNL     1     -16.722   7.549  14.208  1.00  0.00     0.162 HD
HETATM    4  C4  UNL     1     -14.809   7.626  13.740  1.00  0.00     0.159 C 
HETATM    5  C5  UNL     1     -13.731   6.607  13.645  1.00  0.00     0.061 C 
HETATM    6  C13 UNL     1     -13.963   5.327  14.363  1.00  0.00     0.061 C 
HETATM    7  C14 UNL     1     -15.014   4.523  13.580  1.00  0.00     0.006 C 
HETATM    8  C15 UNL     1     -14.928   3.064  13.898  1.00  0.00     0.000 C 
HETATM    9  C16 UNL     1     -16.293   2.456  13.897  1.00  0.00     0.000 C 
HETATM   10  C17 UNL     1     -17.060   2.824  12.664  1.00  0.00     0.004 C 
HETATM   11  C18 UNL     1     -18.510   3.160  13.035  1.00  0.00     0.027 C 
HETATM   12  C19 UNL     1     -18.933   4.296  12.199  1.00  0.00    -0.031 C 
HETATM   13  C20 UNL     1     -19.703   5.256  12.614  1.00  0.00    -0.030 C 
HETATM   14  C21 UNL     1     -20.274   5.368  13.969  1.00  0.00     0.030 C 
HETATM   15  C22 UNL     1     -20.246   6.793  14.445  1.00  0.00     0.054 C 
HETATM   16  C23 UNL     1     -19.364   7.020  15.666  1.00  0.00     0.121 C 
HETATM   17  C24 UNL     1     -20.355   7.019  16.845  1.00  0.00     0.068 C 
HETATM   18  C25 UNL     1     -20.184   5.678  17.468  1.00  0.00     0.134 C 
HETATM   19  N7  UNL     1     -18.894   5.204  17.011  1.00  0.00    -0.146 NA
HETATM   20  N8  UNL     1     -18.597   5.881  15.877  1.00  0.00    -0.116 NA
HETATM   21  N9  UNL     1     -18.691   8.296  15.574  1.00  0.00    -0.335 N 
ATOM     22  H9  UNL     1     -19.182   8.968  14.984  1.00  0.00     0.164 HD
HETATM   23  C26 UNL     1     -17.532   8.798  16.112  1.00  0.00     0.244 C 
HETATM   24  O3  UNL     1     -17.663   9.788  16.937  1.00  0.00    -0.271 OA
ENDROOT
BRANCH   5  25
HETATM   25  N2  UNL     1     -12.407   7.134  13.678  1.00  0.00    -0.346 N 
ATOM     26  H2  UNL     1     -12.090   7.492  14.578  1.00  0.00     0.167 HD
BRANCH  25  27
HETATM   27  C6  UNL     1     -11.467   7.220  12.600  1.00  0.00     0.074 C 
HETATM   28  N3  UNL     1     -10.318   7.754  12.747  1.00  0.00    -0.389 N 
ATOM     29  H32 UNL     1     -10.046   8.118  13.660  1.00  0.00     0.157 HD
ATOM     30  H31 UNL     1      -9.649   7.816  11.980  1.00  0.00     0.157 HD
BRANCH  27  31
HETATM   31  C7  UNL     1     -11.862   6.692  11.276  1.00  0.00     0.076 C 
BRANCH  31  32
HETATM   32  C8  UNL     1     -11.591   5.270  11.005  1.00  0.00     0.007 C 
BRANCH  32  33
HETATM   33  C9  UNL     1     -10.905   4.467  12.029  1.00  0.00     0.002 C 
BRANCH  33  34
HETATM   34  C10 UNL     1      -9.491   4.091  11.828  1.00  0.00     0.020 C 
BRANCH  34  35
HETATM   35  C11 UNL     1      -8.498   4.617  12.814  1.00  0.00     0.122 C 
BRANCH  35  36
HETATM   36  N4  UNL     1      -7.858   3.655  13.639  1.00  0.00    -0.367 N 
HETATM   37  C12 UNL     1      -6.874   3.936  14.423  1.00  0.00     0.196 C 
HETATM   38  N5  UNL     1      -6.361   5.281  14.503  1.00  0.00    -0.067 NA
HETATM   39  N6  UNL     1      -6.278   2.923  15.222  1.00  0.00    -0.067 NA
ATOM     40  H4  UNL     1      -8.193   2.692  13.610  1.00  0.00     0.161 HD
ENDBRANCH  35  36
ENDBRANCH  34  35
ENDBRANCH  33  34
ENDBRANCH  32  33
ENDBRANCH  31  32
ENDBRANCH  27  31
ENDBRANCH  25  27
ENDBRANCH   5  25
BRANCH   4  41
HETATM   41  O2  UNL     1     -14.683   8.457  12.707  1.00  0.00    -0.345 OA
ATOM     42  H2  UNL     1     -13.907   9.004  12.678  1.00  0.00     0.219 HD
ENDBRANCH   4  41
BRANCH   1  43
HETATM   43  C2  UNL     1     -15.687   7.641  17.133  1.00  0.00     0.146 C 
HETATM   44  C1  UNL     1     -14.195   7.760  17.379  1.00  0.00     0.042 C 
BRANCH  43  45
HETATM   45  O1  UNL     1     -15.879   6.246  16.987  1.00  0.00    -0.393 OA
ATOM     46  H1  UNL     1     -16.181   5.979  17.847  1.00  0.00     0.210 HD
ENDBRANCH  43  45
ENDBRANCH   1  43
TORSDOF 11
ENDMDL
MODEL 3
REMARK VINA RESULT: -7.832077409      3.497      7.023
REMARK  11 active torsions:
REMARK  status: ('A' for Active; 'I' for Inactive)
REMARK    1  A    between atoms: C2_2  and  O1_3 
REMARK    2  A    between atoms: C2_2  and  C3_5 
REMARK    3  A    between atoms: C4_8  and  O2_9 
REMARK    4  A    between atoms: C5_11  and  N2_12 
REMARK    5  A    between atoms: N2_12  and  C6_14 
REMARK    6  A    between atoms: C6_14  and  C7_18 
REMARK    7  A    between atoms: C7_18  and  C8_19 
REMARK    8  A    between atoms: C8_19  and  C9_20 
REMARK    9  A    between atoms: C9_20  and  C10_21 
REMARK   10  A    between atoms: C10_21  and  C11_22 
REMARK   11  A    between atoms: C11_22  and  N4_23 
ROOT
HETATM    1  C3  UNL     1     -14.294   4.201  11.624  1.00  0.00     0.204 C 
HETATM    2  N1  UNL     1     -15.150   5.317  11.513  1.00  0.00    -0.354 N 
ATOM      3  H1  UNL     1     -14.614   6.127  11.202  1.00  0.00     0.162 HD
HETATM    4  C4  UNL     1     -16.471   5.678  11.687  1.00  0.00     0.159 C 
HETATM    5  C5  UNL     1     -17.326   5.974  12.867  1.00  0.00     0.061 C 
HETATM    6  C13 UNL     1     -16.622   6.368  14.114  1.00  0.00     0.061 C 
HETATM    7  C14 UNL     1     -16.096   7.801  13.934  1.00  0.00     0.006 C 
HETATM    8  C15 UNL     1     -15.858   8.462  15.255  1.00  0.00     0.000 C 
HETATM    9  C16 UNL     1     -14.663   9.356  15.175  1.00  0.00     0.000 C 
HETATM   10  C17 UNL     1     -14.729  10.260  13.982  1.00  0.00     0.004 C 
HETATM   11  C18 UNL     1     -13.350  10.342  13.316  1.00  0.00     0.027 C 
HETATM   12  C19 UNL     1     -13.559  10.365  11.859  1.00  0.00    -0.031 C 
HETATM   13  C20 UNL     1     -12.781   9.772  11.004  1.00  0.00    -0.030 C 
HETATM   14  C21 UNL     1     -11.578   8.989  11.344  1.00  0.00     0.030 C 
HETATM   15  C22 UNL     1     -11.476   7.763  10.481  1.00  0.00     0.054 C 
HETATM   16  C23 UNL     1     -11.569   6.454  11.253  1.00  0.00     0.121 C 
HETATM   17  C24 UNL     1     -10.100   6.020  11.425  1.00  0.00     0.068 C 
HETATM   18  C25 UNL     1      -9.778   6.366  12.836  1.00  0.00     0.134 C 
HETATM   19  N7  UNL     1     -11.059   6.489  13.503  1.00  0.00    -0.146 NA
HETATM   20  N8  UNL     1     -11.986   6.731  12.547  1.00  0.00    -0.116 NA
HETATM   21  N9  UNL     1     -12.299   5.466  10.490  1.00  0.00    -0.335 N 
ATOM     22  H9  UNL     1     -12.273   5.637   9.484  1.00  0.00     0.164 HD
HETATM   23  C26 UNL     1     -13.020   4.349  10.829  1.00  0.00     0.244 C 
HETATM   24  O3  UNL     1     -12.555   3.215  10.409  1.00  0.00    -0.271 OA
ENDROOT
BRANCH   5  25
HETATM   25  N2  UNL     1     -18.462   5.124  13.009  1.00  0.00    -0.346 N 
ATOM     26  H2  UNL     1     -19.365   5.541  12.785  1.00  0.00     0.167 HD
BRANCH  25  27
HETATM   27  C6  UNL     1     -18.488   3.753  13.428  1.00  0.00     0.074 C 
HETATM   28  N3  UNL     1     -18.151   3.401  14.606  1.00  0.00    -0.389 N 
ATOM     29  H32 UNL     1     -17.868   4.111  15.281  1.00  0.00     0.157 HD
ATOM     30  H31 UNL     1     -18.169   2.426  14.904  1.00  0.00     0.157 HD
BRANCH  27  31
HETATM   31  C7  UNL     1     -18.900   2.724  12.448  1.00  0.00     0.076 C 
BRANCH  31  32
HETATM   32  C8  UNL     1     -17.887   2.259  11.487  1.00  0.00     0.007 C 
BRANCH  32  33
HETATM   33  C9  UNL     1     -18.118   2.470  10.050  1.00  0.00     0.002 C 
BRANCH  33  34
HETATM   34  C10 UNL     1     -16.962   2.562   9.135  1.00  0.00     0.020 C 
BRANCH  34  35
HETATM   35  C11 UNL     1     -16.780   1.449   8.153  1.00  0.00     0.122 C 
BRANCH  35  36
HETATM   36  N4  UNL     1     -17.915   0.633   7.905  1.00  0.00    -0.367 N 
HETATM   37  C12 UNL     1     -18.039  -0.110   6.860  1.00  0.00     0.196 C 
HETATM   38  N5  UNL     1     -17.000  -0.151   5.861  1.00  0.00    -0.067 NA
HETATM   39  N6  UNL     1     -19.203  -0.903   6.674  1.00  0.00    -0.067 NA
ATOM     40  H4  UNL     1     -18.671   0.636   8.590  1.00  0.00     0.161 HD
ENDBRANCH  35  36
ENDBRANCH  34  35
ENDBRANCH  33  34
ENDBRANCH  32  33
ENDBRANCH  31  32
ENDBRANCH  27  31
ENDBRANCH  25  27
ENDBRANCH   5  25
BRANCH   4  41
HETATM   41  O2  UNL     1     -17.216   5.820  10.593  1.00  0.00    -0.345 OA
ATOM     42  H2  UNL     1     -18.160   5.826  10.704  1.00  0.00     0.219 HD
ENDBRANCH   4  41
BRANCH   1  43
HETATM   43  C2  UNL     1     -13.894   3.677  12.966  1.00  0.00     0.146 C 
HETATM   44  C1  UNL     1     -15.024   2.894  13.607  1.00  0.00     0.042 C 
BRANCH  43  45
HETATM   45  O1  UNL     1     -13.660   4.720  13.894  1.00  0.00    -0.393 OA
ATOM     46  H1  UNL     1     -14.385   5.313  13.741  1.00  0.00     0.210 HD
ENDBRANCH  43  45
ENDBRANCH   1  43
TORSDOF 11
ENDMDL
MODEL 4
REMARK VINA RESULT: -7.768475852      3.269      5.353
REMARK  11 active torsions:
REMARK  status: ('A' for Active; 'I' for Inactive)
REMARK    1  A    between atoms: C2_2  and  O1_3 
REMARK    2  A    between atoms: C2_2  and  C3_5 
REMARK    3  A    between atoms: C4_8  and  O2_9 
REMARK    4  A    between atoms: C5_11  and  N2_12 
REMARK    5  A    between atoms: N2_12  and  C6_14 
REMARK    6  A    between atoms: C6_14  and  C7_18 
REMARK    7  A    between atoms: C7_18  and  C8_19 
REMARK    8  A    between atoms: C8_19  and  C9_20 
REMARK    9  A    between atoms: C9_20  and  C10_21 
REMARK   10  A    between atoms: C10_21  and  C11_22 
REMARK   11  A    between atoms: C11_22  and  N4_23 
ROOT
HETATM    1  C3  UNL     1     -17.141   3.520  12.348  1.00  0.00     0.204 C 
HETATM    2  N1  UNL     1     -16.092   3.715  13.272  1.00  0.00    -0.354 N 
ATOM      3  H1  UNL     1     -16.469   4.105  14.136  1.00  0.00     0.162 HD
HETATM    4  C4  UNL     1     -14.727   3.554  13.395  1.00  0.00     0.159 C 
HETATM    5  C5  UNL     1     -13.539   4.298  12.898  1.00  0.00     0.061 C 
HETATM    6  C13 UNL     1     -13.757   5.717  12.519  1.00  0.00     0.061 C 
HETATM    7  C14 UNL     1     -13.929   6.536  13.809  1.00  0.00     0.006 C 
HETATM    8  C15 UNL     1     -13.626   7.982  13.578  1.00  0.00     0.000 C 
HETATM    9  C16 UNL     1     -14.530   8.836  14.408  1.00  0.00     0.000 C 
HETATM   10  C17 UNL     1     -14.561   8.382  15.836  1.00  0.00     0.004 C 
HETATM   11  C18 UNL     1     -16.001   8.424  16.362  1.00  0.00     0.027 C 
HETATM   12  C19 UNL     1     -16.194   7.248  17.226  1.00  0.00    -0.031 C 
HETATM   13  C20 UNL     1     -17.298   6.565  17.289  1.00  0.00    -0.030 C 
HETATM   14  C21 UNL     1     -18.522   6.850  16.517  1.00  0.00     0.030 C 
HETATM   15  C22 UNL     1     -19.162   5.577  16.039  1.00  0.00     0.054 C 
HETATM   16  C23 UNL     1     -19.200   5.435  14.523  1.00  0.00     0.121 C 
HETATM   17  C24 UNL     1     -20.628   5.876  14.146  1.00  0.00     0.068 C 
HETATM   18  C25 UNL     1     -20.458   7.254  13.612  1.00  0.00     0.134 C 
HETATM   19  N7  UNL     1     -19.058   7.358  13.256  1.00  0.00    -0.146 NA
HETATM   20  N8  UNL     1     -18.392   6.417  13.966  1.00  0.00    -0.116 NA
HETATM   21  N9  UNL     1     -18.978   4.060  14.137  1.00  0.00    -0.335 N 
ATOM     22  H9  UNL     1     -19.230   3.392  14.867  1.00  0.00     0.164 HD
HETATM   23  C26 UNL     1     -18.501   3.460  12.999  1.00  0.00     0.244 C 
HETATM   24  O3  UNL     1     -19.335   2.707  12.354  1.00  0.00    -0.271 OA
ENDROOT
BRANCH   5  25
HETATM   25  N2  UNL     1     -12.662   3.537  12.070  1.00  0.00    -0.346 N 
ATOM     26  H2  UNL     1     -12.376   2.629  12.437  1.00  0.00     0.167 HD
BRANCH  25  27
HETATM   27  C6  UNL     1     -12.134   3.892  10.786  1.00  0.00     0.074 C 
HETATM   28  N3  UNL     1     -12.660   3.477   9.702  1.00  0.00    -0.389 N 
ATOM     29  H32 UNL     1     -13.491   2.886   9.739  1.00  0.00     0.157 HD
ATOM     30  H31 UNL     1     -12.284   3.729   8.788  1.00  0.00     0.157 HD
BRANCH  27  31
HETATM   31  C7  UNL     1     -10.930   4.750  10.732  1.00  0.00     0.076 C 
BRANCH  31  32
HETATM   32  C8  UNL     1     -10.020   4.714  11.888  1.00  0.00     0.007 C 
BRANCH  32  33
HETATM   33  C9  UNL     1      -9.929   5.895  12.761  1.00  0.00     0.002 C 
BRANCH  33  34
HETATM   34  C10 UNL     1      -8.636   6.237  13.386  1.00  0.00     0.020 C 
BRANCH  34  35
HETATM   35  C11 UNL     1      -7.462   5.378  13.041  1.00  0.00     0.122 C 
BRANCH  35  36
HETATM   36  N4  UNL     1      -6.740   4.828  14.133  1.00  0.00    -0.367 N 
HETATM   37  C12 UNL     1      -6.896   3.619  14.548  1.00  0.00     0.196 C 
HETATM   38  N5  UNL     1      -7.840   2.738  13.905  1.00  0.00    -0.067 NA
HETATM   39  N6  UNL     1      -6.141   3.131  15.649  1.00  0.00    -0.067 NA
ATOM     40  H4  UNL     1      -6.063   5.421  14.613  1.00  0.00     0.161 HD
ENDBRANCH  35  36
ENDBRANCH  34  35
ENDBRANCH  33  34
ENDBRANCH  32  33
ENDBRANCH  31  32
ENDBRANCH  27  31
ENDBRANCH  25  27
ENDBRANCH   5  25
BRANCH   4  41
HETATM   41  O2  UNL     1     -14.294   2.521  14.115  1.00  0.00    -0.345 OA
ATOM     42  H2  UNL     1     -14.352   1.658  13.720  1.00  0.00     0.219 HD
ENDBRANCH   4  41
BRANCH   1  43
HETATM   43  C2  UNL     1     -17.283   4.412  11.157  1.00  0.00     0.146 C 
HETATM   44  C1  UNL     1     -16.213   4.119  10.123  1.00  0.00     0.042 C 
BRANCH  43  45
HETATM   45  O1  UNL     1     -17.054   5.771  11.481  1.00  0.00    -0.393 OA
ATOM     46  H1  UNL     1     -16.712   6.131  10.672  1.00  0.00     0.210 HD
ENDBRANCH  43  45
ENDBRANCH   1  43
TORSDOF 11
ENDMDL
MODEL 5
REMARK VINA RESULT: -7.705214436      3.171      6.459
REMARK  11 active torsions:
REMARK  status: ('A' for Active; 'I' for Inactive)
REMARK    1  A    between atoms: C2_2  and  O1_3 
REMARK    2  A    between atoms: C2_2  and  C3_5 
REMARK    3  A    between atoms: C4_8  and  O2_9 
REMARK    4  A    between atoms: C5_11  and  N2_12 
REMARK    5  A    between atoms: N2_12  and  C6_14 
REMARK    6  A    between atoms: C6_14  and  C7_18 
REMARK    7  A    between atoms: C7_18  and  C8_19 
REMARK    8  A    between atoms: C8_19  and  C9_20 
REMARK    9  A    between atoms: C9_20  and  C10_21 
REMARK   10  A    between atoms: C10_21  and  C11_22 
REMARK   11  A    between atoms: C11_22  and  N4_23 
ROOT
HETATM    1  C3  UNL     1     -14.329   4.074  11.820  1.00  0.00     0.204 C 
HETATM    2  N1  UNL     1     -15.312   5.085  11.858  1.00  0.00    -0.354 N 
ATOM      3  H1  UNL     1     -14.916   5.957  11.508  1.00  0.00     0.162 HD
HETATM    4  C4  UNL     1     -16.631   5.288  12.213  1.00  0.00     0.159 C 
HETATM    5  C5  UNL     1     -17.350   5.460  13.502  1.00  0.00     0.061 C 
HETATM    6  C13 UNL     1     -16.536   5.909  14.661  1.00  0.00     0.061 C 
HETATM    7  C14 UNL     1     -16.204   7.397  14.464  1.00  0.00     0.006 C 
HETATM    8  C15 UNL     1     -15.868   8.055  15.765  1.00  0.00     0.000 C 
HETATM    9  C16 UNL     1     -14.803   9.083  15.562  1.00  0.00     0.000 C 
HETATM   10  C17 UNL     1     -15.127   9.996  14.419  1.00  0.00     0.004 C 
HETATM   11  C18 UNL     1     -13.865  10.249  13.584  1.00  0.00     0.027 C 
HETATM   12  C19 UNL     1     -14.266  10.276  12.167  1.00  0.00    -0.031 C 
HETATM   13  C20 UNL     1     -13.546   9.793  11.199  1.00  0.00    -0.030 C 
HETATM   14  C21 UNL     1     -12.229   9.148  11.355  1.00  0.00     0.030 C 
HETATM   15  C22 UNL     1     -12.105   7.959  10.444  1.00  0.00     0.054 C 
HETATM   16  C23 UNL     1     -11.947   6.633  11.177  1.00  0.00     0.121 C 
HETATM   17  C24 UNL     1     -10.429   6.369  11.143  1.00  0.00     0.068 C 
HETATM   18  C25 UNL     1      -9.965   6.723  12.512  1.00  0.00     0.134 C 
HETATM   19  N7  UNL     1     -11.152   6.684  13.342  1.00  0.00    -0.146 NA
HETATM   20  N8  UNL     1     -12.219   6.836  12.523  1.00  0.00    -0.116 NA
HETATM   21  N9  UNL     1     -12.656   5.583  10.481  1.00  0.00    -0.335 N 
ATOM     22  H9  UNL     1     -12.783   5.774   9.487  1.00  0.00     0.164 HD
HETATM   23  C26 UNL     1     -13.196   4.383  10.873  1.00  0.00     0.244 C 
HETATM   24  O3  UNL     1     -12.666   3.319  10.358  1.00  0.00    -0.271 OA
ENDROOT
BRANCH   5  25
HETATM   25  N2  UNL     1     -18.355   4.481  13.761  1.00  0.00    -0.346 N 
ATOM     26  H2  UNL     1     -19.307   4.832  13.857  1.00  0.00     0.167 HD
BRANCH  25  27
HETATM   27  C6  UNL     1     -18.188   3.065  13.902  1.00  0.00     0.074 C 
HETATM   28  N3  UNL     1     -17.812   2.536  14.999  1.00  0.00    -0.389 N 
ATOM     29  H32 UNL     1     -17.638   3.129  15.810  1.00  0.00     0.157 HD
ATOM     30  H31 UNL     1     -17.693   1.528  15.100  1.00  0.00     0.157 HD
BRANCH  27  31
HETATM   31  C7  UNL     1     -18.441   2.205  12.725  1.00  0.00     0.076 C 
BRANCH  31  32
HETATM   32  C8  UNL     1     -19.572   2.562  11.855  1.00  0.00     0.007 C 
BRANCH  32  33
HETATM   33  C9  UNL     1     -19.401   2.489  10.396  1.00  0.00     0.002 C 
BRANCH  33  34
HETATM   34  C10 UNL     1     -18.286   1.699   9.835  1.00  0.00     0.020 C 
BRANCH  34  35
HETATM   35  C11 UNL     1     -17.490   2.328   8.736  1.00  0.00     0.122 C 
BRANCH  35  36
HETATM   36  N4  UNL     1     -16.699   3.451   9.093  1.00  0.00    -0.367 N 
HETATM   37  C12 UNL     1     -16.406   4.401   8.272  1.00  0.00     0.196 C 
HETATM   38  N5  UNL     1     -16.883   4.368   6.912  1.00  0.00    -0.067 NA
HETATM   39  N6  UNL     1     -15.608   5.498   8.695  1.00  0.00    -0.067 NA
ATOM     40  H4  UNL     1     -16.343   3.510  10.047  1.00  0.00     0.161 HD
ENDBRANCH  35  36
ENDBRANCH  34  35
ENDBRANCH  33  34
ENDBRANCH  32  33
ENDBRANCH  31  32
ENDBRANCH  27  31
ENDBRANCH  25  27
ENDBRANCH   5  25
BRANCH   4  41
HETATM   41  O2  UNL     1     -17.525   5.363  11.229  1.00  0.00    -0.345 OA
ATOM     42  H2  UNL     1     -17.786   6.230  10.941  1.00  0.00     0.219 HD
ENDBRANCH   4  41
BRANCH   1  43
HETATM   43  C2  UNL     1     -13.700   3.574  13.081  1.00  0.00     0.146 C 
HETATM   44  C1  UNL     1     -14.664   2.708  13.868  1.00  0.00     0.042 C 
BRANCH  43  45
HETATM   45  O1  UNL     1     -13.406   4.627  13.980  1.00  0.00    -0.393 OA
ATOM     46  H1  UNL     1     -13.460   5.401  13.432  1.00  0.00     0.210 HD
ENDBRANCH  43  45
ENDBRANCH   1  43
TORSDOF 11
ENDMDL
