MODEL 1
REMARK VINA RESULT: -6.632262209      0.000      0.000
REMARK  3 active torsions:
REMARK  status: ('A' for Active; 'I' for Inactive)
REMARK    1  A    between atoms: C4_5  and  N1_6 
REMARK    2  A    between atoms: N1_6  and  C5_8 
REMARK    3  A    between atoms: C5_8  and  C6_10 
ROOT
HETATM    1  C5  UNL     1      22.397  85.730  56.214  1.00  0.00     0.183 C 
HETATM    2 CL1  UNL     1      22.299  87.177  55.102  1.00  0.00    -0.102 Cl
ENDROOT
BRANCH   1   3
HETATM    3  N1  UNL     1      21.956  86.104  57.443  1.00  0.00    -0.398 N 
ATOM      4  H1  UNL     1      21.159  86.740  57.392  1.00  0.00     0.155 HD
BRANCH   3   5
HETATM    5  C4  UNL     1      22.318  85.837  58.715  1.00  0.00     0.112 C 
HETATM    6  C1  UNL     1      21.817  84.503  59.336  1.00  0.00     0.192 C 
HETATM    7  F1  UNL     1      22.465  83.399  58.896  1.00  0.00    -0.247 F 
HETATM    8  C2  UNL     1      22.384  85.134  60.633  1.00  0.00     0.041 C 
HETATM    9  C3  UNL     1      21.830  86.444  59.980  1.00  0.00     0.030 C 
ENDBRANCH   3   5
ENDBRANCH   1   3
BRANCH   1  10
HETATM   10  C6  UNL     1      21.701  84.649  55.525  1.00  0.00    -0.006 C 
HETATM   11  C7  UNL     1      21.649  84.856  54.003  1.00  0.00     0.013 C 
HETATM   12  C8  UNL     1      21.658  83.475  53.401  1.00  0.00     0.005 C 
HETATM   13  C9  UNL     1      21.731  82.575  54.581  1.00  0.00    -0.014 C 
HETATM   14  C10 UNL     1      20.452  82.645  55.342  1.00  0.00     0.005 C 
HETATM   15  C12 UNL     1      22.625  83.373  55.502  1.00  0.00     0.017 C 
HETATM   16  C11 UNL     1      20.441  84.069  55.949  1.00  0.00     0.013 C 
ENDBRANCH   1  10
TORSDOF 3
ENDMDL
MODEL 2
REMARK VINA RESULT: -6.627733739      2.150      3.123
REMARK  3 active torsions:
REMARK  status: ('A' for Active; 'I' for Inactive)
REMARK    1  A    between atoms: C4_5  and  N1_6 
REMARK    2  A    between atoms: N1_6  and  C5_8 
REMARK    3  A    between atoms: C5_8  and  C6_10 
ROOT
HETATM    1  C5  UNL     1      20.521  83.996  56.260  1.00  0.00     0.183 C 
HETATM    2 CL1  UNL     1      20.595  82.543  55.153  1.00  0.00    -0.102 Cl
ENDROOT
BRANCH   1   3
HETATM    3  N1  UNL     1      20.979  83.625  57.484  1.00  0.00    -0.398 N 
ATOM      4  H1  UNL     1      21.782  82.999  57.425  1.00  0.00     0.155 HD
BRANCH   3   5
HETATM    5  C4  UNL     1      20.625  83.887  58.760  1.00  0.00     0.112 C 
HETATM    6  C1  UNL     1      21.115  85.227  59.376  1.00  0.00     0.192 C 
HETATM    7  F1  UNL     1      20.447  86.323  58.944  1.00  0.00    -0.247 F 
HETATM    8  C2  UNL     1      20.569  84.588  60.679  1.00  0.00     0.041 C 
HETATM    9  C3  UNL     1      21.135  83.285  60.019  1.00  0.00     0.030 C 
ENDBRANCH   3   5
ENDBRANCH   1   3
BRANCH   1  10
HETATM   10  C6  UNL     1      21.213  85.070  55.556  1.00  0.00    -0.006 C 
HETATM   11  C7  UNL     1      21.265  84.843  54.037  1.00  0.00     0.013 C 
HETATM   12  C8  UNL     1      21.251  86.215  53.415  1.00  0.00     0.005 C 
HETATM   13  C9  UNL     1      21.176  87.131  54.584  1.00  0.00    -0.014 C 
HETATM   14  C10 UNL     1      22.456  87.075  55.344  1.00  0.00     0.005 C 
HETATM   15  C12 UNL     1      20.286  86.343  55.517  1.00  0.00     0.017 C 
HETATM   16  C11 UNL     1      22.472  85.660  55.970  1.00  0.00     0.013 C 
ENDBRANCH   1  10
TORSDOF 3
ENDMDL
MODEL 3
REMARK VINA RESULT: -6.599841174      1.158      1.349
REMARK  3 active torsions:
REMARK  status: ('A' for Active; 'I' for Inactive)
REMARK    1  A    between atoms: C4_5  and  N1_6 
REMARK    2  A    between atoms: N1_6  and  C5_8 
REMARK    3  A    between atoms: C5_8  and  C6_10 
ROOT
HETATM    1  C5  UNL     1      22.159  85.215  56.863  1.00  0.00     0.183 C 
HETATM    2 CL1  UNL     1      22.835  86.721  56.078  1.00  0.00    -0.102 Cl
ENDROOT
BRANCH   1   3
HETATM    3  N1  UNL     1      21.332  85.594  57.873  1.00  0.00    -0.398 N 
ATOM      4  H1  UNL     1      20.710  86.354  57.600  1.00  0.00     0.155 HD
BRANCH   3   5
HETATM    5  C4  UNL     1      21.138  85.205  59.150  1.00  0.00     0.112 C 
HETATM    6  C1  UNL     1      22.366  84.644  59.921  1.00  0.00     0.192 C 
HETATM    7  F1  UNL     1      23.257  85.583  60.320  1.00  0.00    -0.247 F 
HETATM    8  C2  UNL     1      21.280  84.273  60.964  1.00  0.00     0.041 C 
HETATM    9  C3  UNL     1      20.441  84.000  59.671  1.00  0.00     0.030 C 
ENDBRANCH   3   5
ENDBRANCH   1   3
BRANCH   1  10
HETATM   10  C6  UNL     1      21.607  84.412  55.778  1.00  0.00    -0.006 C 
HETATM   11  C7  UNL     1      21.164  85.265  54.578  1.00  0.00     0.013 C 
HETATM   12  C8  UNL     1      21.370  84.401  53.362  1.00  0.00     0.005 C 
HETATM   13  C9  UNL     1      21.922  83.137  53.915  1.00  0.00    -0.014 C 
HETATM   14  C10 UNL     1      20.869  82.435  54.702  1.00  0.00     0.005 C 
HETATM   15  C12 UNL     1      22.781  83.662  55.042  1.00  0.00     0.017 C 
HETATM   16  C11 UNL     1      20.653  83.332  55.944  1.00  0.00     0.013 C 
ENDBRANCH   1  10
TORSDOF 3
ENDMDL
MODEL 4
REMARK VINA RESULT: -6.564687331      1.046      1.582
REMARK  3 active torsions:
REMARK  status: ('A' for Active; 'I' for Inactive)
REMARK    1  A    between atoms: C4_5  and  N1_6 
REMARK    2  A    between atoms: N1_6  and  C5_8 
REMARK    3  A    between atoms: C5_8  and  C6_10 
ROOT
HETATM    1  C5  UNL     1      21.048  86.034  56.183  1.00  0.00     0.183 C 
HETATM    2 CL1  UNL     1      19.388  86.409  55.514  1.00  0.00    -0.102 Cl
ENDROOT
BRANCH   1   3
HETATM    3  N1  UNL     1      20.927  85.782  57.512  1.00  0.00    -0.398 N 
ATOM      4  H1  UNL     1      19.966  85.566  57.780  1.00  0.00     0.155 HD
BRANCH   3   5
HETATM    5  C4  UNL     1      21.772  85.748  58.563  1.00  0.00     0.112 C 
HETATM    6  C1  UNL     1      21.838  84.431  59.385  1.00  0.00     0.192 C 
HETATM    7  F1  UNL     1      22.514  83.424  58.783  1.00  0.00    -0.247 F 
HETATM    8  C2  UNL     1      22.678  85.315  60.343  1.00  0.00     0.041 C 
HETATM    9  C3  UNL     1      21.649  86.404  59.891  1.00  0.00     0.030 C 
ENDBRANCH   3   5
ENDBRANCH   1   3
BRANCH   1  10
HETATM   10  C6  UNL     1      21.598  84.990  55.325  1.00  0.00    -0.006 C 
HETATM   11  C7  UNL     1      23.084  84.716  55.605  1.00  0.00     0.013 C 
HETATM   12  C8  UNL     1      23.296  83.256  55.302  1.00  0.00     0.005 C 
HETATM   13  C9  UNL     1      21.949  82.781  54.891  1.00  0.00    -0.014 C 
HETATM   14  C10 UNL     1      21.584  83.388  53.581  1.00  0.00     0.005 C 
HETATM   15  C12 UNL     1      21.061  83.590  55.808  1.00  0.00     0.017 C 
HETATM   16  C11 UNL     1      21.379  84.889  53.895  1.00  0.00     0.013 C 
ENDBRANCH   1  10
TORSDOF 3
ENDMDL
MODEL 5
REMARK VINA RESULT: -6.552536195      1.998      2.986
REMARK  3 active torsions:
REMARK  status: ('A' for Active; 'I' for Inactive)
REMARK    1  A    between atoms: C4_5  and  N1_6 
REMARK    2  A    between atoms: N1_6  and  C5_8 
REMARK    3  A    between atoms: C5_8  and  C6_10 
ROOT
HETATM    1  C5  UNL     1      21.863  83.666  56.196  1.00  0.00     0.183 C 
HETATM    2 CL1  UNL     1      23.516  83.264  55.525  1.00  0.00    -0.102 Cl
ENDROOT
BRANCH   1   3
HETATM    3  N1  UNL     1      21.992  83.923  57.523  1.00  0.00    -0.398 N 
ATOM      4  H1  UNL     1      22.954  84.139  57.785  1.00  0.00     0.155 HD
BRANCH   3   5
HETATM    5  C4  UNL     1      21.152  83.961  58.578  1.00  0.00     0.112 C 
HETATM    6  C1  UNL     1      21.085  85.284  59.391  1.00  0.00     0.192 C 
HETATM    7  F1  UNL     1      20.402  86.284  58.785  1.00  0.00    -0.247 F 
HETATM    8  C2  UNL     1      20.254  84.404  60.360  1.00  0.00     0.041 C 
HETATM    9  C3  UNL     1      21.285  83.316  59.910  1.00  0.00     0.030 C 
ENDBRANCH   3   5
ENDBRANCH   1   3
BRANCH   1  10
HETATM   10  C6  UNL     1      21.327  84.714  55.334  1.00  0.00    -0.006 C 
HETATM   11  C7  UNL     1      19.848  85.016  55.622  1.00  0.00     0.013 C 
HETATM   12  C8  UNL     1      19.659  86.478  55.310  1.00  0.00     0.005 C 
HETATM   13  C9  UNL     1      21.012  86.927  54.887  1.00  0.00    -0.014 C 
HETATM   14  C10 UNL     1      21.357  86.304  53.579  1.00  0.00     0.005 C 
HETATM   15  C12 UNL     1      21.891  86.108  55.804  1.00  0.00     0.017 C 
HETATM   16  C11 UNL     1      21.538  84.802  53.902  1.00  0.00     0.013 C 
ENDBRANCH   1  10
TORSDOF 3
ENDMDL
