MODEL 1
REMARK VINA RESULT: -6.060950725      0.000      0.000
REMARK  2 active torsions:
REMARK  status: ('A' for Active; 'I' for Inactive)
REMARK    1  A    between atoms: C6_11  and  C7_12 
REMARK    2  A    between atoms: C7_12  and  C9_14 
ROOT
HETATM    1  C1  UNL     1      23.156  83.707  55.498  1.00  0.00     0.065 C 
HETATM    2  C2  UNL     1      22.414  84.980  55.652  1.00  0.00     0.010 C 
HETATM    3  N1  UNL     1      22.376  85.834  54.668  1.00  0.00    -0.389 N 
ATOM      4  H1  UNL     1      22.844  85.661  53.778  1.00  0.00     0.159 HD
HETATM    5  C3  UNL     1      21.630  87.035  54.924  1.00  0.00     0.102 C 
HETATM    6  C4  UNL     1      21.511  87.897  53.698  1.00  0.00     0.034 C 
HETATM    7  C5  UNL     1      20.270  86.733  55.477  1.00  0.00     0.257 C 
HETATM    8  N2  UNL     1      20.306  85.671  56.431  1.00  0.00    -0.064 N 
ATOM      9  H21 UNL     1      19.851  84.830  56.074  1.00  0.00     0.278 HD
ATOM     10  H22 UNL     1      19.690  85.857  57.223  1.00  0.00     0.278 HD
HETATM   11  C6  UNL     1      21.678  85.397  56.868  1.00  0.00     0.237 C 
ENDROOT
BRANCH  11  12
HETATM   12  C7  UNL     1      21.722  84.400  57.978  1.00  0.00     0.056 C 
HETATM   13  C8  UNL     1      20.529  83.516  58.082  1.00  0.00     0.015 C 
BRANCH  12  14
HETATM   14  C9  UNL     1      21.914  85.148  59.281  1.00  0.00     0.115 C 
HETATM   15  C10 UNL     1      22.671  86.444  59.065  1.00  0.00     0.051 C 
HETATM   16 CL1  UNL     1      20.408  85.534  60.104  1.00  0.00    -0.102 Cl
HETATM   17 CL2  UNL     1      22.841  84.049  60.354  1.00  0.00    -0.102 Cl
ENDBRANCH  12  14
ENDBRANCH  11  12
TORSDOF 2
ENDMDL
MODEL 2
REMARK VINA RESULT: -6.045727384      0.910      1.284
REMARK  2 active torsions:
REMARK  status: ('A' for Active; 'I' for Inactive)
REMARK    1  A    between atoms: C6_11  and  C7_12 
REMARK    2  A    between atoms: C7_12  and  C9_14 
ROOT
HETATM    1  C1  UNL     1      23.146  83.649  55.592  1.00  0.00     0.065 C 
HETATM    2  C2  UNL     1      22.432  84.940  55.721  1.00  0.00     0.010 C 
HETATM    3  N1  UNL     1      22.396  85.767  54.715  1.00  0.00    -0.389 N 
ATOM      4  H1  UNL     1      22.846  85.560  53.823  1.00  0.00     0.159 HD
HETATM    5  C3  UNL     1      21.678  86.991  54.947  1.00  0.00     0.102 C 
HETATM    6  C4  UNL     1      21.558  87.820  53.700  1.00  0.00     0.034 C 
HETATM    7  C5  UNL     1      20.321  86.731  55.529  1.00  0.00     0.257 C 
HETATM    8  N2  UNL     1      20.350  85.695  56.512  1.00  0.00    -0.064 N 
ATOM      9  H21 UNL     1      19.873  84.855  56.185  1.00  0.00     0.278 HD
ATOM     10  H22 UNL     1      19.750  85.915  57.307  1.00  0.00     0.278 HD
HETATM   11  C6  UNL     1      21.723  85.406  56.936  1.00  0.00     0.237 C 
ENDROOT
BRANCH  11  12
HETATM   12  C7  UNL     1      21.763  84.439  58.073  1.00  0.00     0.056 C 
HETATM   13  C8  UNL     1      20.550  83.591  58.225  1.00  0.00     0.015 C 
BRANCH  12  14
HETATM   14  C9  UNL     1      22.003  85.217  59.350  1.00  0.00     0.115 C 
HETATM   15  C10 UNL     1      20.697  85.586  60.023  1.00  0.00     0.051 C 
HETATM   16 CL1  UNL     1      22.993  84.361  60.524  1.00  0.00    -0.102 Cl
HETATM   17 CL2  UNL     1      22.903  86.694  58.871  1.00  0.00    -0.102 Cl
ENDBRANCH  12  14
ENDBRANCH  11  12
TORSDOF 2
ENDMDL
MODEL 3
REMARK VINA RESULT: -6.042014485      1.901      3.196
REMARK  2 active torsions:
REMARK  status: ('A' for Active; 'I' for Inactive)
REMARK    1  A    between atoms: C6_11  and  C7_12 
REMARK    2  A    between atoms: C7_12  and  C9_14 
ROOT
HETATM    1  C1  UNL     1      19.770  86.041  55.523  1.00  0.00     0.065 C 
HETATM    2  C2  UNL     1      20.485  84.753  55.677  1.00  0.00     0.010 C 
HETATM    3  N1  UNL     1      20.508  83.899  54.693  1.00  0.00    -0.389 N 
ATOM      4  H1  UNL     1      20.047  84.083  53.802  1.00  0.00     0.159 HD
HETATM    5  C3  UNL     1      21.229  82.682  54.949  1.00  0.00     0.102 C 
HETATM    6  C4  UNL     1      21.332  81.820  53.722  1.00  0.00     0.034 C 
HETATM    7  C5  UNL     1      22.592  82.956  55.506  1.00  0.00     0.257 C 
HETATM    8  N2  UNL     1      22.577  84.017  56.462  1.00  0.00    -0.064 N 
ATOM      9  H21 UNL     1      23.050  84.848  56.106  1.00  0.00     0.278 HD
ATOM     10  H22 UNL     1      23.186  83.818  57.255  1.00  0.00     0.278 HD
HETATM   11  C6  UNL     1      21.209  84.319  56.895  1.00  0.00     0.237 C 
ENDROOT
BRANCH  11  12
HETATM   12  C7  UNL     1      21.183  85.315  58.006  1.00  0.00     0.056 C 
HETATM   13  C8  UNL     1      22.407  86.153  58.134  1.00  0.00     0.015 C 
BRANCH  12  14
HETATM   14  C9  UNL     1      20.938  84.573  59.304  1.00  0.00     0.115 C 
HETATM   15  C10 UNL     1      22.241  84.246  60.005  1.00  0.00     0.051 C 
HETATM   16 CL1  UNL     1      19.920  85.451  60.438  1.00  0.00    -0.102 Cl
HETATM   17 CL2  UNL     1      20.066  83.070  58.860  1.00  0.00    -0.102 Cl
ENDBRANCH  12  14
ENDBRANCH  11  12
TORSDOF 2
ENDMDL
MODEL 4
REMARK VINA RESULT: -5.998717908      1.819      3.168
REMARK  2 active torsions:
REMARK  status: ('A' for Active; 'I' for Inactive)
REMARK    1  A    between atoms: C6_11  and  C7_12 
REMARK    2  A    between atoms: C7_12  and  C9_14 
ROOT
HETATM    1  C1  UNL     1      19.757  86.111  55.563  1.00  0.00     0.065 C 
HETATM    2  C2  UNL     1      20.497  84.839  55.727  1.00  0.00     0.010 C 
HETATM    3  N1  UNL     1      20.499  83.958  54.767  1.00  0.00    -0.389 N 
ATOM      4  H1  UNL     1      20.003  84.110  53.888  1.00  0.00     0.159 HD
HETATM    5  C3  UNL     1      21.247  82.760  55.030  1.00  0.00     0.102 C 
HETATM    6  C4  UNL     1      21.321  81.864  53.825  1.00  0.00     0.034 C 
HETATM    7  C5  UNL     1      22.626  83.070  55.531  1.00  0.00     0.257 C 
HETATM    8  N2  UNL     1      22.627  84.157  56.456  1.00  0.00    -0.064 N 
ATOM      9  H21 UNL     1      23.074  84.985  56.061  1.00  0.00     0.278 HD
ATOM     10  H22 UNL     1      23.268  83.989  57.232  1.00  0.00     0.278 HD
HETATM   11  C6  UNL     1      21.271  84.451  56.930  1.00  0.00     0.237 C 
ENDROOT
BRANCH  11  12
HETATM   12  C7  UNL     1      21.269  85.477  58.013  1.00  0.00     0.056 C 
HETATM   13  C8  UNL     1      22.514  86.285  58.122  1.00  0.00     0.015 C 
BRANCH  12  14
HETATM   14  C9  UNL     1      21.000  84.778  59.330  1.00  0.00     0.115 C 
HETATM   15  C10 UNL     1      20.048  85.580  60.195  1.00  0.00     0.051 C 
HETATM   16 CL1  UNL     1      20.332  83.161  59.148  1.00  0.00    -0.102 Cl
HETATM   17 CL2  UNL     1      22.593  84.608  60.137  1.00  0.00    -0.102 Cl
ENDBRANCH  12  14
ENDBRANCH  11  12
TORSDOF 2
ENDMDL
MODEL 5
REMARK VINA RESULT: -5.938028998      2.913      4.527
REMARK  2 active torsions:
REMARK  status: ('A' for Active; 'I' for Inactive)
REMARK    1  A    between atoms: C6_11  and  C7_12 
REMARK    2  A    between atoms: C7_12  and  C9_14 
ROOT
HETATM    1  C1  UNL     1      19.843  86.536  55.692  1.00  0.00     0.065 C 
HETATM    2  C2  UNL     1      20.763  85.835  56.617  1.00  0.00     0.010 C 
HETATM    3  N1  UNL     1      21.265  86.468  57.639  1.00  0.00    -0.389 N 
ATOM      4  H1  UNL     1      21.048  87.445  57.835  1.00  0.00     0.159 HD
HETATM    5  C3  UNL     1      22.146  85.695  58.471  1.00  0.00     0.102 C 
HETATM    6  C4  UNL     1      22.565  86.448  59.702  1.00  0.00     0.034 C 
HETATM    7  C5  UNL     1      21.533  84.381  58.851  1.00  0.00     0.257 C 
HETATM    8  N2  UNL     1      20.835  83.781  57.760  1.00  0.00    -0.064 N 
ATOM      9  H21 UNL     1      19.826  83.782  57.913  1.00  0.00     0.278 HD
ATOM     10  H22 UNL     1      20.986  82.773  57.726  1.00  0.00     0.278 HD
HETATM   11  C6  UNL     1      21.188  84.422  56.489  1.00  0.00     0.237 C 
ENDROOT
BRANCH  11  12
HETATM   12  C7  UNL     1      20.591  83.709  55.321  1.00  0.00     0.056 C 
HETATM   13  C8  UNL     1      19.950  82.404  55.636  1.00  0.00     0.015 C 
BRANCH  12  14
HETATM   14  C9  UNL     1      21.676  83.505  54.284  1.00  0.00     0.115 C 
HETATM   15  C10 UNL     1      21.615  82.113  53.690  1.00  0.00     0.051 C 
HETATM   16 CL1  UNL     1      21.614  84.660  52.959  1.00  0.00    -0.102 Cl
HETATM   17 CL2  UNL     1      23.234  83.759  55.137  1.00  0.00    -0.102 Cl
ENDBRANCH  12  14
ENDBRANCH  11  12
TORSDOF 2
ENDMDL
