MODEL 1
REMARK VINA RESULT: -6.173195256      0.000      0.000
REMARK  3 active torsions:
REMARK  status: ('A' for Active; 'I' for Inactive)
REMARK    1  A    between atoms: C2_2  and  N1_4 
REMARK    2  A    between atoms: N1_4  and  C3_6 
REMARK    3  A    between atoms: C7_10  and  C8_11 
ROOT
HETATM    1  C3  UNL     1      21.852  85.564  56.759  1.00  0.00     0.032 A 
HETATM    2  C4  UNL     1      20.628  86.397  56.335  1.00  0.00     0.035 C 
HETATM    3  C5  UNL     1      19.819  85.755  55.281  1.00  0.00    -0.011 C 
HETATM    4  C6  UNL     1      19.888  84.235  55.394  1.00  0.00     0.015 C 
HETATM    5  C7  UNL     1      21.213  84.389  54.645  1.00  0.00    -0.021 C 
HETATM    6  C9  UNL     1      20.674  85.622  54.036  1.00  0.00     0.015 C 
HETATM    7  C10 UNL     1      22.249  84.637  55.746  1.00  0.00     0.025 A 
HETATM    8  C11 UNL     1      23.044  85.850  55.818  1.00  0.00     0.039 A 
ENDROOT
BRANCH   1   9
HETATM    9  N1  UNL     1      22.132  85.731  58.087  1.00  0.00    -0.396 N 
ATOM     10  H1  UNL     1      22.952  86.308  58.273  1.00  0.00     0.155 HD
BRANCH   9  11
HETATM   11  C2  UNL     1      21.514  85.264  59.198  1.00  0.00     0.170 C 
HETATM   12  C1  UNL     1      22.565  85.081  60.302  1.00  0.00     0.049 C 
HETATM   13 CL1  UNL     1      20.634  83.740  59.159  1.00  0.00    -0.103 Cl
ENDBRANCH   9  11
ENDBRANCH   1   9
BRANCH   5  14
HETATM   14  C8  UNL     1      21.538  83.257  53.732  1.00  0.00     0.124 C 
HETATM   15 CL2  UNL     1      22.173  81.906  54.679  1.00  0.00    -0.130 Cl
ENDBRANCH   5  14
TORSDOF 3
ENDMDL
MODEL 2
REMARK VINA RESULT: -6.169280360      2.150      3.027
REMARK  3 active torsions:
REMARK  status: ('A' for Active; 'I' for Inactive)
REMARK    1  A    between atoms: C2_2  and  N1_4 
REMARK    2  A    between atoms: N1_4  and  C3_6 
REMARK    3  A    between atoms: C7_10  and  C8_11 
ROOT
HETATM    1  C3  UNL     1      21.093  84.121  56.766  1.00  0.00     0.032 A 
HETATM    2  C4  UNL     1      22.327  83.301  56.345  1.00  0.00     0.035 C 
HETATM    3  C5  UNL     1      23.127  83.950  55.288  1.00  0.00    -0.011 C 
HETATM    4  C6  UNL     1      23.039  85.469  55.395  1.00  0.00     0.015 C 
HETATM    5  C7  UNL     1      21.716  85.295  54.648  1.00  0.00    -0.021 C 
HETATM    6  C9  UNL     1      22.270  84.068  54.043  1.00  0.00     0.015 C 
HETATM    7  C10 UNL     1      20.683  85.038  55.751  1.00  0.00     0.025 A 
HETATM    8  C11 UNL     1      19.904  83.816  55.827  1.00  0.00     0.039 A 
ENDROOT
BRANCH   1   9
HETATM    9  N1  UNL     1      20.816  83.955  58.095  1.00  0.00    -0.396 N 
ATOM     10  H1  UNL     1      20.002  83.371  58.284  1.00  0.00     0.155 HD
BRANCH   9  11
HETATM   11  C2  UNL     1      21.432  84.430  59.204  1.00  0.00     0.170 C 
HETATM   12  C1  UNL     1      20.379  84.612  60.308  1.00  0.00     0.049 C 
HETATM   13 CL1  UNL     1      22.301  85.960  59.159  1.00  0.00    -0.103 Cl
ENDBRANCH   9  11
ENDBRANCH   1   9
BRANCH   5  14
HETATM   14  C8  UNL     1      21.375  86.420  53.731  1.00  0.00     0.124 C 
HETATM   15 CL2  UNL     1      20.758  87.779  54.677  1.00  0.00    -0.130 Cl
ENDBRANCH   5  14
TORSDOF 3
ENDMDL
MODEL 3
REMARK VINA RESULT: -5.907234685      2.326      4.889
REMARK  3 active torsions:
REMARK  status: ('A' for Active; 'I' for Inactive)
REMARK    1  A    between atoms: C2_2  and  N1_4 
REMARK    2  A    between atoms: N1_4  and  C3_6 
REMARK    3  A    between atoms: C7_10  and  C8_11 
ROOT
HETATM    1  C3  UNL     1      21.299  84.777  57.906  1.00  0.00     0.032 A 
HETATM    2  C4  UNL     1      20.820  86.063  58.604  1.00  0.00     0.035 C 
HETATM    3  C5  UNL     1      21.478  86.305  59.902  1.00  0.00    -0.011 C 
HETATM    4  C6  UNL     1      22.896  85.745  59.905  1.00  0.00     0.015 C 
HETATM    5  C7  UNL     1      22.210  84.412  60.207  1.00  0.00    -0.021 C 
HETATM    6  C9  UNL     1      21.113  85.170  60.841  1.00  0.00     0.015 C 
HETATM    7  C10 UNL     1      21.859  83.841  58.828  1.00  0.00     0.025 A 
HETATM    8  C11 UNL     1      20.495  83.561  58.418  1.00  0.00     0.039 A 
ENDROOT
BRANCH   1   9
HETATM    9  N1  UNL     1      21.298  84.918  56.546  1.00  0.00    -0.396 N 
ATOM     10  H1  UNL     1      20.419  84.661  56.098  1.00  0.00     0.155 HD
BRANCH   9  11
HETATM   11  C2  UNL     1      22.258  85.340  55.688  1.00  0.00     0.170 C 
HETATM   12  C1  UNL     1      23.152  84.143  55.329  1.00  0.00     0.049 C 
HETATM   13 CL1  UNL     1      23.381  86.612  56.157  1.00  0.00    -0.103 Cl
ENDBRANCH   9  11
ENDBRANCH   1   9
BRANCH   5  14
HETATM   14  C8  UNL     1      23.002  83.494  61.074  1.00  0.00     0.124 C 
HETATM   15 CL2  UNL     1      22.292  81.876  61.015  1.00  0.00    -0.130 Cl
ENDBRANCH   5  14
TORSDOF 3
ENDMDL
MODEL 4
REMARK VINA RESULT: -5.894784851      2.096      5.165
REMARK  3 active torsions:
REMARK  status: ('A' for Active; 'I' for Inactive)
REMARK    1  A    between atoms: C2_2  and  N1_4 
REMARK    2  A    between atoms: N1_4  and  C3_6 
REMARK    3  A    between atoms: C7_10  and  C8_11 
ROOT
HETATM    1  C3  UNL     1      21.638  84.887  57.949  1.00  0.00     0.032 A 
HETATM    2  C4  UNL     1      22.125  83.642  58.714  1.00  0.00     0.035 C 
HETATM    3  C5  UNL     1      21.451  83.454  60.014  1.00  0.00    -0.011 C 
HETATM    4  C6  UNL     1      20.025  83.993  59.970  1.00  0.00     0.015 C 
HETATM    5  C7  UNL     1      20.690  85.349  60.217  1.00  0.00    -0.021 C 
HETATM    6  C9  UNL     1      21.787  84.636  60.902  1.00  0.00     0.015 C 
HETATM    7  C10 UNL     1      21.053  85.858  58.818  1.00  0.00     0.025 A 
HETATM    8  C11 UNL     1      22.419  86.137  58.414  1.00  0.00     0.039 A 
ENDROOT
BRANCH   1   9
HETATM    9  N1  UNL     1      21.662  84.681  56.598  1.00  0.00    -0.396 N 
ATOM     10  H1  UNL     1      22.547  84.919  56.152  1.00  0.00     0.155 HD
BRANCH   9  11
HETATM   11  C2  UNL     1      20.716  84.216  55.746  1.00  0.00     0.170 C 
HETATM   12  C1  UNL     1      19.832  85.393  55.307  1.00  0.00     0.049 C 
HETATM   13 CL1  UNL     1      19.582  82.973  56.262  1.00  0.00    -0.103 Cl
ENDBRANCH   9  11
ENDBRANCH   1   9
BRANCH   5  14
HETATM   14  C8  UNL     1      19.873  86.296  61.028  1.00  0.00     0.124 C 
HETATM   15 CL2  UNL     1      20.663  87.877  61.051  1.00  0.00    -0.130 Cl
ENDBRANCH   5  14
TORSDOF 3
ENDMDL
MODEL 5
REMARK VINA RESULT: -5.869743042      1.720      2.293
REMARK  3 active torsions:
REMARK  status: ('A' for Active; 'I' for Inactive)
REMARK    1  A    between atoms: C2_2  and  N1_4 
REMARK    2  A    between atoms: N1_4  and  C3_6 
REMARK    3  A    between atoms: C7_10  and  C8_11 
ROOT
HETATM    1  C3  UNL     1      21.483  85.416  57.796  1.00  0.00     0.032 A 
HETATM    2  C4  UNL     1      22.710  86.267  57.421  1.00  0.00     0.035 C 
HETATM    3  C5  UNL     1      22.897  86.415  55.964  1.00  0.00    -0.011 C 
HETATM    4  C6  UNL     1      21.556  86.385  55.239  1.00  0.00     0.015 C 
HETATM    5  C7  UNL     1      21.691  84.867  55.365  1.00  0.00    -0.021 C 
HETATM    6  C9  UNL     1      23.156  85.042  55.375  1.00  0.00     0.015 C 
HETATM    7  C10 UNL     1      21.091  84.541  56.737  1.00  0.00     0.025 A 
HETATM    8  C11 UNL     1      21.856  83.916  57.800  1.00  0.00     0.039 A 
ENDROOT
BRANCH   1   9
HETATM    9  N1  UNL     1      20.909  85.855  58.957  1.00  0.00    -0.396 N 
ATOM     10  H1  UNL     1      19.902  85.705  59.010  1.00  0.00     0.155 HD
BRANCH   9  11
HETATM   11  C2  UNL     1      21.442  86.454  60.049  1.00  0.00     0.170 C 
HETATM   12  C1  UNL     1      21.674  85.387  61.128  1.00  0.00     0.049 C 
HETATM   13 CL1  UNL     1      20.574  87.744  60.874  1.00  0.00    -0.103 Cl
ENDBRANCH   9  11
ENDBRANCH   1   9
BRANCH   5  14
HETATM   14  C8  UNL     1      21.097  84.101  54.232  1.00  0.00     0.124 C 
HETATM   15 CL2  UNL     1      20.771  82.444  54.755  1.00  0.00    -0.130 Cl
ENDBRANCH   5  14
TORSDOF 3
ENDMDL
