MODEL 1
REMARK VINA RESULT: -8.040657548      0.000      0.000
REMARK  5 active torsions:
REMARK  status: ('A' for Active; 'I' for Inactive)
REMARK    1  A    between atoms: C2_2  and  C3_3 
REMARK    2  A    between atoms: C3_3  and  C4_4 
REMARK    3  A    between atoms: C4_4  and  C5_5 
REMARK    4  A    between atoms: C8_8  and  O1_9 
REMARK    5  A    between atoms: C11_13  and  O2_14 
ROOT
HETATM    1  C5  UNL     1      10.736   0.652  30.637  1.00  0.00    -0.013 A 
HETATM    2  C6  UNL     1       9.635   1.352  30.209  1.00  0.00    -0.019 A 
HETATM    3  C7  UNL     1       9.390   1.538  28.752  1.00  0.00     0.052 C 
HETATM    4  C8  UNL     1       8.691   1.908  31.087  1.00  0.00     0.082 A 
HETATM    5  C9  UNL     1       8.831   1.773  32.448  1.00  0.00     0.024 A 
HETATM    6  C10 UNL     1       9.938   1.065  32.872  1.00  0.00     0.113 A 
HETATM    7  C11 UNL     1      10.879   0.511  31.999  1.00  0.00     0.106 A 
HETATM    8  O3  UNL     1      10.220   0.828  34.236  1.00  0.00    -0.337 OA
HETATM    9  C12 UNL     1       9.033   0.837  35.043  1.00  0.00     0.066 C 
HETATM   10  C13 UNL     1       8.183  -0.333  34.758  1.00  0.00     0.046 C 
HETATM   11  C14 UNL     1       9.491   0.803  36.480  1.00  0.00     0.046 C 
HETATM   12  C15 UNL     1       8.440   2.194  34.796  1.00  0.00     0.040 C 
HETATM   13  C16 UNL     1       9.530   3.179  35.105  1.00  0.00     0.036 C 
HETATM   14  C17 UNL     1       9.820   4.162  34.054  1.00  0.00    -0.021 C 
HETATM   15  C18 UNL     1       8.907   4.511  33.147  1.00  0.00    -0.048 C 
HETATM   16  C19 UNL     1       9.111   5.483  32.064  1.00  0.00     0.046 C 
HETATM   17  C20 UNL     1       7.606   3.835  33.301  1.00  0.00     0.148 C 
HETATM   18 CL1  UNL     1       7.043   4.336  34.977  1.00  0.00    -0.095 Cl
HETATM   19 CL2  UNL     1       6.325   4.396  32.268  1.00  0.00    -0.095 Cl
HETATM   20  C21 UNL     1       7.854   2.368  33.392  1.00  0.00     0.035 C 
HETATM   21  C22 UNL     1       6.495   1.688  33.320  1.00  0.00     0.025 C 
ENDROOT
BRANCH   1  22
HETATM   22  C4  UNL     1      11.732   0.087  29.691  1.00  0.00     0.042 C 
BRANCH  22  23
HETATM   23  C3  UNL     1      12.071  -1.351  29.952  1.00  0.00     0.004 C 
BRANCH  23  24
HETATM   24  C2  UNL     1      13.354  -1.667  29.208  1.00  0.00    -0.004 C 
HETATM   25  C1  UNL     1      13.656  -3.130  29.177  1.00  0.00     0.005 C 
ENDBRANCH  23  24
ENDBRANCH  22  23
ENDBRANCH   1  22
BRANCH   7  26
HETATM   26  O2  UNL     1      11.969  -0.183  32.486  1.00  0.00    -0.357 OA
ATOM     27  H2  UNL     1      11.863  -0.711  33.268  1.00  0.00     0.217 HD
ENDBRANCH   7  26
BRANCH   4  28
HETATM   28  O1  UNL     1       7.636   2.582  30.489  1.00  0.00    -0.359 OA
ATOM     29  H1  UNL     1       7.419   3.426  30.866  1.00  0.00     0.217 HD
ENDBRANCH   4  28
TORSDOF 5
ENDMDL
MODEL 2
REMARK VINA RESULT: -7.397248671      2.604      3.515
REMARK  5 active torsions:
REMARK  status: ('A' for Active; 'I' for Inactive)
REMARK    1  A    between atoms: C2_2  and  C3_3 
REMARK    2  A    between atoms: C3_3  and  C4_4 
REMARK    3  A    between atoms: C4_4  and  C5_5 
REMARK    4  A    between atoms: C8_8  and  O1_9 
REMARK    5  A    between atoms: C11_13  and  O2_14 
ROOT
HETATM    1  C5  UNL     1       9.891   3.194  31.052  1.00  0.00    -0.013 A 
HETATM    2  C6  UNL     1       9.169   4.197  31.652  1.00  0.00    -0.019 A 
HETATM    3  C7  UNL     1       8.777   5.403  30.870  1.00  0.00     0.052 C 
HETATM    4  C8  UNL     1       8.754   4.147  32.992  1.00  0.00     0.082 A 
HETATM    5  C9  UNL     1       9.060   3.065  33.783  1.00  0.00     0.024 A 
HETATM    6  C10 UNL     1       9.783   2.059  33.173  1.00  0.00     0.113 A 
HETATM    7  C11 UNL     1      10.197   2.108  31.839  1.00  0.00     0.106 A 
HETATM    8  O3  UNL     1      10.167   0.877  33.845  1.00  0.00    -0.337 OA
HETATM    9  C12 UNL     1       9.280   0.557  34.927  1.00  0.00     0.066 C 
HETATM   10  C13 UNL     1       7.957   0.140  34.428  1.00  0.00     0.046 C 
HETATM   11  C14 UNL     1       9.924  -0.576  35.688  1.00  0.00     0.046 C 
HETATM   12  C15 UNL     1       9.331   1.771  35.807  1.00  0.00     0.040 C 
HETATM   13  C16 UNL     1      10.785   1.997  36.108  1.00  0.00     0.036 C 
HETATM   14  C17 UNL     1      11.294   3.346  35.832  1.00  0.00    -0.021 C 
HETATM   15  C18 UNL     1      10.491   4.410  35.816  1.00  0.00    -0.048 C 
HETATM   16  C19 UNL     1      10.914   5.792  35.550  1.00  0.00     0.046 C 
HETATM   17  C20 UNL     1       9.076   4.111  36.104  1.00  0.00     0.148 C 
HETATM   18 CL1  UNL     1       9.113   3.381  37.790  1.00  0.00    -0.095 Cl
HETATM   19 CL2  UNL     1       8.026   5.484  36.288  1.00  0.00    -0.095 Cl
HETATM   20  C21 UNL     1       8.646   3.002  35.205  1.00  0.00     0.035 C 
HETATM   21  C22 UNL     1       7.138   2.871  35.362  1.00  0.00     0.025 C 
ENDROOT
BRANCH   1  22
HETATM   22  C4  UNL     1      10.335   3.277  29.637  1.00  0.00     0.042 C 
BRANCH  22  23
HETATM   23  C3  UNL     1       9.549   2.405  28.702  1.00  0.00     0.004 C 
BRANCH  23  24
HETATM   24  C2  UNL     1       9.005   3.285  27.594  1.00  0.00    -0.004 C 
HETATM   25  C1  UNL     1       7.587   3.695  27.827  1.00  0.00     0.005 C 
ENDBRANCH  23  24
ENDBRANCH  22  23
ENDBRANCH   1  22
BRANCH   7  26
HETATM   26  O2  UNL     1      10.923   1.070  31.289  1.00  0.00    -0.357 OA
ATOM     27  H2  UNL     1      10.716   0.179  31.546  1.00  0.00     0.217 HD
ENDBRANCH   7  26
BRANCH   4  28
HETATM   28  O1  UNL     1       8.029   5.242  33.439  1.00  0.00    -0.359 OA
ATOM     29  H1  UNL     1       7.653   5.161  34.307  1.00  0.00     0.217 HD
ENDBRANCH   4  28
TORSDOF 5
ENDMDL
MODEL 3
REMARK VINA RESULT: -7.388955221      2.524      4.597
REMARK  5 active torsions:
REMARK  status: ('A' for Active; 'I' for Inactive)
REMARK    1  A    between atoms: C2_2  and  C3_3 
REMARK    2  A    between atoms: C3_3  and  C4_4 
REMARK    3  A    between atoms: C4_4  and  C5_5 
REMARK    4  A    between atoms: C8_8  and  O1_9 
REMARK    5  A    between atoms: C11_13  and  O2_14 
ROOT
HETATM    1  C5  UNL     1       9.676   3.841  30.656  1.00  0.00    -0.013 A 
HETATM    2  C6  UNL     1      10.147   2.591  30.978  1.00  0.00    -0.019 A 
HETATM    3  C7  UNL     1      10.597   1.665  29.902  1.00  0.00     0.052 C 
HETATM    4  C8  UNL     1      10.244   2.126  32.298  1.00  0.00     0.082 A 
HETATM    5  C9  UNL     1       9.863   2.920  33.354  1.00  0.00     0.024 A 
HETATM    6  C10 UNL     1       9.394   4.175  33.024  1.00  0.00     0.113 A 
HETATM    7  C11 UNL     1       9.296   4.640  31.709  1.00  0.00     0.106 A 
HETATM    8  O3  UNL     1       8.973   5.116  33.992  1.00  0.00    -0.337 OA
HETATM    9  C12 UNL     1       9.613   4.908  35.260  1.00  0.00     0.066 C 
HETATM   10  C13 UNL     1      11.047   5.242  35.197  1.00  0.00     0.046 C 
HETATM   11  C14 UNL     1       8.916   5.815  36.245  1.00  0.00     0.046 C 
HETATM   12  C15 UNL     1       9.251   3.497  35.620  1.00  0.00     0.040 C 
HETATM   13  C16 UNL     1       7.752   3.428  35.547  1.00  0.00     0.036 C 
HETATM   14  C17 UNL     1       7.201   2.350  34.717  1.00  0.00    -0.021 C 
HETATM   15  C18 UNL     1       7.886   1.234  34.468  1.00  0.00    -0.048 C 
HETATM   16  C19 UNL     1       7.413   0.108  33.651  1.00  0.00     0.046 C 
HETATM   17  C20 UNL     1       9.218   1.183  35.100  1.00  0.00     0.148 C 
HETATM   18 CL1  UNL     1       8.859   1.309  36.898  1.00  0.00    -0.095 Cl
HETATM   19 CL2  UNL     1      10.069  -0.327  34.969  1.00  0.00    -0.095 Cl
HETATM   20  C21 UNL     1       9.942   2.440  34.754  1.00  0.00     0.035 C 
HETATM   21  C22 UNL     1      11.379   2.260  35.222  1.00  0.00     0.025 C 
ENDROOT
BRANCH   1  22
HETATM   22  C4  UNL     1       9.565   4.306  29.249  1.00  0.00     0.042 C 
BRANCH  22  23
HETATM   23  C3  UNL     1       8.260   3.957  28.595  1.00  0.00     0.004 C 
BRANCH  23  24
HETATM   24  C2  UNL     1       8.570   3.269  27.281  1.00  0.00    -0.004 C 
HETATM   25  C1  UNL     1      10.009   3.384  26.896  1.00  0.00     0.005 C 
ENDBRANCH  23  24
ENDBRANCH  22  23
ENDBRANCH   1  22
BRANCH   7  26
HETATM   26  O2  UNL     1       8.813   5.907  31.444  1.00  0.00    -0.357 OA
ATOM     27  H2  UNL     1       7.880   6.025  31.318  1.00  0.00     0.217 HD
ENDBRANCH   7  26
BRANCH   4  28
HETATM   28  O1  UNL     1      10.744   0.840  32.448  1.00  0.00    -0.359 OA
ATOM     29  H1  UNL     1      11.333   0.710  33.182  1.00  0.00     0.217 HD
ENDBRANCH   4  28
TORSDOF 5
ENDMDL
MODEL 4
REMARK VINA RESULT: -7.299295138      3.571      7.256
REMARK  5 active torsions:
REMARK  status: ('A' for Active; 'I' for Inactive)
REMARK    1  A    between atoms: C2_2  and  C3_3 
REMARK    2  A    between atoms: C3_3  and  C4_4 
REMARK    3  A    between atoms: C4_4  and  C5_5 
REMARK    4  A    between atoms: C8_8  and  O1_9 
REMARK    5  A    between atoms: C11_13  and  O2_14 
ROOT
HETATM    1  C5  UNL     1       5.339   4.466  36.102  1.00  0.00    -0.013 A 
HETATM    2  C6  UNL     1       5.296   4.346  34.735  1.00  0.00    -0.019 A 
HETATM    3  C7  UNL     1       4.017   4.573  34.006  1.00  0.00     0.052 C 
HETATM    4  C8  UNL     1       6.421   4.026  33.958  1.00  0.00     0.082 A 
HETATM    5  C9  UNL     1       7.644   3.813  34.547  1.00  0.00     0.024 A 
HETATM    6  C10 UNL     1       7.681   3.938  35.921  1.00  0.00     0.113 A 
HETATM    7  C11 UNL     1       6.562   4.256  36.696  1.00  0.00     0.106 A 
HETATM    8  O3  UNL     1       8.863   3.762  36.675  1.00  0.00    -0.337 OA
HETATM    9  C12 UNL     1      10.042   4.043  35.905  1.00  0.00     0.066 C 
HETATM   10  C13 UNL     1      10.154   5.481  35.602  1.00  0.00     0.046 C 
HETATM   11  C14 UNL     1      11.216   3.601  36.744  1.00  0.00     0.046 C 
HETATM   12  C15 UNL     1       9.946   3.100  34.742  1.00  0.00     0.040 C 
HETATM   13  C16 UNL     1       9.781   1.731  35.337  1.00  0.00     0.036 C 
HETATM   14  C17 UNL     1       8.640   0.952  34.841  1.00  0.00    -0.021 C 
HETATM   15  C18 UNL     1       8.105   1.176  33.640  1.00  0.00    -0.048 C 
HETATM   16  C19 UNL     1       6.966   0.446  33.067  1.00  0.00     0.046 C 
HETATM   17  C20 UNL     1       8.758   2.251  32.873  1.00  0.00     0.148 C 
HETATM   18 CL1  UNL     1      10.491   1.670  32.685  1.00  0.00    -0.095 Cl
HETATM   19 CL2  UNL     1       8.225   2.451  31.230  1.00  0.00    -0.095 Cl
HETATM   20  C21 UNL     1       8.840   3.458  33.745  1.00  0.00     0.035 C 
HETATM   21  C22 UNL     1       9.305   4.606  32.861  1.00  0.00     0.025 C 
ENDROOT
BRANCH   1  22
HETATM   22  C4  UNL     1       4.132   4.787  36.906  1.00  0.00     0.042 C 
BRANCH  22  23
HETATM   23  C3  UNL     1       4.097   6.200  37.412  1.00  0.00     0.004 C 
BRANCH  23  24
HETATM   24  C2  UNL     1       3.667   6.162  38.865  1.00  0.00    -0.004 C 
HETATM   25  C1  UNL     1       2.591   5.156  39.121  1.00  0.00     0.005 C 
ENDBRANCH  23  24
ENDBRANCH  22  23
ENDBRANCH   1  22
BRANCH   7  26
HETATM   26  O2  UNL     1       6.664   4.362  38.069  1.00  0.00    -0.357 OA
ATOM     27  H2  UNL     1       6.861   5.210  38.450  1.00  0.00     0.217 HD
ENDBRANCH   7  26
BRANCH   4  28
HETATM   28  O1  UNL     1       6.205   3.948  32.590  1.00  0.00    -0.359 OA
ATOM     29  H1  UNL     1       5.357   3.611  32.324  1.00  0.00     0.217 HD
ENDBRANCH   4  28
TORSDOF 5
ENDMDL
MODEL 5
REMARK VINA RESULT: -6.707800916      3.238      6.944
REMARK  5 active torsions:
REMARK  status: ('A' for Active; 'I' for Inactive)
REMARK    1  A    between atoms: C2_2  and  C3_3 
REMARK    2  A    between atoms: C3_3  and  C4_4 
REMARK    3  A    between atoms: C4_4  and  C5_5 
REMARK    4  A    between atoms: C8_8  and  O1_9 
REMARK    5  A    between atoms: C11_13  and  O2_14 
ROOT
HETATM    1  C5  UNL     1       7.812   3.409  37.988  1.00  0.00    -0.013 A 
HETATM    2  C6  UNL     1       7.557   4.306  36.980  1.00  0.00    -0.019 A 
HETATM    3  C7  UNL     1       6.803   5.558  37.268  1.00  0.00     0.052 C 
HETATM    4  C8  UNL     1       7.989   4.116  35.657  1.00  0.00     0.082 A 
HETATM    5  C9  UNL     1       8.703   2.996  35.305  1.00  0.00     0.024 A 
HETATM    6  C10 UNL     1       8.958   2.099  36.324  1.00  0.00     0.113 A 
HETATM    7  C11 UNL     1       8.528   2.287  37.641  1.00  0.00     0.106 A 
HETATM    8  O3  UNL     1       9.688   0.905  36.129  1.00  0.00    -0.337 OA
HETATM    9  C12 UNL     1      10.601   1.004  35.026  1.00  0.00     0.066 C 
HETATM   10  C13 UNL     1      11.711   1.925  35.330  1.00  0.00     0.046 C 
HETATM   11  C14 UNL     1      11.137  -0.387  34.788  1.00  0.00     0.046 C 
HETATM   12  C15 UNL     1       9.722   1.348  33.859  1.00  0.00     0.040 C 
HETATM   13  C16 UNL     1       8.658   0.289  33.823  1.00  0.00     0.036 C 
HETATM   14  C17 UNL     1       7.273   0.775  33.792  1.00  0.00    -0.021 C 
HETATM   15  C18 UNL     1       6.963   1.983  33.321  1.00  0.00    -0.048 C 
HETATM   16  C19 UNL     1       5.608   2.548  33.252  1.00  0.00     0.046 C 
HETATM   17  C20 UNL     1       8.117   2.764  32.839  1.00  0.00     0.148 C 
HETATM   18 CL1  UNL     1       8.818   1.730  31.491  1.00  0.00    -0.095 Cl
HETATM   19 CL2  UNL     1       7.746   4.262  32.038  1.00  0.00    -0.095 Cl
HETATM   20  C21 UNL     1       9.153   2.769  33.911  1.00  0.00     0.035 C 
HETATM   21  C22 UNL     1      10.224   3.761  33.481  1.00  0.00     0.025 C 
ENDROOT
BRANCH   1  22
HETATM   22  C4  UNL     1       7.329   3.623  39.377  1.00  0.00     0.042 C 
BRANCH  22  23
HETATM   23  C3  UNL     1       8.321   4.315  40.265  1.00  0.00     0.004 C 
BRANCH  23  24
HETATM   24  C2  UNL     1       7.550   4.995  41.379  1.00  0.00    -0.004 C 
HETATM   25  C1  UNL     1       6.076   4.762  41.284  1.00  0.00     0.005 C 
ENDBRANCH  23  24
ENDBRANCH  22  23
ENDBRANCH   1  22
BRANCH   7  26
HETATM   26  O2  UNL     1       8.812   1.350  38.614  1.00  0.00    -0.357 OA
ATOM     27  H2  UNL     1       8.960   1.644  39.505  1.00  0.00     0.217 HD
ENDBRANCH   7  26
BRANCH   4  28
HETATM   28  O1  UNL     1       7.651   5.122  34.763  1.00  0.00    -0.359 OA
ATOM     29  H1  UNL     1       7.056   4.871  34.066  1.00  0.00     0.217 HD
ENDBRANCH   4  28
TORSDOF 5
ENDMDL
