MODEL 1
REMARK VINA RESULT: -9.937931680      0.000      0.000
REMARK  4 active torsions:
REMARK  status: ('A' for Active; 'I' for Inactive)
REMARK    1  A    between atoms: C4_5  and  C5_6 
REMARK    2  A    between atoms: C8_13  and  C9_14 
REMARK    3  A    between atoms: C9_14  and  C10_15 
REMARK    4  A    between atoms: C21_26  and  O3_27 
ROOT
HETATM    1  C5  UNL     1       8.648   4.025  35.302  1.00  0.00     0.073 A 
HETATM    2  C6  UNL     1       8.668   2.786  35.878  1.00  0.00     0.122 A 
HETATM    3 CL1  UNL     1       8.834   2.514  37.627  1.00  0.00    -0.063 Cl
HETATM    4  N1  UNL     1       8.467   1.703  35.088  1.00  0.00    -0.313 N 
ATOM      5  H1  UNL     1       8.484   0.777  35.514  1.00  0.00     0.170 HD
HETATM    6  C7  UNL     1       8.242   1.803  33.746  1.00  0.00     0.255 A 
HETATM    7  O2  UNL     1       8.084   0.695  33.182  1.00  0.00    -0.268 OA
HETATM    8  C8  UNL     1       8.203   2.997  33.111  1.00  0.00     0.045 A 
HETATM    9  C21 UNL     1       8.418   4.146  33.931  1.00  0.00     0.093 A 
ENDROOT
BRANCH   8  10
HETATM   10  C9  UNL     1       7.962   3.208  31.707  1.00  0.00     0.056 C 
BRANCH  10  11
HETATM   11  C10 UNL     1       9.106   3.106  30.726  1.00  0.00    -0.038 C 
HETATM   12  C11 UNL     1       9.998   4.312  31.031  1.00  0.00     0.015 C 
HETATM   13  C12 UNL     1       8.700   3.098  29.322  1.00  0.00     0.018 C 
HETATM   14  C13 UNL     1       9.701   2.555  28.319  1.00  0.00    -0.046 C 
HETATM   15  C14 UNL     1      10.756   3.541  27.899  1.00  0.00     0.015 C 
HETATM   16  C15 UNL     1       8.853   2.339  27.037  1.00  0.00     0.015 C 
HETATM   17  C16 UNL     1      10.278   1.246  28.698  1.00  0.00     0.017 C 
HETATM   18  C17 UNL     1      10.083   0.836  30.111  1.00  0.00    -0.046 C 
HETATM   19  C18 UNL     1       8.967  -0.193  30.246  1.00  0.00     0.015 C 
HETATM   20  C19 UNL     1      11.353   0.035  30.481  1.00  0.00     0.015 C 
HETATM   21  C20 UNL     1       9.980   1.911  31.106  1.00  0.00     0.018 C 
ENDBRANCH  10  11
ENDBRANCH   8  10
BRANCH   9  22
HETATM   22  O3  UNL     1       8.401   5.371  33.341  1.00  0.00    -0.359 OA
ATOM     23  H3  UNL     1       8.484   5.451  32.398  1.00  0.00     0.217 HD
ENDBRANCH   9  22
BRANCH   1  24
HETATM   24  C4  UNL     1       8.973   5.221  36.104  1.00  0.00     0.130 A 
HETATM   25  O1  UNL     1       8.137   5.796  36.973  1.00  0.00    -0.318 OA
HETATM   26  C3  UNL     1       8.666   6.838  37.541  1.00  0.00     0.152 A 
HETATM   27  C2  UNL     1       9.936   7.029  37.066  1.00  0.00     0.002 A 
HETATM   28  C1  UNL     1      10.884   8.097  37.449  1.00  0.00     0.053 C 
HETATM   29  C22 UNL     1      10.108   5.980  36.146  1.00  0.00     0.159 A 
HETATM   30  F1  UNL     1      11.266   5.900  35.429  1.00  0.00    -0.203 F 
ENDBRANCH   1  24
TORSDOF 4
ENDMDL
MODEL 2
REMARK VINA RESULT: -9.746566760      2.086      3.200
REMARK  4 active torsions:
REMARK  status: ('A' for Active; 'I' for Inactive)
REMARK    1  A    between atoms: C4_5  and  C5_6 
REMARK    2  A    between atoms: C8_13  and  C9_14 
REMARK    3  A    between atoms: C9_14  and  C10_15 
REMARK    4  A    between atoms: C21_26  and  O3_27 
ROOT
HETATM    1  C5  UNL     1       7.816   3.839  36.057  1.00  0.00     0.073 A 
HETATM    2  C6  UNL     1       8.664   3.047  36.779  1.00  0.00     0.122 A 
HETATM    3 CL1  UNL     1       8.419   2.644  38.494  1.00  0.00    -0.063 Cl
HETATM    4  N1  UNL     1       9.707   2.464  36.138  1.00  0.00    -0.313 N 
ATOM      5  H1  UNL     1      10.343   1.874  36.674  1.00  0.00     0.170 HD
HETATM    6  C7  UNL     1       9.938   2.634  34.804  1.00  0.00     0.255 A 
HETATM    7  O2  UNL     1      10.950   2.023  34.391  1.00  0.00    -0.268 OA
HETATM    8  C8  UNL     1       9.136   3.400  34.029  1.00  0.00     0.045 A 
HETATM    9  C21 UNL     1       8.037   4.023  34.693  1.00  0.00     0.093 A 
ENDROOT
BRANCH   8  10
HETATM   10  C9  UNL     1       9.288   3.632  32.615  1.00  0.00     0.056 C 
BRANCH  10  11
HETATM   11  C10 UNL     1       8.873   2.564  31.631  1.00  0.00    -0.038 C 
HETATM   12  C11 UNL     1       7.786   1.762  32.351  1.00  0.00     0.015 C 
HETATM   13  C12 UNL     1       9.961   1.692  31.191  1.00  0.00     0.018 C 
HETATM   14  C13 UNL     1       9.744   0.916  29.906  1.00  0.00    -0.046 C 
HETATM   15  C14 UNL     1       8.940  -0.344  30.070  1.00  0.00     0.015 C 
HETATM   16  C15 UNL     1      11.166   0.414  29.537  1.00  0.00     0.015 C 
HETATM   17  C16 UNL     1       9.259   1.746  28.780  1.00  0.00     0.017 C 
HETATM   18  C17 UNL     1       8.730   3.085  29.142  1.00  0.00    -0.046 C 
HETATM   19  C18 UNL     1       9.742   4.185  28.846  1.00  0.00     0.015 C 
HETATM   20  C19 UNL     1       7.596   3.362  28.128  1.00  0.00     0.015 C 
HETATM   21  C20 UNL     1       8.124   3.221  30.473  1.00  0.00     0.018 C 
ENDBRANCH  10  11
ENDBRANCH   8  10
BRANCH   9  22
HETATM   22  O3  UNL     1       7.206   4.813  33.962  1.00  0.00    -0.359 OA
ATOM     23  H3  UNL     1       7.555   5.531  33.446  1.00  0.00     0.217 HD
ENDBRANCH   9  22
BRANCH   1  24
HETATM   24  C4  UNL     1       6.735   4.580  36.738  1.00  0.00     0.130 A 
HETATM   25  O1  UNL     1       5.436   4.296  36.619  1.00  0.00    -0.318 OA
HETATM   26  C3  UNL     1       4.695   5.106  37.315  1.00  0.00     0.152 A 
HETATM   27  C2  UNL     1       5.487   6.015  37.964  1.00  0.00     0.002 A 
HETATM   28  C1  UNL     1       5.048   7.109  38.857  1.00  0.00     0.053 C 
HETATM   29  C22 UNL     1       6.790   5.657  37.575  1.00  0.00     0.159 A 
HETATM   30  F1  UNL     1       7.846   6.408  38.003  1.00  0.00    -0.203 F 
ENDBRANCH   1  24
TORSDOF 4
ENDMDL
MODEL 3
REMARK VINA RESULT: -9.697118774      1.061      1.176
REMARK  4 active torsions:
REMARK  status: ('A' for Active; 'I' for Inactive)
REMARK    1  A    between atoms: C4_5  and  C5_6 
REMARK    2  A    between atoms: C8_13  and  C9_14 
REMARK    3  A    between atoms: C9_14  and  C10_15 
REMARK    4  A    between atoms: C21_26  and  O3_27 
ROOT
HETATM    1  C5  UNL     1       8.745   4.037  35.292  1.00  0.00     0.073 A 
HETATM    2  C6  UNL     1       8.660   2.821  35.908  1.00  0.00     0.122 A 
HETATM    3 CL1  UNL     1       8.817   2.592  37.665  1.00  0.00    -0.063 Cl
HETATM    4  N1  UNL     1       8.356   1.735  35.156  1.00  0.00    -0.313 N 
ATOM      5  H1  UNL     1       8.294   0.825  35.613  1.00  0.00     0.170 HD
HETATM    6  C7  UNL     1       8.129   1.811  33.813  1.00  0.00     0.255 A 
HETATM    7  O2  UNL     1       7.868   0.704  33.287  1.00  0.00    -0.268 OA
HETATM    8  C8  UNL     1       8.191   2.983  33.139  1.00  0.00     0.045 A 
HETATM    9  C21 UNL     1       8.514   4.133  33.920  1.00  0.00     0.093 A 
ENDROOT
BRANCH   8  10
HETATM   10  C9  UNL     1       7.957   3.169  31.730  1.00  0.00     0.056 C 
BRANCH  10  11
HETATM   11  C10 UNL     1       9.100   3.021  30.754  1.00  0.00    -0.038 C 
HETATM   12  C11 UNL     1       9.994   4.237  31.003  1.00  0.00     0.015 C 
HETATM   13  C12 UNL     1       8.693   2.949  29.352  1.00  0.00     0.018 C 
HETATM   14  C13 UNL     1       9.692   2.360  28.374  1.00  0.00    -0.046 C 
HETATM   15  C14 UNL     1      10.748   3.324  27.910  1.00  0.00     0.015 C 
HETATM   16  C15 UNL     1       8.843   2.086  27.104  1.00  0.00     0.015 C 
HETATM   17  C16 UNL     1      10.267   1.068  28.812  1.00  0.00     0.017 C 
HETATM   18  C17 UNL     1      10.073   0.723  30.243  1.00  0.00    -0.046 C 
HETATM   19  C18 UNL     1       8.956  -0.297  30.425  1.00  0.00     0.015 C 
HETATM   20  C19 UNL     1      11.342  -0.062  30.648  1.00  0.00     0.015 C 
HETATM   21  C20 UNL     1       9.972   1.843  31.187  1.00  0.00     0.018 C 
ENDBRANCH  10  11
ENDBRANCH   8  10
BRANCH   9  22
HETATM   22  O3  UNL     1       8.601   5.336  33.289  1.00  0.00    -0.359 OA
ATOM     23  H3  UNL     1       7.833   5.724  32.887  1.00  0.00     0.217 HD
ENDBRANCH   9  22
BRANCH   1  24
HETATM   24  C4  UNL     1       9.182   5.225  36.052  1.00  0.00     0.130 A 
HETATM   25  O1  UNL     1      10.290   5.923  35.788  1.00  0.00    -0.318 OA
HETATM   26  C3  UNL     1      10.446   6.916  36.612  1.00  0.00     0.152 A 
HETATM   27  C2  UNL     1       9.414   6.939  37.511  1.00  0.00     0.002 A 
HETATM   28  C1  UNL     1       9.209   7.903  38.614  1.00  0.00     0.053 C 
HETATM   29  C22 UNL     1       8.618   5.844  37.131  1.00  0.00     0.159 A 
HETATM   30  F1  UNL     1       7.512   5.533  37.867  1.00  0.00    -0.203 F 
ENDBRANCH   1  24
TORSDOF 4
ENDMDL
MODEL 4
REMARK VINA RESULT: -9.414669992      1.335      1.418
REMARK  4 active torsions:
REMARK  status: ('A' for Active; 'I' for Inactive)
REMARK    1  A    between atoms: C4_5  and  C5_6 
REMARK    2  A    between atoms: C8_13  and  C9_14 
REMARK    3  A    between atoms: C9_14  and  C10_15 
REMARK    4  A    between atoms: C21_26  and  O3_27 
ROOT
HETATM    1  C5  UNL     1       9.879   4.293  35.398  1.00  0.00     0.073 A 
HETATM    2  C6  UNL     1      10.772   3.314  35.734  1.00  0.00     0.122 A 
HETATM    3 CL1  UNL     1      11.687   3.293  37.259  1.00  0.00    -0.063 Cl
HETATM    4  N1  UNL     1      10.911   2.254  34.901  1.00  0.00    -0.313 N 
ATOM      5  H1  UNL     1      11.579   1.522  35.147  1.00  0.00     0.170 HD
HETATM    6  C7  UNL     1      10.194   2.125  33.747  1.00  0.00     0.255 A 
HETATM    7  O2  UNL     1      10.463   1.083  33.106  1.00  0.00    -0.268 OA
HETATM    8  C8  UNL     1       9.290   3.053  33.357  1.00  0.00     0.045 A 
HETATM    9  C21 UNL     1       9.137   4.177  34.223  1.00  0.00     0.093 A 
ENDROOT
BRANCH   8  10
HETATM   10  C9  UNL     1       8.478   3.004  32.168  1.00  0.00     0.056 C 
BRANCH  10  11
HETATM   11  C10 UNL     1       9.091   3.331  30.827  1.00  0.00    -0.038 C 
HETATM   12  C11 UNL     1       9.974   4.555  31.083  1.00  0.00     0.015 C 
HETATM   13  C12 UNL     1       8.121   3.599  29.768  1.00  0.00     0.018 C 
HETATM   14  C13 UNL     1       8.614   3.486  28.337  1.00  0.00    -0.046 C 
HETATM   15  C14 UNL     1       9.342   4.703  27.834  1.00  0.00     0.015 C 
HETATM   16  C15 UNL     1       7.307   3.453  27.500  1.00  0.00     0.015 C 
HETATM   17  C16 UNL     1       9.355   2.236  28.056  1.00  0.00     0.017 C 
HETATM   18  C17 UNL     1       9.806   1.468  29.244  1.00  0.00    -0.046 C 
HETATM   19  C18 UNL     1       8.903   0.270  29.512  1.00  0.00     0.015 C 
HETATM   20  C19 UNL     1      11.145   0.819  28.824  1.00  0.00     0.015 C 
HETATM   21  C20 UNL     1      10.094   2.238  30.461  1.00  0.00     0.018 C 
ENDBRANCH  10  11
ENDBRANCH   8  10
BRANCH   9  22
HETATM   22  O3  UNL     1       8.249   5.146  33.872  1.00  0.00    -0.359 OA
ATOM     23  H3  UNL     1       8.551   5.950  33.465  1.00  0.00     0.217 HD
ENDBRANCH   9  22
BRANCH   1  24
HETATM   24  C4  UNL     1       9.778   5.516  36.219  1.00  0.00     0.130 A 
HETATM   25  O1  UNL     1       8.746   5.805  37.017  1.00  0.00    -0.318 OA
HETATM   26  C3  UNL     1       8.903   6.945  37.620  1.00  0.00     0.152 A 
HETATM   27  C2  UNL     1      10.094   7.508  37.245  1.00  0.00     0.002 A 
HETATM   28  C1  UNL     1      10.655   8.800  37.696  1.00  0.00     0.053 C 
HETATM   29  C22 UNL     1      10.634   6.573  36.345  1.00  0.00     0.159 A 
HETATM   30  F1  UNL     1      11.816   6.849  35.722  1.00  0.00    -0.203 F 
ENDBRANCH   1  24
TORSDOF 4
ENDMDL
MODEL 5
REMARK VINA RESULT: -9.302000420      2.394      3.510
REMARK  4 active torsions:
REMARK  status: ('A' for Active; 'I' for Inactive)
REMARK    1  A    between atoms: C4_5  and  C5_6 
REMARK    2  A    between atoms: C8_13  and  C9_14 
REMARK    3  A    between atoms: C9_14  and  C10_15 
REMARK    4  A    between atoms: C21_26  and  O3_27 
ROOT
HETATM    1  C5  UNL     1       7.816   3.954  36.134  1.00  0.00     0.073 A 
HETATM    2  C6  UNL     1       8.650   3.177  36.888  1.00  0.00     0.122 A 
HETATM    3 CL1  UNL     1       8.388   2.838  38.614  1.00  0.00    -0.063 Cl
HETATM    4  N1  UNL     1       9.689   2.560  36.275  1.00  0.00    -0.313 N 
ATOM      5  H1  UNL     1      10.314   1.982  36.836  1.00  0.00     0.170 HD
HETATM    6  C7  UNL     1       9.931   2.681  34.938  1.00  0.00     0.255 A 
HETATM    7  O2  UNL     1      10.938   2.044  34.553  1.00  0.00    -0.268 OA
HETATM    8  C8  UNL     1       9.144   3.429  34.130  1.00  0.00     0.045 A 
HETATM    9  C21 UNL     1       8.048   4.088  34.765  1.00  0.00     0.093 A 
ENDROOT
BRANCH   8  10
HETATM   10  C9  UNL     1       9.307   3.610  32.711  1.00  0.00     0.056 C 
BRANCH  10  11
HETATM   11  C10 UNL     1       8.892   2.511  31.762  1.00  0.00    -0.038 C 
HETATM   12  C11 UNL     1       7.740   1.792  32.468  1.00  0.00     0.015 C 
HETATM   13  C12 UNL     1       9.959   1.574  31.417  1.00  0.00     0.018 C 
HETATM   14  C13 UNL     1       9.768   0.743  30.162  1.00  0.00    -0.046 C 
HETATM   15  C14 UNL     1       8.904  -0.474  30.350  1.00  0.00     0.015 C 
HETATM   16  C15 UNL     1      11.182   0.165  29.886  1.00  0.00     0.015 C 
HETATM   17  C16 UNL     1       9.369   1.533  28.976  1.00  0.00     0.017 C 
HETATM   18  C17 UNL     1       8.883   2.909  29.247  1.00  0.00    -0.046 C 
HETATM   19  C18 UNL     1       9.953   3.951  28.945  1.00  0.00     0.015 C 
HETATM   20  C19 UNL     1       7.809   3.180  28.168  1.00  0.00     0.015 C 
HETATM   21  C20 UNL     1       8.224   3.138  30.539  1.00  0.00     0.018 C 
ENDBRANCH  10  11
ENDBRANCH   8  10
BRANCH   9  22
HETATM   22  O3  UNL     1       7.231   4.862  34.001  1.00  0.00    -0.359 OA
ATOM     23  H3  UNL     1       6.610   5.454  34.409  1.00  0.00     0.217 HD
ENDBRANCH   9  22
BRANCH   1  24
HETATM   24  C4  UNL     1       6.740   4.732  36.780  1.00  0.00     0.130 A 
HETATM   25  O1  UNL     1       6.937   5.623  37.755  1.00  0.00    -0.318 OA
HETATM   26  C3  UNL     1       5.823   6.161  38.154  1.00  0.00     0.152 A 
HETATM   27  C2  UNL     1       4.776   5.639  37.443  1.00  0.00     0.002 A 
HETATM   28  C1  UNL     1       3.343   5.976  37.581  1.00  0.00     0.053 C 
HETATM   29  C22 UNL     1       5.391   4.724  36.570  1.00  0.00     0.159 A 
HETATM   30  F1  UNL     1       4.617   3.967  35.739  1.00  0.00    -0.203 F 
ENDBRANCH   1  24
TORSDOF 4
ENDMDL
