MODEL 1
REMARK VINA RESULT: -10.184188005      0.000      0.000
REMARK  3 active torsions:
REMARK  status: ('A' for Active; 'I' for Inactive)
REMARK    1  A    between atoms: O1_1  and  C1_3 
REMARK    2  A    between atoms: C6_10  and  C7_11 
REMARK    3  A    between atoms: C15_24  and  C16_25 
ROOT
HETATM    1  C1  UNL     1      16.560  -3.865  29.632  1.00  0.00     0.078 A 
HETATM    2  C2  UNL     1      15.363  -3.269  29.900  1.00  0.00     0.052 A 
HETATM    3  C3  UNL     1      14.892  -2.139  29.274  1.00  0.00     0.012 A 
HETATM    4  C4  UNL     1      13.631  -1.515  29.558  1.00  0.00     0.116 A 
HETATM    5  N1  UNL     1      12.731  -1.946  30.478  1.00  0.00    -0.349 N 
ATOM      6  H1  UNL     1      12.825  -2.761  31.084  1.00  0.00     0.167 HD
HETATM    7  C5  UNL     1      11.685  -1.089  30.438  1.00  0.00     0.120 A 
HETATM    8  C6  UNL     1      11.926  -0.117  29.492  1.00  0.00     0.059 A 
HETATM    9  N2  UNL     1      13.131  -0.413  28.974  1.00  0.00    -0.340 N 
ATOM     10  H2  UNL     1      13.599   0.121  28.241  1.00  0.00     0.167 HD
HETATM   11  C13 UNL     1      15.729  -1.603  28.308  1.00  0.00     0.035 A 
HETATM   12  C14 UNL     1      16.973  -2.193  28.006  1.00  0.00     0.019 A 
HETATM   13  S1  UNL     1      18.238  -1.838  26.919  1.00  0.00    -0.093 SA
HETATM   14  C15 UNL     1      19.302  -3.120  27.297  1.00  0.00    -0.011 A 
HETATM   15  C22 UNL     1      18.628  -3.797  28.274  1.00  0.00     0.030 A 
HETATM   16  C23 UNL     1      17.414  -3.315  28.645  1.00  0.00     0.015 A 
ENDROOT
BRANCH   1  17
HETATM   17  O1  UNL     1      16.895  -4.999  30.347  1.00  0.00    -0.360 OA
ATOM     18  H1  UNL     1      17.216  -5.752  29.865  1.00  0.00     0.217 HD
ENDBRANCH   1  17
BRANCH   8  19
HETATM   19  C7  UNL     1      11.059   1.000  29.126  1.00  0.00    -0.002 A 
HETATM   20  C8  UNL     1      11.292   1.790  28.025  1.00  0.00     0.056 A 
HETATM   21  C9  UNL     1      10.471   2.846  27.680  1.00  0.00     0.120 A 
HETATM   22  F1  UNL     1      10.686   3.626  26.607  1.00  0.00    -0.206 F 
HETATM   23  C10 UNL     1       9.375   3.112  28.476  1.00  0.00     0.084 A 
HETATM   24  C11 UNL     1       9.113   2.338  29.588  1.00  0.00     0.120 A 
HETATM   25  F2  UNL     1       8.022   2.651  30.327  1.00  0.00    -0.206 F 
HETATM   26  C12 UNL     1       9.956   1.290  29.902  1.00  0.00     0.056 A 
ENDBRANCH   8  19
BRANCH  14  27
HETATM   27  C16 UNL     1      20.629  -3.449  26.695  1.00  0.00     0.030 C 
HETATM   28  C17 UNL     1      20.542  -3.510  25.151  1.00  0.00     0.014 C 
HETATM   29  C18 UNL     1      21.658  -2.564  24.820  1.00  0.00    -0.013 C 
HETATM   30  C19 UNL     1      21.258  -1.382  25.728  1.00  0.00     0.010 C 
HETATM   31  C21 UNL     1      22.713  -2.808  25.873  1.00  0.00     0.010 C 
HETATM   32  C20 UNL     1      21.594  -2.356  26.834  1.00  0.00    -0.005 C 
ENDBRANCH  14  27
TORSDOF 3
ENDMDL
MODEL 2
REMARK VINA RESULT: -10.142588544      0.050      1.513
REMARK  3 active torsions:
REMARK  status: ('A' for Active; 'I' for Inactive)
REMARK    1  A    between atoms: O1_1  and  C1_3 
REMARK    2  A    between atoms: C6_10  and  C7_11 
REMARK    3  A    between atoms: C15_24  and  C16_25 
ROOT
HETATM    1  C1  UNL     1      16.566  -3.860  29.635  1.00  0.00     0.078 A 
HETATM    2  C2  UNL     1      15.367  -3.267  29.905  1.00  0.00     0.052 A 
HETATM    3  C3  UNL     1      14.891  -2.141  29.277  1.00  0.00     0.012 A 
HETATM    4  C4  UNL     1      13.628  -1.519  29.564  1.00  0.00     0.116 A 
HETATM    5  N1  UNL     1      12.733  -1.950  30.489  1.00  0.00    -0.349 N 
ATOM      6  H1  UNL     1      12.832  -2.763  31.097  1.00  0.00     0.167 HD
HETATM    7  C5  UNL     1      11.684  -1.097  30.450  1.00  0.00     0.120 A 
HETATM    8  C6  UNL     1      11.919  -0.128  29.499  1.00  0.00     0.059 A 
HETATM    9  N2  UNL     1      13.123  -0.422  28.977  1.00  0.00    -0.340 N 
ATOM     10  H2  UNL     1      13.586   0.112  28.242  1.00  0.00     0.167 HD
HETATM   11  C13 UNL     1      15.722  -1.606  28.307  1.00  0.00     0.035 A 
HETATM   12  C14 UNL     1      16.967  -2.192  28.002  1.00  0.00     0.019 A 
HETATM   13  S1  UNL     1      18.227  -1.837  26.908  1.00  0.00    -0.093 SA
HETATM   14  C15 UNL     1      19.296  -3.114  27.287  1.00  0.00    -0.011 A 
HETATM   15  C22 UNL     1      18.628  -3.790  28.269  1.00  0.00     0.030 A 
HETATM   16  C23 UNL     1      17.414  -3.310  28.643  1.00  0.00     0.015 A 
ENDROOT
BRANCH   1  17
HETATM   17  O1  UNL     1      16.907  -4.991  30.353  1.00  0.00    -0.360 OA
ATOM     18  H1  UNL     1      16.326  -5.269  31.050  1.00  0.00     0.217 HD
ENDBRANCH   1  17
BRANCH   8  19
HETATM   19  C7  UNL     1      11.046   0.985  29.133  1.00  0.00    -0.002 A 
HETATM   20  C8  UNL     1       9.930   1.322  29.864  1.00  0.00     0.056 A 
HETATM   21  C9  UNL     1       9.106   2.376  29.518  1.00  0.00     0.120 A 
HETATM   22  F1  UNL     1       8.013   2.717  30.221  1.00  0.00    -0.206 F 
HETATM   23  C10 UNL     1       9.421   3.113  28.395  1.00  0.00     0.084 A 
HETATM   24  C11 UNL     1      10.533   2.800  27.640  1.00  0.00     0.120 A 
HETATM   25  F2  UNL     1      10.787   3.564  26.550  1.00  0.00    -0.206 F 
HETATM   26  C12 UNL     1      11.335   1.741  28.017  1.00  0.00     0.056 A 
ENDBRANCH   8  19
BRANCH  14  27
HETATM   27  C16 UNL     1      20.622  -3.441  26.681  1.00  0.00     0.030 C 
HETATM   28  C17 UNL     1      20.529  -3.514  25.139  1.00  0.00     0.014 C 
HETATM   29  C18 UNL     1      21.638  -2.565  24.795  1.00  0.00    -0.013 C 
HETATM   30  C19 UNL     1      21.236  -1.378  25.695  1.00  0.00     0.010 C 
HETATM   31  C21 UNL     1      22.699  -2.795  25.845  1.00  0.00     0.010 C 
HETATM   32  C20 UNL     1      21.582  -2.342  26.807  1.00  0.00    -0.005 C 
ENDBRANCH  14  27
TORSDOF 3
ENDMDL
MODEL 3
REMARK VINA RESULT: -10.081286092      5.882     11.517
REMARK  3 active torsions:
REMARK  status: ('A' for Active; 'I' for Inactive)
REMARK    1  A    between atoms: O1_1  and  C1_3 
REMARK    2  A    between atoms: C6_10  and  C7_11 
REMARK    3  A    between atoms: C15_24  and  C16_25 
ROOT
HETATM    1  C1  UNL     1       9.292   2.154  31.594  1.00  0.00     0.078 A 
HETATM    2  C2  UNL     1      10.120   1.423  30.794  1.00  0.00     0.052 A 
HETATM    3  C3  UNL     1      10.978   0.445  31.240  1.00  0.00     0.012 A 
HETATM    4  C4  UNL     1      11.849  -0.323  30.394  1.00  0.00     0.116 A 
HETATM    5  N1  UNL     1      11.950  -0.194  29.047  1.00  0.00    -0.349 N 
ATOM      6  H1  UNL     1      11.429   0.456  28.458  1.00  0.00     0.167 HD
HETATM    7  C5  UNL     1      12.874  -1.091  28.633  1.00  0.00     0.120 A 
HETATM    8  C6  UNL     1      13.355  -1.787  29.721  1.00  0.00     0.059 A 
HETATM    9  N2  UNL     1      12.701  -1.285  30.784  1.00  0.00    -0.340 N 
ATOM     10  H2  UNL     1      12.832  -1.592  31.748  1.00  0.00     0.167 HD
HETATM   11  C13 UNL     1      10.964   0.221  32.607  1.00  0.00     0.035 A 
HETATM   12  C14 UNL     1      10.121   0.958  33.462  1.00  0.00     0.019 A 
HETATM   13  S1  UNL     1       9.829   0.970  35.143  1.00  0.00    -0.093 SA
HETATM   14  C15 UNL     1       8.647   2.201  35.214  1.00  0.00    -0.011 A 
HETATM   15  C22 UNL     1       8.512   2.570  33.906  1.00  0.00     0.030 A 
HETATM   16  C23 UNL     1       9.280   1.923  32.991  1.00  0.00     0.015 A 
ENDROOT
BRANCH   1  17
HETATM   17  O1  UNL     1       8.485   3.104  30.997  1.00  0.00    -0.360 OA
ATOM     18  H1  UNL     1       7.628   3.262  31.374  1.00  0.00     0.217 HD
ENDBRANCH   1  17
BRANCH   8  19
HETATM   19  C7  UNL     1      14.362  -2.844  29.723  1.00  0.00    -0.002 A 
HETATM   20  C8  UNL     1      14.043  -4.172  29.557  1.00  0.00     0.056 A 
HETATM   21  C9  UNL     1      14.996  -5.172  29.557  1.00  0.00     0.120 A 
HETATM   22  F1  UNL     1      14.700  -6.472  29.397  1.00  0.00    -0.206 F 
HETATM   23  C10 UNL     1      16.318  -4.817  29.732  1.00  0.00     0.084 A 
HETATM   24  C11 UNL     1      16.672  -3.493  29.902  1.00  0.00     0.120 A 
HETATM   25  F2  UNL     1      17.986  -3.212  30.068  1.00  0.00    -0.206 F 
HETATM   26  C12 UNL     1      15.691  -2.521  29.895  1.00  0.00     0.056 A 
ENDBRANCH   8  19
BRANCH  14  27
HETATM   27  C16 UNL     1       7.912   2.731  36.402  1.00  0.00     0.030 C 
HETATM   28  C17 UNL     1       8.649   2.382  37.717  1.00  0.00     0.014 C 
HETATM   29  C18 UNL     1       8.733   3.758  38.307  1.00  0.00    -0.013 C 
HETATM   30  C19 UNL     1       9.309   4.514  37.091  1.00  0.00     0.010 C 
HETATM   31  C21 UNL     1       7.442   4.438  37.917  1.00  0.00     0.010 C 
HETATM   32  C20 UNL     1       7.962   4.192  36.485  1.00  0.00    -0.005 C 
ENDBRANCH  14  27
TORSDOF 3
ENDMDL
MODEL 4
REMARK VINA RESULT: -10.012912927      5.897     11.494
REMARK  3 active torsions:
REMARK  status: ('A' for Active; 'I' for Inactive)
REMARK    1  A    between atoms: O1_1  and  C1_3 
REMARK    2  A    between atoms: C6_10  and  C7_11 
REMARK    3  A    between atoms: C15_24  and  C16_25 
ROOT
HETATM    1  C1  UNL     1       9.268   2.233  31.616  1.00  0.00     0.078 A 
HETATM    2  C2  UNL     1      10.087   1.502  30.808  1.00  0.00     0.052 A 
HETATM    3  C3  UNL     1      10.937   0.512  31.244  1.00  0.00     0.012 A 
HETATM    4  C4  UNL     1      11.799  -0.256  30.390  1.00  0.00     0.116 A 
HETATM    5  N1  UNL     1      11.898  -0.117  29.043  1.00  0.00    -0.349 N 
ATOM      6  H1  UNL     1      11.382   0.543  28.461  1.00  0.00     0.167 HD
HETATM    7  C5  UNL     1      12.813  -1.019  28.620  1.00  0.00     0.120 A 
HETATM    8  C6  UNL     1      13.290  -1.728  29.701  1.00  0.00     0.059 A 
HETATM    9  N2  UNL     1      12.643  -1.230  30.769  1.00  0.00    -0.340 N 
ATOM     10  H2  UNL     1      12.773  -1.546  31.730  1.00  0.00     0.167 HD
HETATM   11  C13 UNL     1      10.924   0.276  32.609  1.00  0.00     0.035 A 
HETATM   12  C14 UNL     1      10.090   1.014  33.473  1.00  0.00     0.019 A 
HETATM   13  S1  UNL     1       9.802   1.015  35.154  1.00  0.00    -0.093 SA
HETATM   14  C15 UNL     1       8.631   2.256  35.238  1.00  0.00    -0.011 A 
HETATM   15  C22 UNL     1       8.497   2.637  33.933  1.00  0.00     0.030 A 
HETATM   16  C23 UNL     1       9.257   1.991  33.011  1.00  0.00     0.015 A 
ENDROOT
BRANCH   1  17
HETATM   17  O1  UNL     1       8.469   3.196  31.029  1.00  0.00    -0.360 OA
ATOM     18  H1  UNL     1       7.740   3.540  31.533  1.00  0.00     0.217 HD
ENDBRANCH   1  17
BRANCH   8  19
HETATM   19  C7  UNL     1      14.287  -2.795  29.691  1.00  0.00    -0.002 A 
HETATM   20  C8  UNL     1      15.600  -2.585  30.046  1.00  0.00     0.056 A 
HETATM   21  C9  UNL     1      16.543  -3.595  30.038  1.00  0.00     0.120 A 
HETATM   22  F1  UNL     1      17.828  -3.405  30.381  1.00  0.00    -0.206 F 
HETATM   23  C10 UNL     1      16.145  -4.860  29.657  1.00  0.00     0.084 A 
HETATM   24  C11 UNL     1      14.835  -5.104  29.294  1.00  0.00     0.120 A 
HETATM   25  F2  UNL     1      14.510  -6.367  28.932  1.00  0.00    -0.206 F 
HETATM   26  C12 UNL     1      13.921  -4.070  29.316  1.00  0.00     0.056 A 
ENDBRANCH   8  19
BRANCH  14  27
HETATM   27  C16 UNL     1       7.903   2.782  36.432  1.00  0.00     0.030 C 
HETATM   28  C17 UNL     1       8.654   2.438  37.740  1.00  0.00     0.014 C 
HETATM   29  C18 UNL     1       8.735   3.815  38.329  1.00  0.00    -0.013 C 
HETATM   30  C19 UNL     1       9.296   4.574  37.107  1.00  0.00     0.010 C 
HETATM   31  C21 UNL     1       7.437   4.488  37.950  1.00  0.00     0.010 C 
HETATM   32  C20 UNL     1       7.945   4.244  36.514  1.00  0.00    -0.005 C 
ENDBRANCH  14  27
TORSDOF 3
ENDMDL
MODEL 5
REMARK VINA RESULT: -9.743725461      5.631     11.574
REMARK  3 active torsions:
REMARK  status: ('A' for Active; 'I' for Inactive)
REMARK    1  A    between atoms: O1_1  and  C1_3 
REMARK    2  A    between atoms: C6_10  and  C7_11 
REMARK    3  A    between atoms: C15_24  and  C16_25 
ROOT
HETATM    1  C1  UNL     1       9.870   2.533  30.365  1.00  0.00     0.078 A 
HETATM    2  C2  UNL     1      10.846   1.752  29.820  1.00  0.00     0.052 A 
HETATM    3  C3  UNL     1      11.089   0.444  30.167  1.00  0.00     0.012 A 
HETATM    4  C4  UNL     1      12.118  -0.375  29.591  1.00  0.00     0.116 A 
HETATM    5  N1  UNL     1      12.991   0.021  28.630  1.00  0.00    -0.349 N 
ATOM      6  H1  UNL     1      13.036   0.941  28.192  1.00  0.00     0.167 HD
HETATM    7  C5  UNL     1      13.792  -1.037  28.365  1.00  0.00     0.120 A 
HETATM    8  C6  UNL     1      13.421  -2.101  29.159  1.00  0.00     0.059 A 
HETATM    9  N2  UNL     1      12.390  -1.654  29.898  1.00  0.00    -0.340 N 
ATOM     10  H2  UNL     1      11.886  -2.207  30.591  1.00  0.00     0.167 HD
HETATM   11  C13 UNL     1      10.255  -0.075  31.144  1.00  0.00     0.035 A 
HETATM   12  C14 UNL     1       9.236   0.704  31.729  1.00  0.00     0.019 A 
HETATM   13  S1  UNL     1       8.047   0.428  32.921  1.00  0.00    -0.093 SA
HETATM   14  C15 UNL     1       7.300   1.964  32.934  1.00  0.00    -0.011 A 
HETATM   15  C22 UNL     1       8.010   2.656  31.993  1.00  0.00     0.030 A 
HETATM   16  C23 UNL     1       9.019   2.000  31.364  1.00  0.00     0.015 A 
ENDROOT
BRANCH   1  17
HETATM   17  O1  UNL     1       9.749   3.833  29.911  1.00  0.00    -0.360 OA
ATOM     18  H1  UNL     1       9.001   4.048  29.366  1.00  0.00     0.217 HD
ENDBRANCH   1  17
BRANCH   8  19
HETATM   19  C7  UNL     1      14.021  -3.432  29.194  1.00  0.00    -0.002 A 
HETATM   20  C8  UNL     1      13.442  -4.522  28.585  1.00  0.00     0.056 A 
HETATM   21  C9  UNL     1      14.010  -5.780  28.617  1.00  0.00     0.120 A 
HETATM   22  F1  UNL     1      13.456  -6.853  28.028  1.00  0.00    -0.206 F 
HETATM   23  C10 UNL     1      15.205  -5.943  29.288  1.00  0.00     0.084 A 
HETATM   24  C11 UNL     1      15.811  -4.871  29.910  1.00  0.00     0.120 A 
HETATM   25  F2  UNL     1      16.983  -5.098  30.551  1.00  0.00    -0.206 F 
HETATM   26  C12 UNL     1      15.214  -3.627  29.856  1.00  0.00     0.056 A 
ENDBRANCH   8  19
BRANCH  14  27
HETATM   27  C16 UNL     1       6.138   2.438  33.744  1.00  0.00     0.030 C 
HETATM   28  C17 UNL     1       6.599   3.380  34.882  1.00  0.00     0.014 C 
HETATM   29  C18 UNL     1       5.697   4.544  34.598  1.00  0.00    -0.013 C 
HETATM   30  C19 UNL     1       5.972   4.707  33.088  1.00  0.00     0.010 C 
HETATM   31  C21 UNL     1       4.395   3.935  34.132  1.00  0.00     0.010 C 
HETATM   32  C20 UNL     1       5.280   3.365  33.004  1.00  0.00    -0.005 C 
ENDBRANCH  14  27
TORSDOF 3
ENDMDL
