MODEL 1
REMARK VINA RESULT: -7.070291695      0.000      0.000
REMARK  13 active torsions:
REMARK  status: ('A' for Active; 'I' for Inactive)
REMARK    1  A    between atoms: C7_9  and  C8_10 
REMARK    2  A    between atoms: C9_12  and  C10_13 
REMARK    3  A    between atoms: C10_13  and  C11_14 
REMARK    4  A    between atoms: C12_15  and  C14_17 
REMARK    5  A    between atoms: C14_17  and  O5_19 
REMARK    6  A    between atoms: O5_19  and  C15_20 
REMARK    7  A    between atoms: C19_24  and  O6_25 
REMARK    8  A    between atoms: C23_31  and  C24_32 
REMARK    9  A    between atoms: C25_35  and  C26_36 
REMARK   10  A    between atoms: C26_36  and  C28_38 
REMARK   11  A    between atoms: C28_38  and  C30_40 
REMARK   12  A    between atoms: C30_40  and  C32_42 
REMARK   13  A    between atoms: C32_42  and  O10_43 
ROOT
HETATM    1  C1  UNL     1      -3.305  -0.938  31.492  1.00  0.00     0.030 C 
HETATM    2  C2  UNL     1      -2.487  -0.200  30.811  1.00  0.00     0.035 C 
HETATM    3  C3  UNL     1      -1.049  -0.077  30.812  1.00  0.00     0.294 C 
HETATM    4  O1  UNL     1      -0.307  -0.357  31.782  1.00  0.00    -0.259 OA
HETATM    5  O2  UNL     1      -0.680   0.389  29.597  1.00  0.00    -0.294 OA
HETATM    6  C4  UNL     1      -1.734   1.177  28.960  1.00  0.00     0.149 C 
HETATM    7  C5  UNL     1      -2.883   0.816  29.741  1.00  0.00    -0.026 C 
HETATM    8  C6  UNL     1      -4.248   0.665  29.269  1.00  0.00     0.048 C 
HETATM    9  C7  UNL     1      -1.307   2.619  29.344  1.00  0.00     0.197 C 
HETATM   10  O7  UNL     1      -0.123   2.999  28.827  1.00  0.00    -0.372 OA
HETATM   11  C20 UNL     1       0.647   2.015  28.289  1.00  0.00     0.151 A 
HETATM   12  C21 UNL     1       0.822   2.212  26.769  1.00  0.00     0.038 A 
HETATM   13  C22 UNL     1       0.436   3.529  26.212  1.00  0.00     0.014 C 
HETATM   14  C23 UNL     1       0.025   1.117  27.261  1.00  0.00     0.107 A 
HETATM   15  C25 UNL     1      -1.460   1.010  27.527  1.00  0.00    -0.010 C 
ENDROOT
BRANCH   9  16
HETATM   16  C8  UNL     1      -2.332   3.661  29.249  1.00  0.00     0.183 C 
HETATM   17  O3  UNL     1      -2.901   3.901  28.022  1.00  0.00    -0.374 OA
HETATM   18  C9  UNL     1      -3.116   5.288  27.853  1.00  0.00     0.132 C 
HETATM   19  C17 UNL     1      -3.072   5.838  29.190  1.00  0.00     0.042 C 
HETATM   20  C18 UNL     1      -2.819   7.245  29.490  1.00  0.00     0.015 C 
HETATM   21  C19 UNL     1      -1.890   5.017  29.782  1.00  0.00     0.156 C 
BRANCH  18  22
HETATM   22  C10 UNL     1      -2.313   5.828  26.742  1.00  0.00     0.060 C 
BRANCH  22  23
HETATM   23  C11 UNL     1      -2.606   5.351  25.407  1.00  0.00    -0.011 C 
HETATM   24  C12 UNL     1      -3.320   5.880  24.443  1.00  0.00     0.009 C 
HETATM   25  C13 UNL     1      -3.461   5.139  23.119  1.00  0.00     0.054 C 
BRANCH  24  26
HETATM   26  C14 UNL     1      -3.977   7.160  24.516  1.00  0.00     0.288 C 
HETATM   27  O4  UNL     1      -4.974   7.455  25.208  1.00  0.00    -0.260 OA
BRANCH  26  28
HETATM   28  O5  UNL     1      -3.479   8.221  23.738  1.00  0.00    -0.318 OA
BRANCH  28  29
HETATM   29  C15 UNL     1      -4.373   8.980  22.962  1.00  0.00     0.174 C 
HETATM   30  C16 UNL     1      -4.657   8.442  21.601  1.00  0.00     0.034 C 
ENDBRANCH  28  29
ENDBRANCH  26  28
ENDBRANCH  24  26
ENDBRANCH  22  23
ENDBRANCH  18  22
BRANCH  21  31
HETATM   31  O6  UNL     1      -0.679   5.443  29.341  1.00  0.00    -0.392 OA
ATOM     32  H6  UNL     1      -0.701   6.212  28.782  1.00  0.00     0.210 HD
ENDBRANCH  21  31
ENDBRANCH   9  16
BRANCH  15  33
HETATM   33  C26 UNL     1      -2.132   0.018  26.704  1.00  0.00    -0.056 C 
HETATM   34  C27 UNL     1      -2.452  -1.213  27.250  1.00  0.00     0.020 C 
BRANCH  33  35
HETATM   35  C28 UNL     1      -2.749   0.066  25.366  1.00  0.00     0.020 C 
HETATM   36  C29 UNL     1      -2.510  -1.282  24.635  1.00  0.00     0.015 C 
BRANCH  35  37
HETATM   37  C30 UNL     1      -4.112   0.453  25.076  1.00  0.00     0.013 C 
HETATM   38  C31 UNL     1      -4.799  -0.083  23.880  1.00  0.00     0.012 C 
BRANCH  37  39
HETATM   39  C32 UNL     1      -4.314   1.980  25.042  1.00  0.00     0.168 C 
BRANCH  39  40
HETATM   40  O10 UNL     1      -4.652   2.504  26.262  1.00  0.00    -0.400 OA
ATOM     41  H10 UNL     1      -3.901   2.805  26.759  1.00  0.00     0.209 HD
ENDBRANCH  39  40
ENDBRANCH  37  39
ENDBRANCH  35  37
ENDBRANCH  33  35
ENDBRANCH  15  33
BRANCH  14  42
HETATM   42  C24 UNL     1       0.774  -0.219  27.272  1.00  0.00     0.189 C 
HETATM   43  O8  UNL     1       1.245  -0.693  28.315  1.00  0.00    -0.647 OA
HETATM   44  O9  UNL     1       0.916  -0.886  26.100  1.00  0.00    -0.647 OA
ENDBRANCH  14  42
TORSDOF 13
ENDMDL
MODEL 2
REMARK VINA RESULT: -6.981454575      2.279      5.206
REMARK  13 active torsions:
REMARK  status: ('A' for Active; 'I' for Inactive)
REMARK    1  A    between atoms: C7_9  and  C8_10 
REMARK    2  A    between atoms: C9_12  and  C10_13 
REMARK    3  A    between atoms: C10_13  and  C11_14 
REMARK    4  A    between atoms: C12_15  and  C14_17 
REMARK    5  A    between atoms: C14_17  and  O5_19 
REMARK    6  A    between atoms: O5_19  and  C15_20 
REMARK    7  A    between atoms: C19_24  and  O6_25 
REMARK    8  A    between atoms: C23_31  and  C24_32 
REMARK    9  A    between atoms: C25_35  and  C26_36 
REMARK   10  A    between atoms: C26_36  and  C28_38 
REMARK   11  A    between atoms: C28_38  and  C30_40 
REMARK   12  A    between atoms: C30_40  and  C32_42 
REMARK   13  A    between atoms: C32_42  and  O10_43 
ROOT
HETATM    1  C1  UNL     1      -0.670   5.576  30.935  1.00  0.00     0.030 C 
HETATM    2  C2  UNL     1      -0.639   4.729  29.957  1.00  0.00     0.035 C 
HETATM    3  C3  UNL     1       0.430   4.237  29.121  1.00  0.00     0.294 C 
HETATM    4  O1  UNL     1       1.497   4.853  28.888  1.00  0.00    -0.259 OA
HETATM    5  O2  UNL     1       0.059   3.022  28.657  1.00  0.00    -0.294 OA
HETATM    6  C4  UNL     1      -1.394   2.877  28.580  1.00  0.00     0.149 C 
HETATM    7  C5  UNL     1      -1.842   3.973  29.395  1.00  0.00    -0.026 C 
HETATM    8  C6  UNL     1      -3.005   3.997  30.264  1.00  0.00     0.048 C 
HETATM    9  C7  UNL     1      -1.656   3.229  27.091  1.00  0.00     0.197 C 
HETATM   10  O7  UNL     1      -1.098   2.370  26.217  1.00  0.00    -0.372 OA
HETATM   11  C20 UNL     1      -0.182   1.501  26.722  1.00  0.00     0.151 A 
HETATM   12  C21 UNL     1      -0.677   0.044  26.617  1.00  0.00     0.038 A 
HETATM   13  C22 UNL     1      -1.845  -0.209  25.741  1.00  0.00     0.014 C 
HETATM   14  C23 UNL     1      -0.576   0.673  27.909  1.00  0.00     0.107 A 
HETATM   15  C25 UNL     1      -1.597   1.430  28.728  1.00  0.00    -0.010 C 
ENDROOT
BRANCH   9  16
HETATM   16  C8  UNL     1      -3.025   3.604  26.729  1.00  0.00     0.183 C 
HETATM   17  O3  UNL     1      -3.812   2.663  26.111  1.00  0.00    -0.374 OA
HETATM   18  C9  UNL     1      -4.609   3.279  25.118  1.00  0.00     0.132 C 
HETATM   19  C17 UNL     1      -4.608   4.686  25.459  1.00  0.00     0.042 C 
HETATM   20  C18 UNL     1      -4.926   5.757  24.518  1.00  0.00     0.015 C 
HETATM   21  C19 UNL     1      -3.118   4.861  25.876  1.00  0.00     0.156 C 
BRANCH  18  22
HETATM   22  C10 UNL     1      -4.276   2.784  23.772  1.00  0.00     0.060 C 
BRANCH  22  23
HETATM   23  C11 UNL     1      -4.188   1.351  23.585  1.00  0.00    -0.011 C 
HETATM   24  C12 UNL     1      -4.371   0.612  22.518  1.00  0.00     0.009 C 
HETATM   25  C13 UNL     1      -4.213  -0.901  22.616  1.00  0.00     0.054 C 
BRANCH  24  26
HETATM   26  C14 UNL     1      -4.684   1.124  21.208  1.00  0.00     0.288 C 
HETATM   27  O4  UNL     1      -5.770   1.019  20.600  1.00  0.00    -0.260 OA
BRANCH  26  28
HETATM   28  O5  UNL     1      -3.688   1.821  20.499  1.00  0.00    -0.318 OA
BRANCH  28  29
HETATM   29  C15 UNL     1      -4.050   2.948  19.740  1.00  0.00     0.174 C 
HETATM   30  C16 UNL     1      -3.949   4.256  20.448  1.00  0.00     0.034 C 
ENDBRANCH  28  29
ENDBRANCH  26  28
ENDBRANCH  24  26
ENDBRANCH  22  23
ENDBRANCH  18  22
BRANCH  21  31
HETATM   31  O6  UNL     1      -2.275   4.901  24.813  1.00  0.00    -0.392 OA
ATOM     32  H6  UNL     1      -1.870   5.746  24.650  1.00  0.00     0.210 HD
ENDBRANCH  21  31
ENDBRANCH   9  16
BRANCH  15  33
HETATM   33  C26 UNL     1      -1.911   0.802  30.001  1.00  0.00    -0.056 C 
HETATM   34  C27 UNL     1      -2.495  -0.453  30.013  1.00  0.00     0.020 C 
BRANCH  33  35
HETATM   35  C28 UNL     1      -1.584   1.135  31.399  1.00  0.00     0.020 C 
HETATM   36  C29 UNL     1      -2.736   0.669  32.328  1.00  0.00     0.015 C 
BRANCH  35  37
HETATM   37  C30 UNL     1      -0.351   0.811  32.081  1.00  0.00     0.013 C 
HETATM   38  C31 UNL     1      -0.376   0.004  33.320  1.00  0.00     0.012 C 
BRANCH  37  39
HETATM   39  C32 UNL     1       0.517   2.047  32.388  1.00  0.00     0.168 C 
BRANCH  39  40
HETATM   40  O10 UNL     1       1.775   1.967  31.853  1.00  0.00    -0.400 OA
ATOM     41  H10 UNL     1       1.872   1.252  31.235  1.00  0.00     0.209 HD
ENDBRANCH  39  40
ENDBRANCH  37  39
ENDBRANCH  35  37
ENDBRANCH  33  35
ENDBRANCH  15  33
BRANCH  14  42
HETATM   42  C24 UNL     1       0.696   0.287  28.672  1.00  0.00     0.189 C 
HETATM   43  O8  UNL     1       1.400   1.136  29.234  1.00  0.00    -0.647 OA
HETATM   44  O9  UNL     1       1.044  -1.023  28.721  1.00  0.00    -0.647 OA
ENDBRANCH  14  42
TORSDOF 13
ENDMDL
MODEL 3
REMARK VINA RESULT: -6.954211744      3.105      6.610
REMARK  13 active torsions:
REMARK  status: ('A' for Active; 'I' for Inactive)
REMARK    1  A    between atoms: C7_9  and  C8_10 
REMARK    2  A    between atoms: C9_12  and  C10_13 
REMARK    3  A    between atoms: C10_13  and  C11_14 
REMARK    4  A    between atoms: C12_15  and  C14_17 
REMARK    5  A    between atoms: C14_17  and  O5_19 
REMARK    6  A    between atoms: O5_19  and  C15_20 
REMARK    7  A    between atoms: C19_24  and  O6_25 
REMARK    8  A    between atoms: C23_31  and  C24_32 
REMARK    9  A    between atoms: C25_35  and  C26_36 
REMARK   10  A    between atoms: C26_36  and  C28_38 
REMARK   11  A    between atoms: C28_38  and  C30_40 
REMARK   12  A    between atoms: C30_40  and  C32_42 
REMARK   13  A    between atoms: C32_42  and  O10_43 
ROOT
HETATM    1  C1  UNL     1      -1.951  -1.079  28.441  1.00  0.00     0.030 C 
HETATM    2  C2  UNL     1      -2.543  -0.141  27.773  1.00  0.00     0.035 C 
HETATM    3  C3  UNL     1      -3.672   0.708  28.069  1.00  0.00     0.294 C 
HETATM    4  O1  UNL     1      -4.591   0.422  28.872  1.00  0.00    -0.259 OA
HETATM    5  O2  UNL     1      -3.542   1.832  27.329  1.00  0.00    -0.294 OA
HETATM    6  C4  UNL     1      -2.778   1.605  26.103  1.00  0.00     0.149 C 
HETATM    7  C5  UNL     1      -2.153   0.341  26.376  1.00  0.00    -0.026 C 
HETATM    8  C6  UNL     1      -0.830  -0.089  25.959  1.00  0.00     0.048 C 
HETATM    9  C7  UNL     1      -3.919   1.380  25.073  1.00  0.00     0.197 C 
HETATM   10  O7  UNL     1      -4.710   2.453  24.886  1.00  0.00    -0.372 OA
HETATM   11  C20 UNL     1      -4.587   3.461  25.790  1.00  0.00     0.151 A 
HETATM   12  C21 UNL     1      -4.042   4.743  25.126  1.00  0.00     0.038 A 
HETATM   13  C22 UNL     1      -4.048   4.789  23.646  1.00  0.00     0.014 C 
HETATM   14  C23 UNL     1      -3.216   4.010  26.051  1.00  0.00     0.107 A 
HETATM   15  C25 UNL     1      -2.192   2.921  25.821  1.00  0.00    -0.010 C 
ENDROOT
BRANCH   9  16
HETATM   16  C8  UNL     1      -3.558   0.710  23.821  1.00  0.00     0.183 C 
HETATM   17  O3  UNL     1      -3.818   1.362  22.640  1.00  0.00    -0.374 OA
HETATM   18  C9  UNL     1      -4.258   0.436  21.665  1.00  0.00     0.132 C 
HETATM   19  C17 UNL     1      -3.830  -0.855  22.158  1.00  0.00     0.042 C 
HETATM   20  C18 UNL     1      -4.407  -2.128  21.732  1.00  0.00     0.015 C 
HETATM   21  C19 UNL     1      -4.148  -0.686  23.673  1.00  0.00     0.156 C 
BRANCH  18  22
HETATM   22  C10 UNL     1      -5.642   0.710  21.244  1.00  0.00     0.060 C 
BRANCH  22  23
HETATM   23  C11 UNL     1      -5.902   0.832  19.825  1.00  0.00    -0.011 C 
HETATM   24  C12 UNL     1      -5.505   1.728  18.954  1.00  0.00     0.009 C 
HETATM   25  C13 UNL     1      -5.943   1.607  17.499  1.00  0.00     0.054 C 
BRANCH  24  26
HETATM   26  C14 UNL     1      -4.635   2.836  19.254  1.00  0.00     0.288 C 
HETATM   27  O4  UNL     1      -4.731   3.630  20.213  1.00  0.00    -0.260 OA
BRANCH  26  28
HETATM   28  O5  UNL     1      -3.546   3.091  18.399  1.00  0.00    -0.318 OA
BRANCH  28  29
HETATM   29  C15 UNL     1      -2.331   2.420  18.619  1.00  0.00     0.174 C 
HETATM   30  C16 UNL     1      -1.588   2.020  17.390  1.00  0.00     0.034 C 
ENDBRANCH  28  29
ENDBRANCH  26  28
ENDBRANCH  24  26
ENDBRANCH  22  23
ENDBRANCH  18  22
BRANCH  21  31
HETATM   31  O6  UNL     1      -5.473  -0.785  23.948  1.00  0.00    -0.392 OA
ATOM     32  H6  UNL     1      -5.846  -1.651  23.829  1.00  0.00     0.210 HD
ENDBRANCH  21  31
ENDBRANCH   9  16
BRANCH  15  33
HETATM   33  C26 UNL     1      -0.845   3.289  26.226  1.00  0.00    -0.056 C 
HETATM   34  C27 UNL     1      -0.357   4.543  25.902  1.00  0.00     0.020 C 
BRANCH  33  35
HETATM   35  C28 UNL     1       0.152   2.657  27.109  1.00  0.00     0.020 C 
HETATM   36  C29 UNL     1       1.580   3.037  26.636  1.00  0.00     0.015 C 
BRANCH  35  37
HETATM   37  C30 UNL     1       0.167   2.723  28.553  1.00  0.00     0.013 C 
HETATM   38  C31 UNL     1       0.858   3.837  29.240  1.00  0.00     0.012 C 
BRANCH  37  39
HETATM   39  C32 UNL     1       0.672   1.427  29.216  1.00  0.00     0.168 C 
BRANCH  39  40
HETATM   40  O10 UNL     1       1.806   1.611  29.961  1.00  0.00    -0.400 OA
ATOM     41  H10 UNL     1       1.700   2.260  30.647  1.00  0.00     0.209 HD
ENDBRANCH  39  40
ENDBRANCH  37  39
ENDBRANCH  35  37
ENDBRANCH  33  35
ENDBRANCH  15  33
BRANCH  14  42
HETATM   42  C24 UNL     1      -3.199   4.617  27.459  1.00  0.00     0.189 C 
HETATM   43  O8  UNL     1      -2.922   3.938  28.457  1.00  0.00    -0.647 OA
HETATM   44  O9  UNL     1      -3.498   5.932  27.595  1.00  0.00    -0.647 OA
ENDBRANCH  14  42
TORSDOF 13
ENDMDL
MODEL 4
REMARK VINA RESULT: -6.860084528      2.273      4.758
REMARK  13 active torsions:
REMARK  status: ('A' for Active; 'I' for Inactive)
REMARK    1  A    between atoms: C7_9  and  C8_10 
REMARK    2  A    between atoms: C9_12  and  C10_13 
REMARK    3  A    between atoms: C10_13  and  C11_14 
REMARK    4  A    between atoms: C12_15  and  C14_17 
REMARK    5  A    between atoms: C14_17  and  O5_19 
REMARK    6  A    between atoms: O5_19  and  C15_20 
REMARK    7  A    between atoms: C19_24  and  O6_25 
REMARK    8  A    between atoms: C23_31  and  C24_32 
REMARK    9  A    between atoms: C25_35  and  C26_36 
REMARK   10  A    between atoms: C26_36  and  C28_38 
REMARK   11  A    between atoms: C28_38  and  C30_40 
REMARK   12  A    between atoms: C30_40  and  C32_42 
REMARK   13  A    between atoms: C32_42  and  O10_43 
ROOT
HETATM    1  C1  UNL     1      -0.836   5.506  31.064  1.00  0.00     0.030 C 
HETATM    2  C2  UNL     1      -0.777   4.667  30.080  1.00  0.00     0.035 C 
HETATM    3  C3  UNL     1       0.315   4.192  29.263  1.00  0.00     0.294 C 
HETATM    4  O1  UNL     1       1.380   4.820  29.057  1.00  0.00    -0.259 OA
HETATM    5  O2  UNL     1      -0.035   2.978  28.782  1.00  0.00    -0.294 OA
HETATM    6  C4  UNL     1      -1.485   2.819  28.674  1.00  0.00     0.149 C 
HETATM    7  C5  UNL     1      -1.960   3.904  29.487  1.00  0.00    -0.026 C 
HETATM    8  C6  UNL     1      -3.141   3.910  30.332  1.00  0.00     0.048 C 
HETATM    9  C7  UNL     1      -1.718   3.180  27.182  1.00  0.00     0.197 C 
HETATM   10  O7  UNL     1      -1.134   2.333  26.313  1.00  0.00    -0.372 OA
HETATM   11  C20 UNL     1      -0.220   1.470  26.831  1.00  0.00     0.151 A 
HETATM   12  C21 UNL     1      -0.698   0.008  26.704  1.00  0.00     0.038 A 
HETATM   13  C22 UNL     1      -1.845  -0.249  25.802  1.00  0.00     0.014 C 
HETATM   14  C23 UNL     1      -0.630   0.628  28.003  1.00  0.00     0.107 A 
HETATM   15  C25 UNL     1      -1.676   1.369  28.806  1.00  0.00    -0.010 C 
ENDROOT
BRANCH   9  16
HETATM   16  C8  UNL     1      -3.083   3.544  26.794  1.00  0.00     0.183 C 
HETATM   17  O3  UNL     1      -3.854   2.595  26.170  1.00  0.00    -0.374 OA
HETATM   18  C9  UNL     1      -4.639   3.199  25.160  1.00  0.00     0.132 C 
HETATM   19  C17 UNL     1      -4.651   4.608  25.490  1.00  0.00     0.042 C 
HETATM   20  C18 UNL     1      -4.959   5.670  24.536  1.00  0.00     0.015 C 
HETATM   21  C19 UNL     1      -3.170   4.795  25.930  1.00  0.00     0.156 C 
BRANCH  18  22
HETATM   22  C10 UNL     1      -4.280   2.696  23.823  1.00  0.00     0.060 C 
BRANCH  22  23
HETATM   23  C11 UNL     1      -4.172   1.262  23.650  1.00  0.00    -0.011 C 
HETATM   24  C12 UNL     1      -4.349   0.510  22.591  1.00  0.00     0.009 C 
HETATM   25  C13 UNL     1      -4.169  -0.999  22.703  1.00  0.00     0.054 C 
BRANCH  24  26
HETATM   26  C14 UNL     1      -4.677   1.004  21.278  1.00  0.00     0.288 C 
HETATM   27  O4  UNL     1      -5.777   0.911  20.693  1.00  0.00    -0.260 OA
BRANCH  26  28
HETATM   28  O5  UNL     1      -3.682   1.668  20.537  1.00  0.00    -0.318 OA
BRANCH  28  29
HETATM   29  C15 UNL     1      -4.036   2.786  19.762  1.00  0.00     0.174 C 
HETATM   30  C16 UNL     1      -3.938   4.103  20.454  1.00  0.00     0.034 C 
ENDBRANCH  28  29
ENDBRANCH  26  28
ENDBRANCH  24  26
ENDBRANCH  22  23
ENDBRANCH  18  22
BRANCH  21  31
HETATM   31  O6  UNL     1      -2.308   4.832  24.882  1.00  0.00    -0.392 OA
ATOM     32  H6  UNL     1      -2.710   4.991  24.035  1.00  0.00     0.210 HD
ENDBRANCH  21  31
ENDBRANCH   9  16
BRANCH  15  33
HETATM   33  C26 UNL     1      -2.010   0.727  30.067  1.00  0.00    -0.056 C 
HETATM   34  C27 UNL     1      -1.391   1.153  31.230  1.00  0.00     0.020 C 
BRANCH  33  35
HETATM   35  C28 UNL     1      -3.050  -0.238  30.464  1.00  0.00     0.020 C 
HETATM   36  C29 UNL     1      -4.444   0.293  30.035  1.00  0.00     0.015 C 
BRANCH  35  37
HETATM   37  C30 UNL     1      -3.046  -1.655  30.175  1.00  0.00     0.013 C 
HETATM   38  C31 UNL     1      -1.846  -2.470  30.467  1.00  0.00     0.012 C 
BRANCH  37  39
HETATM   39  C32 UNL     1      -3.447  -1.981  28.724  1.00  0.00     0.168 C 
BRANCH  39  40
HETATM   40  O10 UNL     1      -3.425  -3.322  28.448  1.00  0.00    -0.400 OA
ATOM     41  H10 UNL     1      -3.665  -3.522  27.551  1.00  0.00     0.209 HD
ENDBRANCH  39  40
ENDBRANCH  37  39
ENDBRANCH  35  37
ENDBRANCH  33  35
ENDBRANCH  15  33
BRANCH  14  42
HETATM   42  C24 UNL     1       0.629   0.249  28.789  1.00  0.00     0.189 C 
HETATM   43  O8  UNL     1       1.288   1.094  29.410  1.00  0.00    -0.647 OA
HETATM   44  O9  UNL     1       1.017  -1.050  28.793  1.00  0.00    -0.647 OA
ENDBRANCH  14  42
TORSDOF 13
ENDMDL
MODEL 5
REMARK VINA RESULT: -6.786703311      1.512      2.016
REMARK  13 active torsions:
REMARK  status: ('A' for Active; 'I' for Inactive)
REMARK    1  A    between atoms: C7_9  and  C8_10 
REMARK    2  A    between atoms: C9_12  and  C10_13 
REMARK    3  A    between atoms: C10_13  and  C11_14 
REMARK    4  A    between atoms: C12_15  and  C14_17 
REMARK    5  A    between atoms: C14_17  and  O5_19 
REMARK    6  A    between atoms: O5_19  and  C15_20 
REMARK    7  A    between atoms: C19_24  and  O6_25 
REMARK    8  A    between atoms: C23_31  and  C24_32 
REMARK    9  A    between atoms: C25_35  and  C26_36 
REMARK   10  A    between atoms: C26_36  and  C28_38 
REMARK   11  A    between atoms: C28_38  and  C30_40 
REMARK   12  A    between atoms: C30_40  and  C32_42 
REMARK   13  A    between atoms: C32_42  and  O10_43 
ROOT
HETATM    1  C1  UNL     1      -2.924  -1.853  31.288  1.00  0.00     0.030 C 
HETATM    2  C2  UNL     1      -2.269  -1.038  30.524  1.00  0.00     0.035 C 
HETATM    3  C3  UNL     1      -0.906  -1.023  30.049  1.00  0.00     0.294 C 
HETATM    4  O1  UNL     1       0.059  -1.576  30.627  1.00  0.00    -0.259 OA
HETATM    5  O2  UNL     1      -0.884  -0.313  28.898  1.00  0.00    -0.294 OA
HETATM    6  C4  UNL     1      -1.958   0.677  28.835  1.00  0.00     0.149 C 
HETATM    7  C5  UNL     1      -2.834   0.227  29.880  1.00  0.00    -0.026 C 
HETATM    8  C6  UNL     1      -4.285   0.290  29.892  1.00  0.00     0.048 C 
HETATM    9  C7  UNL     1      -1.221   1.954  29.322  1.00  0.00     0.197 C 
HETATM   10  O7  UNL     1      -0.225   2.358  28.511  1.00  0.00    -0.372 OA
HETATM   11  C20 UNL     1       0.175   1.474  27.558  1.00  0.00     0.151 A 
HETATM   12  C21 UNL     1      -0.122   2.009  26.141  1.00  0.00     0.038 A 
HETATM   13  C22 UNL     1      -0.468   3.445  26.023  1.00  0.00     0.014 C 
HETATM   14  C23 UNL     1      -0.871   0.890  26.655  1.00  0.00     0.107 A 
HETATM   15  C25 UNL     1      -2.189   0.832  27.393  1.00  0.00    -0.010 C 
ENDROOT
BRANCH   9  16
HETATM   16  C8  UNL     1      -2.056   3.061  29.796  1.00  0.00     0.183 C 
HETATM   17  O3  UNL     1      -2.992   3.580  28.935  1.00  0.00    -0.374 OA
HETATM   18  C9  UNL     1      -3.060   4.985  29.086  1.00  0.00     0.132 C 
HETATM   19  C17 UNL     1      -2.458   5.250  30.375  1.00  0.00     0.042 C 
HETATM   20  C18 UNL     1      -1.921   6.547  30.778  1.00  0.00     0.015 C 
HETATM   21  C19 UNL     1      -1.267   4.249  30.329  1.00  0.00     0.156 C 
BRANCH  18  22
HETATM   22  C10 UNL     1      -2.648   5.682  27.856  1.00  0.00     0.060 C 
BRANCH  22  23
HETATM   23  C11 UNL     1      -3.366   5.373  26.636  1.00  0.00    -0.011 C 
HETATM   24  C12 UNL     1      -3.257   5.869  25.428  1.00  0.00     0.009 C 
HETATM   25  C13 UNL     1      -4.161   5.348  24.318  1.00  0.00     0.054 C 
BRANCH  24  26
HETATM   26  C14 UNL     1      -2.302   6.874  25.035  1.00  0.00     0.288 C 
HETATM   27  O4  UNL     1      -1.058   6.762  25.016  1.00  0.00    -0.260 OA
BRANCH  26  28
HETATM   28  O5  UNL     1      -2.776   8.133  24.625  1.00  0.00    -0.318 OA
BRANCH  28  29
HETATM   29  C15 UNL     1      -3.532   8.907  25.524  1.00  0.00     0.174 C 
HETATM   30  C16 UNL     1      -2.809   9.357  26.747  1.00  0.00     0.034 C 
ENDBRANCH  28  29
ENDBRANCH  26  28
ENDBRANCH  24  26
ENDBRANCH  22  23
ENDBRANCH  18  22
BRANCH  21  31
HETATM   31  O6  UNL     1      -0.253   4.672  29.533  1.00  0.00    -0.392 OA
ATOM     32  H6  UNL     1       0.057   5.553  29.709  1.00  0.00     0.210 HD
ENDBRANCH  21  31
ENDBRANCH   9  16
BRANCH  15  33
HETATM   33  C26 UNL     1      -3.230   0.112  26.678  1.00  0.00    -0.056 C 
HETATM   34  C27 UNL     1      -3.648  -1.121  27.148  1.00  0.00     0.020 C 
BRANCH  33  35
HETATM   35  C28 UNL     1      -4.134   0.478  25.573  1.00  0.00     0.020 C 
HETATM   36  C29 UNL     1      -4.571   1.959  25.727  1.00  0.00     0.015 C 
BRANCH  35  37
HETATM   37  C30 UNL     1      -3.878   0.271  24.165  1.00  0.00     0.013 C 
HETATM   38  C31 UNL     1      -4.282   1.296  23.177  1.00  0.00     0.012 C 
BRANCH  37  39
HETATM   39  C32 UNL     1      -4.421  -1.072  23.640  1.00  0.00     0.168 C 
BRANCH  39  40
HETATM   40  O10 UNL     1      -3.549  -2.112  23.823  1.00  0.00    -0.400 OA
ATOM     41  H10 UNL     1      -3.732  -2.855  23.260  1.00  0.00     0.209 HD
ENDBRANCH  39  40
ENDBRANCH  37  39
ENDBRANCH  35  37
ENDBRANCH  33  35
ENDBRANCH  15  33
BRANCH  14  42
HETATM   42  C24 UNL     1      -0.364  -0.462  26.142  1.00  0.00     0.189 C 
HETATM   43  O8  UNL     1      -1.048  -1.171  25.391  1.00  0.00    -0.647 OA
HETATM   44  O9  UNL     1       0.866  -0.877  26.531  1.00  0.00    -0.647 OA
ENDBRANCH  14  42
TORSDOF 13
ENDMDL
