MODEL 1
REMARK VINA RESULT: -7.168261106      0.000      0.000
REMARK  6 active torsions:
REMARK  status: ('A' for Active; 'I' for Inactive)
REMARK    1  A    between atoms: C2_2  and  O2_4 
REMARK    2  A    between atoms: O2_4  and  C3_5 
REMARK    3  A    between atoms: C7_10  and  C8_11 
REMARK    4  A    between atoms: C8_11  and  N1_12 
REMARK    5  A    between atoms: N1_12  and  C9_14 
REMARK    6  A    between atoms: C13_20  and  C14_21 
ROOT
HETATM    1  C3  UNL     1      -2.089  -0.405  23.908  1.00  0.00     0.151 C 
HETATM    2  C4  UNL     1      -2.142  -0.016  22.651  1.00  0.00    -0.022 C 
HETATM    3  C5  UNL     1      -1.793  -0.964  21.561  1.00  0.00     0.114 C 
HETATM    4  S1  UNL     1      -3.078  -0.911  20.247  1.00  0.00    -0.138 SA
HETATM    5  C6  UNL     1      -4.039   0.604  20.607  1.00  0.00     0.165 C 
HETATM    6  C7  UNL     1      -4.333   1.454  19.433  1.00  0.00     0.128 C 
HETATM    7  C12 UNL     1      -3.090   2.143  19.740  1.00  0.00     0.230 C 
HETATM    8  O3  UNL     1      -2.342   2.953  19.110  1.00  0.00    -0.273 OA
HETATM    9  N2  UNL     1      -3.015   1.569  21.032  1.00  0.00    -0.325 N 
HETATM   10  C13 UNL     1      -2.565   1.387  22.392  1.00  0.00     0.144 C 
ENDROOT
BRANCH   6  11
HETATM   11  C8  UNL     1      -4.365   0.616  18.159  1.00  0.00     0.131 C 
BRANCH  11  12
HETATM   12  N1  UNL     1      -3.236   0.899  17.334  1.00  0.00    -0.417 N 
ATOM     13  H1  UNL     1      -2.278   0.731  17.642  1.00  0.00     0.153 HD
BRANCH  12  14
HETATM   14  C9  UNL     1      -3.537   1.432  16.054  1.00  0.00     0.068 C 
HETATM   15  C10 UNL     1      -2.510   2.379  15.497  1.00  0.00     0.031 C 
HETATM   16  C11 UNL     1      -4.879   2.123  15.984  1.00  0.00     0.031 C 
ENDBRANCH  12  14
ENDBRANCH  11  12
ENDBRANCH   6  11
BRANCH  10  17
HETATM   17  C14 UNL     1      -1.576   2.365  22.847  1.00  0.00     0.010 C 
HETATM   18  C15 UNL     1      -1.899   3.213  23.810  1.00  0.00     0.054 C 
HETATM   19 BR1  UNL     1      -3.617   3.210  24.635  1.00  0.00    -0.064 Br
ENDBRANCH  10  17
BRANCH   1  20
HETATM   20  O2  UNL     1      -1.703  -1.709  24.176  1.00  0.00    -0.291 OA
BRANCH  20  21
HETATM   21  C2  UNL     1      -0.535  -2.053  24.833  1.00  0.00     0.259 C 
HETATM   22  C1  UNL     1       0.689  -1.212  24.786  1.00  0.00     0.126 C 
HETATM   23  O1  UNL     1      -0.499  -3.116  25.496  1.00  0.00    -0.265 OA
ENDBRANCH  20  21
ENDBRANCH   1  20
TORSDOF 6
ENDMDL
MODEL 2
REMARK VINA RESULT: -6.569865731      1.533      1.968
REMARK  6 active torsions:
REMARK  status: ('A' for Active; 'I' for Inactive)
REMARK    1  A    between atoms: C2_2  and  O2_4 
REMARK    2  A    between atoms: O2_4  and  C3_5 
REMARK    3  A    between atoms: C7_10  and  C8_11 
REMARK    4  A    between atoms: C8_11  and  N1_12 
REMARK    5  A    between atoms: N1_12  and  C9_14 
REMARK    6  A    between atoms: C13_20  and  C14_21 
ROOT
HETATM    1  C3  UNL     1      -1.342  -0.156  25.153  1.00  0.00     0.151 C 
HETATM    2  C4  UNL     1      -1.462   0.037  23.856  1.00  0.00    -0.022 C 
HETATM    3  C5  UNL     1      -0.996  -1.000  22.900  1.00  0.00     0.114 C 
HETATM    4  S1  UNL     1      -2.289  -1.311  21.631  1.00  0.00    -0.138 SA
HETATM    5  C6  UNL     1      -3.449   0.094  21.804  1.00  0.00     0.165 C 
HETATM    6  C7  UNL     1      -3.871   0.719  20.532  1.00  0.00     0.128 C 
HETATM    7  C12 UNL     1      -2.733   1.609  20.702  1.00  0.00     0.230 C 
HETATM    8  O3  UNL     1      -2.112   2.414  19.942  1.00  0.00    -0.273 OA
HETATM    9  N2  UNL     1      -2.565   1.240  22.058  1.00  0.00    -0.325 N 
HETATM   10  C13 UNL     1      -2.079   1.317  23.416  1.00  0.00     0.144 C 
ENDROOT
BRANCH   6  11
HETATM   11  C8  UNL     1      -3.799  -0.289  19.390  1.00  0.00     0.131 C 
BRANCH  11  12
HETATM   12  N1  UNL     1      -3.856   0.369  18.125  1.00  0.00    -0.417 N 
ATOM     13  H1  UNL     1      -3.155   0.219  17.399  1.00  0.00     0.153 HD
BRANCH  12  14
HETATM   14  C9  UNL     1      -4.956   1.247  17.946  1.00  0.00     0.068 C 
HETATM   15  C10 UNL     1      -6.306   0.585  17.930  1.00  0.00     0.031 C 
HETATM   16  C11 UNL     1      -4.853   2.105  16.707  1.00  0.00     0.031 C 
ENDBRANCH  12  14
ENDBRANCH  11  12
ENDBRANCH   6  11
BRANCH  10  17
HETATM   17  C14 UNL     1      -1.232   2.477  23.699  1.00  0.00     0.010 C 
HETATM   18  C15 UNL     1      -1.641   3.381  24.576  1.00  0.00     0.054 C 
HETATM   19 BR1  UNL     1      -3.307   3.230  25.491  1.00  0.00    -0.064 Br
ENDBRANCH  10  17
BRANCH   1  20
HETATM   20  O2  UNL     1      -0.774  -1.343  25.589  1.00  0.00    -0.291 OA
BRANCH  20  21
HETATM   21  C2  UNL     1      -0.499  -1.631  26.914  1.00  0.00     0.259 C 
HETATM   22  C1  UNL     1      -1.352  -2.530  27.733  1.00  0.00     0.126 C 
HETATM   23  O1  UNL     1       0.509  -1.117  27.454  1.00  0.00    -0.265 OA
ENDBRANCH  20  21
ENDBRANCH   1  20
TORSDOF 6
ENDMDL
MODEL 3
REMARK VINA RESULT: -6.450480261      2.732      3.441
REMARK  6 active torsions:
REMARK  status: ('A' for Active; 'I' for Inactive)
REMARK    1  A    between atoms: C2_2  and  O2_4 
REMARK    2  A    between atoms: O2_4  and  C3_5 
REMARK    3  A    between atoms: C7_10  and  C8_11 
REMARK    4  A    between atoms: C8_11  and  N1_12 
REMARK    5  A    between atoms: N1_12  and  C9_14 
REMARK    6  A    between atoms: C13_20  and  C14_21 
ROOT
HETATM    1  C3  UNL     1      -1.717   1.579  24.301  1.00  0.00     0.151 C 
HETATM    2  C4  UNL     1      -2.369   1.756  23.171  1.00  0.00    -0.022 C 
HETATM    3  C5  UNL     1      -2.460   3.110  22.565  1.00  0.00     0.114 C 
HETATM    4  S1  UNL     1      -2.051   3.025  20.775  1.00  0.00    -0.138 SA
HETATM    5  C6  UNL     1      -2.122   1.241  20.372  1.00  0.00     0.165 C 
HETATM    6  C7  UNL     1      -2.843   0.908  19.124  1.00  0.00     0.128 C 
HETATM    7  C12 UNL     1      -4.030   0.790  19.955  1.00  0.00     0.230 C 
HETATM    8  O3  UNL     1      -5.278   0.736  19.722  1.00  0.00    -0.273 OA
HETATM    9  N2  UNL     1      -3.271   0.758  21.149  1.00  0.00    -0.325 N 
HETATM   10  C13 UNL     1      -2.988   0.553  22.550  1.00  0.00     0.144 C 
ENDROOT
BRANCH   6  11
HETATM   11  C8  UNL     1      -2.793   2.079  18.147  1.00  0.00     0.131 C 
BRANCH  11  12
HETATM   12  N1  UNL     1      -4.104   2.437  17.714  1.00  0.00    -0.417 N 
ATOM     13  H1  UNL     1      -4.827   2.751  18.362  1.00  0.00     0.153 HD
BRANCH  12  14
HETATM   14  C9  UNL     1      -4.334   2.327  16.319  1.00  0.00     0.068 C 
HETATM   15  C10 UNL     1      -5.698   1.824  15.933  1.00  0.00     0.031 C 
HETATM   16  C11 UNL     1      -3.314   1.474  15.601  1.00  0.00     0.031 C 
ENDBRANCH  12  14
ENDBRANCH  11  12
ENDBRANCH   6  11
BRANCH  10  17
HETATM   17  C14 UNL     1      -4.110   0.031  23.333  1.00  0.00     0.010 C 
HETATM   18  C15 UNL     1      -4.033  -1.189  23.840  1.00  0.00     0.054 C 
HETATM   19 BR1  UNL     1      -2.507  -2.303  23.589  1.00  0.00    -0.064 Br
ENDBRANCH  10  17
BRANCH   1  20
HETATM   20  O2  UNL     1      -1.126   2.683  24.897  1.00  0.00    -0.291 OA
BRANCH  20  21
HETATM   21  C2  UNL     1       0.239   2.843  25.053  1.00  0.00     0.259 C 
HETATM   22  C1  UNL     1       0.867   4.163  25.316  1.00  0.00     0.126 C 
HETATM   23  O1  UNL     1       0.984   1.838  24.969  1.00  0.00    -0.265 OA
ENDBRANCH  20  21
ENDBRANCH   1  20
TORSDOF 6
ENDMDL
MODEL 4
REMARK VINA RESULT: -6.422262672      2.801      3.694
REMARK  6 active torsions:
REMARK  status: ('A' for Active; 'I' for Inactive)
REMARK    1  A    between atoms: C2_2  and  O2_4 
REMARK    2  A    between atoms: O2_4  and  C3_5 
REMARK    3  A    between atoms: C7_10  and  C8_11 
REMARK    4  A    between atoms: C8_11  and  N1_12 
REMARK    5  A    between atoms: N1_12  and  C9_14 
REMARK    6  A    between atoms: C13_20  and  C14_21 
ROOT
HETATM    1  C3  UNL     1      -1.644   1.662  24.247  1.00  0.00     0.151 C 
HETATM    2  C4  UNL     1      -2.304   1.830  23.120  1.00  0.00    -0.022 C 
HETATM    3  C5  UNL     1      -2.383   3.175  22.493  1.00  0.00     0.114 C 
HETATM    4  S1  UNL     1      -1.991   3.055  20.701  1.00  0.00    -0.138 SA
HETATM    5  C6  UNL     1      -2.090   1.267  20.327  1.00  0.00     0.165 C 
HETATM    6  C7  UNL     1      -2.828   0.924  19.092  1.00  0.00     0.128 C 
HETATM    7  C12 UNL     1      -4.009   0.836  19.936  1.00  0.00     0.230 C 
HETATM    8  O3  UNL     1      -5.259   0.795  19.715  1.00  0.00    -0.273 OA
HETATM    9  N2  UNL     1      -3.239   0.813  21.123  1.00  0.00    -0.325 N 
HETATM   10  C13 UNL     1      -2.946   0.626  22.525  1.00  0.00     0.144 C 
ENDROOT
BRANCH   6  11
HETATM   11  C8  UNL     1      -2.770   2.078  18.096  1.00  0.00     0.131 C 
BRANCH  11  12
HETATM   12  N1  UNL     1      -4.081   2.453  17.675  1.00  0.00    -0.417 N 
ATOM     13  H1  UNL     1      -4.786   2.800  18.326  1.00  0.00     0.153 HD
BRANCH  12  14
HETATM   14  C9  UNL     1      -4.337   2.310  16.287  1.00  0.00     0.068 C 
HETATM   15  C10 UNL     1      -5.722   1.838  15.937  1.00  0.00     0.031 C 
HETATM   16  C11 UNL     1      -3.355   1.408  15.578  1.00  0.00     0.031 C 
ENDBRANCH  12  14
ENDBRANCH  11  12
ENDBRANCH   6  11
BRANCH  10  17
HETATM   17  C14 UNL     1      -4.068   0.133  23.326  1.00  0.00     0.010 C 
HETATM   18  C15 UNL     1      -4.004  -1.080  23.852  1.00  0.00     0.054 C 
HETATM   19 BR1  UNL     1      -2.496  -2.219  23.605  1.00  0.00    -0.064 Br
ENDBRANCH  10  17
BRANCH   1  20
HETATM   20  O2  UNL     1      -1.033   2.767  24.819  1.00  0.00    -0.291 OA
BRANCH  20  21
HETATM   21  C2  UNL     1      -1.506   3.420  25.944  1.00  0.00     0.259 C 
HETATM   22  C1  UNL     1      -2.927   3.355  26.370  1.00  0.00     0.126 C 
HETATM   23  O1  UNL     1      -0.709   4.096  26.637  1.00  0.00    -0.265 OA
ENDBRANCH  20  21
ENDBRANCH   1  20
TORSDOF 6
ENDMDL
MODEL 5
REMARK VINA RESULT: -6.375028445      3.310      7.183
REMARK  6 active torsions:
REMARK  status: ('A' for Active; 'I' for Inactive)
REMARK    1  A    between atoms: C2_2  and  O2_4 
REMARK    2  A    between atoms: O2_4  and  C3_5 
REMARK    3  A    between atoms: C7_10  and  C8_11 
REMARK    4  A    between atoms: C8_11  and  N1_12 
REMARK    5  A    between atoms: N1_12  and  C9_14 
REMARK    6  A    between atoms: C13_20  and  C14_21 
ROOT
HETATM    1  C3  UNL     1      -3.797   0.425  21.139  1.00  0.00     0.151 C 
HETATM    2  C4  UNL     1      -2.687   0.865  21.695  1.00  0.00    -0.022 C 
HETATM    3  C5  UNL     1      -2.079   2.142  21.237  1.00  0.00     0.114 C 
HETATM    4  S1  UNL     1      -1.650   3.188  22.686  1.00  0.00    -0.138 SA
HETATM    5  C6  UNL     1      -1.746   2.051  24.117  1.00  0.00     0.165 C 
HETATM    6  C7  UNL     1      -0.620   2.148  25.071  1.00  0.00     0.128 C 
HETATM    7  C12 UNL     1       0.023   1.119  24.269  1.00  0.00     0.230 C 
HETATM    8  O3  UNL     1       1.206   0.666  24.184  1.00  0.00    -0.273 OA
HETATM    9  N2  UNL     1      -1.182   0.797  23.599  1.00  0.00    -0.325 N 
HETATM   10  C13 UNL     1      -2.096   0.037  22.780  1.00  0.00     0.144 C 
ENDROOT
BRANCH   6  11
HETATM   11  C8  UNL     1      -0.004   3.543  25.034  1.00  0.00     0.131 C 
BRANCH  11  12
HETATM   12  N1  UNL     1       1.390   3.492  25.335  1.00  0.00    -0.417 N 
ATOM     13  H1  UNL     1       1.944   2.643  25.217  1.00  0.00     0.153 HD
BRANCH  12  14
HETATM   14  C9  UNL     1       1.953   4.704  25.809  1.00  0.00     0.068 C 
HETATM   15  C10 UNL     1       1.330   5.251  27.064  1.00  0.00     0.031 C 
HETATM   16  C11 UNL     1       1.960   5.813  24.782  1.00  0.00     0.031 C 
ENDBRANCH  12  14
ENDBRANCH  11  12
ENDBRANCH   6  11
BRANCH  10  17
HETATM   17  C14 UNL     1      -1.566  -1.237  22.289  1.00  0.00     0.010 C 
HETATM   18  C15 UNL     1      -1.745  -2.334  23.009  1.00  0.00     0.054 C 
HETATM   19 BR1  UNL     1      -2.673  -2.319  24.674  1.00  0.00    -0.064 Br
ENDBRANCH  10  17
BRANCH   1  20
HETATM   20  O2  UNL     1      -4.370   1.181  20.129  1.00  0.00    -0.291 OA
BRANCH  20  21
HETATM   21  C2  UNL     1      -4.831   0.658  18.934  1.00  0.00     0.259 C 
HETATM   22  C1  UNL     1      -6.259   0.718  18.531  1.00  0.00     0.126 C 
HETATM   23  O1  UNL     1      -4.017   0.109  18.155  1.00  0.00    -0.265 OA
ENDBRANCH  20  21
ENDBRANCH   1  20
TORSDOF 6
ENDMDL
