MODEL 1
REMARK VINA RESULT: -6.337289396      0.000      0.000
REMARK  7 active torsions:
REMARK  status: ('A' for Active; 'I' for Inactive)
REMARK    1  A    between atoms: N1_1  and  C1_4 
REMARK    2  A    between atoms: N3_8  and  C3_9 
REMARK    3  A    between atoms: C4_12  and  C5_13 
REMARK    4  A    between atoms: C5_13  and  N6_14 
REMARK    5  A    between atoms: N6_14  and  C6_16 
REMARK    6  A    between atoms: C6_16  and  C7_17 
REMARK    7  A    between atoms: C7_17  and  O1_18 
ROOT
HETATM    1  C3  UNL     1      27.173  -9.738  14.533  1.00  0.00     0.377 C 
HETATM    2  N4  UNL     1      28.338  -9.208  15.211  1.00  0.00    -0.089 NA
HETATM    3  N5  UNL     1      29.155 -10.340  15.300  1.00  0.00    -0.106 NA
HETATM    4  C4  UNL     1      28.289 -11.493  15.171  1.00  0.00     0.273 C 
HETATM    5  O2  UNL     1      26.978 -10.927  15.237  1.00  0.00    -0.321 OA
ENDROOT
BRANCH   1   6
HETATM    6  N3  UNL     1      26.000  -8.892  14.640  1.00  0.00    -0.184 N 
HETATM    7  N2  UNL     1      25.705  -7.890  13.825  1.00  0.00    -0.288 N 
HETATM    8  C2  UNL     1      24.573  -7.326  14.226  1.00  0.00     0.158 A 
ATOM      9  H2  UNL     1      26.259  -7.599  13.019  1.00  0.00     0.188 HD
HETATM   10  C1  UNL     1      24.144  -8.009  15.340  1.00  0.00     0.132 A 
HETATM   11  N7  UNL     1      25.075  -8.988  15.562  1.00  0.00    -0.264 N 
ATOM     12  H7  UNL     1      25.052  -9.674  16.317  1.00  0.00     0.190 HD
BRANCH  10  13
HETATM   13  N1  UNL     1      23.068  -7.753  16.020  1.00  0.00    -0.383 N 
ATOM     14  H12 UNL     1      22.992  -7.388  16.969  1.00  0.00     0.157 HD
ATOM     15  H11 UNL     1      22.111  -7.886  15.694  1.00  0.00     0.157 HD
ENDBRANCH  10  13
ENDBRANCH   1   6
BRANCH   4  16
HETATM   16  C5  UNL     1      28.456 -12.480  16.294  1.00  0.00     0.106 C 
BRANCH  16  17
HETATM   17  N6  UNL     1      29.427 -13.446  16.072  1.00  0.00    -0.397 N 
ATOM     18  H6  UNL     1      29.453 -13.909  15.163  1.00  0.00     0.158 HD
BRANCH  17  19
HETATM   19  C6  UNL     1      30.374 -13.817  17.041  1.00  0.00     0.145 C 
BRANCH  19  20
HETATM   20  C7  UNL     1      31.772 -13.285  16.667  1.00  0.00     0.183 C 
BRANCH  20  21
HETATM   21  O1  UNL     1      31.647 -11.900  16.526  1.00  0.00    -0.399 OA
ATOM     22  H1  UNL     1      32.166 -11.657  15.769  1.00  0.00     0.209 HD
ENDBRANCH  20  21
ENDBRANCH  19  20
ENDBRANCH  17  19
ENDBRANCH  16  17
ENDBRANCH   4  16
TORSDOF 7
ENDMDL
MODEL 2
REMARK VINA RESULT: -6.327358557      0.871      1.222
REMARK  7 active torsions:
REMARK  status: ('A' for Active; 'I' for Inactive)
REMARK    1  A    between atoms: N1_1  and  C1_4 
REMARK    2  A    between atoms: N3_8  and  C3_9 
REMARK    3  A    between atoms: C4_12  and  C5_13 
REMARK    4  A    between atoms: C5_13  and  N6_14 
REMARK    5  A    between atoms: N6_14  and  C6_16 
REMARK    6  A    between atoms: C6_16  and  C7_17 
REMARK    7  A    between atoms: C7_17  and  O1_18 
ROOT
HETATM    1  C3  UNL     1      27.376 -10.169  14.512  1.00  0.00     0.377 C 
HETATM    2  N4  UNL     1      28.394  -9.541  15.329  1.00  0.00    -0.089 NA
HETATM    3  N5  UNL     1      29.304 -10.588  15.507  1.00  0.00    -0.106 NA
HETATM    4  C4  UNL     1      28.578 -11.819  15.265  1.00  0.00     0.273 C 
HETATM    5  O2  UNL     1      27.219 -11.385  15.178  1.00  0.00    -0.321 OA
ENDROOT
BRANCH   1   6
HETATM    6  N3  UNL     1      26.120  -9.445  14.484  1.00  0.00    -0.184 N 
HETATM    7  N2  UNL     1      24.972  -9.889  14.976  1.00  0.00    -0.288 N 
HETATM    8  C2  UNL     1      24.031  -8.979  14.764  1.00  0.00     0.158 A 
ATOM      9  H2  UNL     1      24.835 -10.786  15.443  1.00  0.00     0.188 HD
HETATM   10  C1  UNL     1      24.619  -7.922  14.110  1.00  0.00     0.132 A 
HETATM   11  N7  UNL     1      25.936  -8.261  13.957  1.00  0.00    -0.264 N 
ATOM     12  H7  UNL     1      26.652  -7.689  13.509  1.00  0.00     0.190 HD
BRANCH  10  13
HETATM   13  N1  UNL     1      24.019  -6.835  13.730  1.00  0.00    -0.383 N 
ATOM     14  H12 UNL     1      23.741  -6.035  14.298  1.00  0.00     0.157 HD
ATOM     15  H11 UNL     1      23.727  -6.616  12.777  1.00  0.00     0.157 HD
ENDBRANCH  10  13
ENDBRANCH   1   6
BRANCH   4  16
HETATM   16  C5  UNL     1      28.708 -12.806  16.392  1.00  0.00     0.106 C 
BRANCH  16  17
HETATM   17  N6  UNL     1      29.728 -13.733  16.231  1.00  0.00    -0.397 N 
ATOM     18  H6  UNL     1      29.790 -14.240  15.348  1.00  0.00     0.158 HD
BRANCH  17  19
HETATM   19  C6  UNL     1      30.679 -14.007  17.228  1.00  0.00     0.145 C 
BRANCH  19  20
HETATM   20  C7  UNL     1      32.069 -13.486  16.812  1.00  0.00     0.183 C 
BRANCH  20  21
HETATM   21  O1  UNL     1      31.910 -12.134  16.495  1.00  0.00    -0.399 OA
ATOM     22  H1  UNL     1      32.370 -11.991  15.676  1.00  0.00     0.209 HD
ENDBRANCH  20  21
ENDBRANCH  19  20
ENDBRANCH  17  19
ENDBRANCH  16  17
ENDBRANCH   4  16
TORSDOF 7
ENDMDL
MODEL 3
REMARK VINA RESULT: -6.219271978      2.054      6.643
REMARK  7 active torsions:
REMARK  status: ('A' for Active; 'I' for Inactive)
REMARK    1  A    between atoms: N1_1  and  C1_4 
REMARK    2  A    between atoms: N3_8  and  C3_9 
REMARK    3  A    between atoms: C4_12  and  C5_13 
REMARK    4  A    between atoms: C5_13  and  N6_14 
REMARK    5  A    between atoms: N6_14  and  C6_16 
REMARK    6  A    between atoms: C6_16  and  C7_17 
REMARK    7  A    between atoms: C7_17  and  O1_18 
ROOT
HETATM    1  C3  UNL     1      28.284 -11.488  16.463  1.00  0.00     0.377 C 
HETATM    2  N4  UNL     1      29.425 -10.941  15.759  1.00  0.00    -0.089 NA
HETATM    3  N5  UNL     1      28.892  -9.766  15.219  1.00  0.00    -0.106 NA
HETATM    4  C4  UNL     1      27.454  -9.938  15.181  1.00  0.00     0.273 C 
HETATM    5  O2  UNL     1      27.281 -11.319  15.508  1.00  0.00    -0.321 OA
ENDROOT
BRANCH   1   6
HETATM    6  N3  UNL     1      28.423 -12.891  16.803  1.00  0.00    -0.184 N 
HETATM    7  N2  UNL     1      27.498 -13.625  17.405  1.00  0.00    -0.288 N 
HETATM    8  C2  UNL     1      27.967 -14.855  17.574  1.00  0.00     0.158 A 
ATOM      9  H2  UNL     1      26.575 -13.298  17.690  1.00  0.00     0.188 HD
HETATM   10  C1  UNL     1      29.241 -14.886  17.055  1.00  0.00     0.132 A 
HETATM   11  N7  UNL     1      29.483 -13.626  16.579  1.00  0.00    -0.264 N 
ATOM     12  H7  UNL     1      30.343 -13.313  16.128  1.00  0.00     0.190 HD
BRANCH  10  13
HETATM   13  N1  UNL     1      30.027 -15.919  17.034  1.00  0.00    -0.383 N 
ATOM     14  H12 UNL     1      30.992 -15.985  17.355  1.00  0.00     0.157 HD
ATOM     15  H11 UNL     1      29.785 -16.844  16.680  1.00  0.00     0.157 HD
ENDBRANCH  10  13
ENDBRANCH   1   6
BRANCH   4  16
HETATM   16  C5  UNL     1      26.869  -9.677  13.820  1.00  0.00     0.106 C 
BRANCH  16  17
HETATM   17  N6  UNL     1      26.614  -8.340  13.550  1.00  0.00    -0.397 N 
ATOM     18  H6  UNL     1      27.075  -7.909  12.748  1.00  0.00     0.158 HD
BRANCH  17  19
HETATM   19  C6  UNL     1      25.750  -7.552  14.329  1.00  0.00     0.145 C 
BRANCH  19  20
HETATM   20  C7  UNL     1      24.325  -8.140  14.325  1.00  0.00     0.183 C 
BRANCH  20  21
HETATM   21  O1  UNL     1      23.841  -8.002  13.021  1.00  0.00    -0.399 OA
ATOM     22  H1  UNL     1      23.135  -8.632  12.926  1.00  0.00     0.209 HD
ENDBRANCH  20  21
ENDBRANCH  19  20
ENDBRANCH  17  19
ENDBRANCH  16  17
ENDBRANCH   4  16
TORSDOF 7
ENDMDL
MODEL 4
REMARK VINA RESULT: -6.193015664      2.049      6.486
REMARK  7 active torsions:
REMARK  status: ('A' for Active; 'I' for Inactive)
REMARK    1  A    between atoms: N1_1  and  C1_4 
REMARK    2  A    between atoms: N3_8  and  C3_9 
REMARK    3  A    between atoms: C4_12  and  C5_13 
REMARK    4  A    between atoms: C5_13  and  N6_14 
REMARK    5  A    between atoms: N6_14  and  C6_16 
REMARK    6  A    between atoms: C6_16  and  C7_17 
REMARK    7  A    between atoms: C7_17  and  O1_18 
ROOT
HETATM    1  C3  UNL     1      28.296 -11.477  16.473  1.00  0.00     0.377 C 
HETATM    2  N4  UNL     1      29.434 -10.932  15.763  1.00  0.00    -0.089 NA
HETATM    3  N5  UNL     1      28.897  -9.762  15.217  1.00  0.00    -0.106 NA
HETATM    4  C4  UNL     1      27.459  -9.939  15.183  1.00  0.00     0.273 C 
HETATM    5  O2  UNL     1      27.291 -11.317  15.519  1.00  0.00    -0.321 OA
ENDROOT
BRANCH   1   6
HETATM    6  N3  UNL     1      28.441 -12.878  16.822  1.00  0.00    -0.184 N 
HETATM    7  N2  UNL     1      29.529 -13.606  16.617  1.00  0.00    -0.288 N 
HETATM    8  C2  UNL     1      29.305 -14.844  17.041  1.00  0.00     0.158 A 
ATOM      9  H2  UNL     1      30.397 -13.270  16.202  1.00  0.00     0.188 HD
HETATM   10  C1  UNL     1      28.020 -14.886  17.530  1.00  0.00     0.132 A 
HETATM   11  N7  UNL     1      27.516 -13.624  17.372  1.00  0.00    -0.264 N 
ATOM     12  H7  UNL     1      26.581 -13.316  17.638  1.00  0.00     0.190 HD
BRANCH  10  13
HETATM   13  N1  UNL     1      27.434 -15.929  18.036  1.00  0.00    -0.383 N 
ATOM     14  H12 UNL     1      27.824 -16.627  18.668  1.00  0.00     0.157 HD
ATOM     15  H11 UNL     1      26.469 -16.211  17.867  1.00  0.00     0.157 HD
ENDBRANCH  10  13
ENDBRANCH   1   6
BRANCH   4  16
HETATM   16  C5  UNL     1      26.870  -9.688  13.822  1.00  0.00     0.106 C 
BRANCH  16  17
HETATM   17  N6  UNL     1      26.627  -8.352  13.536  1.00  0.00    -0.397 N 
ATOM     18  H6  UNL     1      27.097  -7.933  12.734  1.00  0.00     0.158 HD
BRANCH  17  19
HETATM   19  C6  UNL     1      25.765  -7.550  14.303  1.00  0.00     0.145 C 
BRANCH  19  20
HETATM   20  C7  UNL     1      24.337  -8.132  14.303  1.00  0.00     0.183 C 
BRANCH  20  21
HETATM   21  O1  UNL     1      23.852  -8.001  12.999  1.00  0.00    -0.399 OA
ATOM     22  H1  UNL     1      22.904  -7.974  13.064  1.00  0.00     0.209 HD
ENDBRANCH  20  21
ENDBRANCH  19  20
ENDBRANCH  17  19
ENDBRANCH  16  17
ENDBRANCH   4  16
TORSDOF 7
ENDMDL
MODEL 5
REMARK VINA RESULT: -6.177464186      2.683      7.431
REMARK  7 active torsions:
REMARK  status: ('A' for Active; 'I' for Inactive)
REMARK    1  A    between atoms: N1_1  and  C1_4 
REMARK    2  A    between atoms: N3_8  and  C3_9 
REMARK    3  A    between atoms: C4_12  and  C5_13 
REMARK    4  A    between atoms: C5_13  and  N6_14 
REMARK    5  A    between atoms: N6_14  and  C6_16 
REMARK    6  A    between atoms: C6_16  and  C7_17 
REMARK    7  A    between atoms: C7_17  and  O1_18 
ROOT
HETATM    1  C3  UNL     1      30.100 -13.519  16.287  1.00  0.00     0.377 C 
HETATM    2  N4  UNL     1      30.805 -12.265  16.450  1.00  0.00    -0.089 NA
HETATM    3  N5  UNL     1      29.749 -11.350  16.515  1.00  0.00    -0.106 NA
HETATM    4  C4  UNL     1      28.604 -11.988  15.897  1.00  0.00     0.273 C 
HETATM    5  O2  UNL     1      29.162 -13.168  15.315  1.00  0.00    -0.321 OA
ENDROOT
BRANCH   1   6
HETATM    6  N3  UNL     1      30.937 -14.603  15.810  1.00  0.00    -0.184 N 
HETATM    7  N2  UNL     1      32.204 -14.794  16.150  1.00  0.00    -0.288 N 
HETATM    8  C2  UNL     1      32.663 -15.865  15.516  1.00  0.00     0.158 A 
ATOM      9  H2  UNL     1      32.739 -14.212  16.794  1.00  0.00     0.188 HD
HETATM   10  C1  UNL     1      31.637 -16.362  14.747  1.00  0.00     0.132 A 
HETATM   11  N7  UNL     1      30.569 -15.534  14.967  1.00  0.00    -0.264 N 
ATOM     12  H7  UNL     1      29.645 -15.627  14.545  1.00  0.00     0.190 HD
BRANCH  10  13
HETATM   13  N1  UNL     1      31.699 -17.409  13.982  1.00  0.00    -0.383 N 
ATOM     14  H12 UNL     1      31.253 -18.316  14.114  1.00  0.00     0.157 HD
ATOM     15  H11 UNL     1      32.222 -17.479  13.109  1.00  0.00     0.157 HD
ENDBRANCH  10  13
ENDBRANCH   1   6
BRANCH   4  16
HETATM   16  C5  UNL     1      27.981 -11.152  14.813  1.00  0.00     0.106 C 
BRANCH  16  17
HETATM   17  N6  UNL     1      28.567  -9.905  14.640  1.00  0.00    -0.397 N 
ATOM     18  H6  UNL     1      29.561  -9.862  14.417  1.00  0.00     0.158 HD
BRANCH  17  19
HETATM   19  C6  UNL     1      27.852  -8.701  14.757  1.00  0.00     0.145 C 
BRANCH  19  20
HETATM   20  C7  UNL     1      26.478  -8.814  14.067  1.00  0.00     0.183 C 
BRANCH  20  21
HETATM   21  O1  UNL     1      26.702  -8.627  12.700  1.00  0.00    -0.399 OA
ATOM     22  H1  UNL     1      27.333  -7.921  12.623  1.00  0.00     0.209 HD
ENDBRANCH  20  21
ENDBRANCH  19  20
ENDBRANCH  17  19
ENDBRANCH  16  17
ENDBRANCH   4  16
TORSDOF 7
ENDMDL
