MODEL 1
REMARK VINA RESULT: -5.424888897      0.000      0.000
REMARK  7 active torsions:
REMARK  status: ('A' for Active; 'I' for Inactive)
REMARK    1  A    between atoms: N1_2  and  C3_4 
REMARK    2  A    between atoms: C4_7  and  N3_8 
REMARK    3  A    between atoms: N5_14  and  N6_16 
REMARK    4  A    between atoms: N6_16  and  C6_18 
REMARK    5  A    between atoms: C6_18  and  C7_19 
REMARK    6  A    between atoms: C7_19  and  N7_20 
REMARK    7  A    between atoms: N7_20  and  N8_21 
ROOT
HETATM    1  C3  UNL     1      22.943 -11.019  15.645  1.00  0.00     0.708 A 
HETATM    2  N2  UNL     1      22.187 -10.048  16.172  1.00  0.00    -0.022 N 
ATOM      3  H2  UNL     1      21.265 -10.280  16.542  1.00  0.00     0.203 HD
HETATM    4  C4  UNL     1      22.611  -8.785  16.225  1.00  0.00     0.705 A 
HETATM    5  N4  UNL     1      23.839  -8.476  15.732  1.00  0.00    -0.020 N 
ATOM      6  H4  UNL     1      24.162  -7.508  15.771  1.00  0.00     0.203 HD
HETATM    7  C5  UNL     1      24.637  -9.410  15.195  1.00  0.00     0.725 A 
HETATM    8  N5  UNL     1      25.805  -9.162  14.747  1.00  0.00    -0.135 N 
ATOM      9  H5  UNL     1      26.317  -9.954  14.360  1.00  0.00     0.205 HD
HETATM   10  N9  UNL     1      24.152 -10.688  15.167  1.00  0.00    -0.020 N 
ATOM     11  H9  UNL     1      24.736 -11.422  14.763  1.00  0.00     0.203 HD
ENDROOT
BRANCH   8  12
HETATM   12  N6  UNL     1      26.454  -7.946  14.724  1.00  0.00    -0.321 N 
ATOM     13  H6  UNL     1      26.244  -7.281  13.981  1.00  0.00     0.180 HD
BRANCH  12  14
HETATM   14  C6  UNL     1      27.442  -7.591  15.750  1.00  0.00     0.157 C 
BRANCH  14  15
HETATM   15  C7  UNL     1      26.748  -6.859  16.887  1.00  0.00     0.155 C 
BRANCH  15  16
HETATM   16  N7  UNL     1      27.737  -6.207  17.698  1.00  0.00    -0.147 NA
BRANCH  16  17
HETATM   17  N8  UNL     1      27.423  -4.918  18.063  1.00  0.00    -0.348 N 
ATOM     18  H82 UNL     1      26.534  -4.687  18.506  1.00  0.00     0.172 HD
ATOM     19  H81 UNL     1      28.145  -4.228  17.857  1.00  0.00     0.172 HD
ENDBRANCH  16  17
ENDBRANCH  15  16
ENDBRANCH  14  15
ENDBRANCH  12  14
ENDBRANCH   8  12
BRANCH   4  20
HETATM   20  N3  UNL     1      21.903  -7.818  16.751  1.00  0.00    -0.234 N 
ATOM     21  H32 UNL     1      20.917  -7.999  16.939  1.00  0.00     0.174 HD
ATOM     22  H31 UNL     1      22.291  -6.899  16.964  1.00  0.00     0.174 HD
ENDBRANCH   4  20
BRANCH   1  23
HETATM   23  N1  UNL     1      22.488 -12.393  15.581  1.00  0.00    -0.225 N 
HETATM   24  C1  UNL     1      22.930 -13.249  16.657  1.00  0.00     0.168 C 
HETATM   25  C2  UNL     1      21.664 -12.760  14.480  1.00  0.00     0.168 C 
ENDBRANCH   1  23
TORSDOF 7
ENDMDL
MODEL 2
REMARK VINA RESULT: -5.252043560      1.716      5.905
REMARK  7 active torsions:
REMARK  status: ('A' for Active; 'I' for Inactive)
REMARK    1  A    between atoms: N1_2  and  C3_4 
REMARK    2  A    between atoms: C4_7  and  N3_8 
REMARK    3  A    between atoms: N5_14  and  N6_16 
REMARK    4  A    between atoms: N6_16  and  C6_18 
REMARK    5  A    between atoms: C6_18  and  C7_19 
REMARK    6  A    between atoms: C7_19  and  N7_20 
REMARK    7  A    between atoms: N7_20  and  N8_21 
ROOT
HETATM    1  C3  UNL     1      24.828  -8.850  15.308  1.00  0.00     0.708 A 
HETATM    2  N2  UNL     1      23.922  -8.069  15.910  1.00  0.00    -0.022 N 
ATOM      3  H2  UNL     1      24.161  -7.100  16.120  1.00  0.00     0.203 HD
HETATM    4  C4  UNL     1      22.715  -8.529  16.242  1.00  0.00     0.705 A 
HETATM    5  N4  UNL     1      22.397  -9.821  15.962  1.00  0.00    -0.020 N 
ATOM      6  H4  UNL     1      21.474 -10.172  16.218  1.00  0.00     0.203 HD
HETATM    7  C5  UNL     1      23.266 -10.644  15.360  1.00  0.00     0.725 A 
HETATM    8  N5  UNL     1      22.994 -11.854  15.058  1.00  0.00    -0.135 N 
ATOM      9  H5  UNL     1      23.737 -12.383  14.603  1.00  0.00     0.205 HD
HETATM   10  N9  UNL     1      24.489 -10.121  15.042  1.00  0.00    -0.020 N 
ATOM     11  H9  UNL     1      25.173 -10.723  14.583  1.00  0.00     0.203 HD
ENDROOT
BRANCH   8  12
HETATM   12  N6  UNL     1      21.812 -12.527  15.277  1.00  0.00    -0.321 N 
ATOM     13  H6  UNL     1      20.942 -11.999  15.349  1.00  0.00     0.180 HD
BRANCH  12  14
HETATM   14  C6  UNL     1      21.780 -13.988  15.410  1.00  0.00     0.157 C 
BRANCH  14  15
HETATM   15  C7  UNL     1      22.298 -14.381  16.785  1.00  0.00     0.155 C 
BRANCH  15  16
HETATM   16  N7  UNL     1      23.729 -14.285  16.792  1.00  0.00    -0.147 NA
BRANCH  16  17
HETATM   17  N8  UNL     1      24.367 -15.239  17.552  1.00  0.00    -0.348 N 
ATOM     18  H82 UNL     1      23.855 -15.846  18.192  1.00  0.00     0.172 HD
ATOM     19  H81 UNL     1      25.377 -15.284  17.420  1.00  0.00     0.172 HD
ENDBRANCH  16  17
ENDBRANCH  15  16
ENDBRANCH  14  15
ENDBRANCH  12  14
ENDBRANCH   8  12
BRANCH   4  20
HETATM   20  N3  UNL     1      21.803  -7.785  16.813  1.00  0.00    -0.234 N 
ATOM     21  H32 UNL     1      21.018  -7.473  16.242  1.00  0.00     0.174 HD
ATOM     22  H31 UNL     1      21.855  -7.498  17.790  1.00  0.00     0.174 HD
ENDBRANCH   4  20
BRANCH   1  23
HETATM   23  N1  UNL     1      26.143  -8.358  14.948  1.00  0.00    -0.225 N 
HETATM   24  C1  UNL     1      26.620  -8.748  13.642  1.00  0.00     0.168 C 
HETATM   25  C2  UNL     1      26.827  -7.555  15.903  1.00  0.00     0.168 C 
ENDBRANCH   1  23
TORSDOF 7
ENDMDL
MODEL 3
REMARK VINA RESULT: -5.146990632      1.656      2.114
REMARK  7 active torsions:
REMARK  status: ('A' for Active; 'I' for Inactive)
REMARK    1  A    between atoms: N1_2  and  C3_4 
REMARK    2  A    between atoms: C4_7  and  N3_8 
REMARK    3  A    between atoms: N5_14  and  N6_16 
REMARK    4  A    between atoms: N6_16  and  C6_18 
REMARK    5  A    between atoms: C6_18  and  C7_19 
REMARK    6  A    between atoms: C7_19  and  N7_20 
REMARK    7  A    between atoms: N7_20  and  N8_21 
ROOT
HETATM    1  C3  UNL     1      22.847 -11.038  15.592  1.00  0.00     0.708 A 
HETATM    2  N2  UNL     1      22.155 -10.118  16.274  1.00  0.00    -0.022 N 
ATOM      3  H2  UNL     1      21.373 -10.415  16.859  1.00  0.00     0.203 HD
HETATM    4  C4  UNL     1      22.462  -8.822  16.208  1.00  0.00     0.705 A 
HETATM    5  N4  UNL     1      23.503  -8.426  15.429  1.00  0.00    -0.020 N 
ATOM      6  H4  UNL     1      23.737  -7.434  15.378  1.00  0.00     0.203 HD
HETATM    7  C5  UNL     1      24.230  -9.306  14.726  1.00  0.00     0.725 A 
HETATM    8  N5  UNL     1      25.229  -8.975  14.006  1.00  0.00    -0.135 N 
ATOM      9  H5  UNL     1      25.704  -9.733  13.516  1.00  0.00     0.205 HD
HETATM   10  N9  UNL     1      23.871 -10.621  14.831  1.00  0.00    -0.020 N 
ATOM     11  H9  UNL     1      24.405 -11.316  14.308  1.00  0.00     0.203 HD
ENDROOT
BRANCH   8  12
HETATM   12  N6  UNL     1      25.741  -7.710  13.813  1.00  0.00    -0.321 N 
ATOM     13  H6  UNL     1      25.650  -7.268  12.899  1.00  0.00     0.180 HD
BRANCH  12  14
HETATM   14  C6  UNL     1      26.416  -6.987  14.897  1.00  0.00     0.157 C 
BRANCH  14  15
HETATM   15  C7  UNL     1      27.322  -7.945  15.655  1.00  0.00     0.155 C 
BRANCH  15  16
HETATM   16  N7  UNL     1      28.367  -8.393  14.780  1.00  0.00    -0.147 NA
BRANCH  16  17
HETATM   17  N8  UNL     1      28.446  -9.759  14.630  1.00  0.00    -0.348 N 
ATOM     18  H82 UNL     1      29.252 -10.206  14.193  1.00  0.00     0.172 HD
ATOM     19  H81 UNL     1      27.643 -10.276  14.989  1.00  0.00     0.172 HD
ENDBRANCH  16  17
ENDBRANCH  15  16
ENDBRANCH  14  15
ENDBRANCH  12  14
ENDBRANCH   8  12
BRANCH   4  20
HETATM   20  N3  UNL     1      21.816  -7.903  16.878  1.00  0.00    -0.234 N 
ATOM     21  H32 UNL     1      21.905  -6.936  16.566  1.00  0.00     0.174 HD
ATOM     22  H31 UNL     1      21.247  -8.112  17.699  1.00  0.00     0.174 HD
ENDBRANCH   4  20
BRANCH   1  23
HETATM   23  N1  UNL     1      22.516 -12.448  15.656  1.00  0.00    -0.225 N 
HETATM   24  C1  UNL     1      21.710 -12.951  14.570  1.00  0.00     0.168 C 
HETATM   25  C2  UNL     1      23.009 -13.186  16.769  1.00  0.00     0.168 C 
ENDBRANCH   1  23
TORSDOF 7
ENDMDL
MODEL 4
REMARK VINA RESULT: -4.775149777      4.104      5.644
REMARK  7 active torsions:
REMARK  status: ('A' for Active; 'I' for Inactive)
REMARK    1  A    between atoms: N1_2  and  C3_4 
REMARK    2  A    between atoms: C4_7  and  N3_8 
REMARK    3  A    between atoms: N5_14  and  N6_16 
REMARK    4  A    between atoms: N6_16  and  C6_18 
REMARK    5  A    between atoms: C6_18  and  C7_19 
REMARK    6  A    between atoms: C7_19  and  N7_20 
REMARK    7  A    between atoms: N7_20  and  N8_21 
ROOT
HETATM    1  C3  UNL     1      25.589  -9.248  14.933  1.00  0.00     0.708 A 
HETATM    2  N2  UNL     1      26.532  -8.395  14.516  1.00  0.00    -0.022 N 
ATOM      3  H2  UNL     1      26.251  -7.522  14.069  1.00  0.00     0.203 HD
HETATM    4  C4  UNL     1      27.830  -8.659  14.673  1.00  0.00     0.705 A 
HETATM    5  N4  UNL     1      28.203  -9.822  15.269  1.00  0.00    -0.020 N 
ATOM      6  H4  UNL     1      29.197 -10.023  15.387  1.00  0.00     0.203 HD
HETATM    7  C5  UNL     1      27.299 -10.710  15.706  1.00  0.00     0.725 A 
HETATM    8  N5  UNL     1      27.612 -11.798  16.294  1.00  0.00    -0.135 N 
ATOM      9  H5  UNL     1      26.836 -12.395  16.580  1.00  0.00     0.205 HD
HETATM   10  N9  UNL     1      25.984 -10.388  15.520  1.00  0.00    -0.020 N 
ATOM     11  H9  UNL     1      25.271 -11.044  15.842  1.00  0.00     0.203 HD
ENDROOT
BRANCH   8  12
HETATM   12  N6  UNL     1      28.877 -12.260  16.586  1.00  0.00    -0.321 N 
ATOM     13  H6  UNL     1      29.618 -11.592  16.795  1.00  0.00     0.180 HD
BRANCH  12  14
HETATM   14  C6  UNL     1      29.179 -13.696  16.602  1.00  0.00     0.157 C 
BRANCH  14  15
HETATM   15  C7  UNL     1      30.678 -13.895  16.758  1.00  0.00     0.155 C 
BRANCH  15  16
HETATM   16  N7  UNL     1      31.342 -12.641  16.543  1.00  0.00    -0.147 NA
BRANCH  16  17
HETATM   17  N8  UNL     1      32.717 -12.710  16.543  1.00  0.00    -0.348 N 
ATOM     18  H82 UNL     1      33.296 -11.871  16.519  1.00  0.00     0.172 HD
ATOM     19  H81 UNL     1      33.097 -13.656  16.570  1.00  0.00     0.172 HD
ENDBRANCH  16  17
ENDBRANCH  15  16
ENDBRANCH  14  15
ENDBRANCH  12  14
ENDBRANCH   8  12
BRANCH   4  20
HETATM   20  N3  UNL     1      28.774  -7.836  14.293  1.00  0.00    -0.234 N 
ATOM     21  H32 UNL     1      28.967  -7.028  14.885  1.00  0.00     0.174 HD
ATOM     22  H31 UNL     1      29.306  -7.963  13.432  1.00  0.00     0.174 HD
ENDBRANCH   4  20
BRANCH   1  23
HETATM   23  N1  UNL     1      24.177  -8.970  14.764  1.00  0.00    -0.225 N 
HETATM   24  C1  UNL     1      23.859  -7.822  13.947  1.00  0.00     0.168 C 
HETATM   25  C2  UNL     1      23.255  -9.839  15.411  1.00  0.00     0.168 C 
ENDBRANCH   1  23
TORSDOF 7
ENDMDL
MODEL 5
REMARK VINA RESULT: -4.774881975      3.489      5.300
REMARK  7 active torsions:
REMARK  status: ('A' for Active; 'I' for Inactive)
REMARK    1  A    between atoms: N1_2  and  C3_4 
REMARK    2  A    between atoms: C4_7  and  N3_8 
REMARK    3  A    between atoms: N5_14  and  N6_16 
REMARK    4  A    between atoms: N6_16  and  C6_18 
REMARK    5  A    between atoms: C6_18  and  C7_19 
REMARK    6  A    between atoms: C7_19  and  N7_20 
REMARK    7  A    between atoms: N7_20  and  N8_21 
ROOT
HETATM    1  C3  UNL     1      24.797  -9.591  15.113  1.00  0.00     0.708 A 
HETATM    2  N2  UNL     1      25.208  -9.062  13.954  1.00  0.00    -0.022 N 
ATOM      3  H2  UNL     1      24.559  -8.495  13.408  1.00  0.00     0.203 HD
HETATM    4  C4  UNL     1      26.444  -9.259  13.496  1.00  0.00     0.705 A 
HETATM    5  N4  UNL     1      27.309 -10.016  14.223  1.00  0.00    -0.020 N 
ATOM      6  H4  UNL     1      28.254 -10.167  13.871  1.00  0.00     0.203 HD
HETATM    7  C5  UNL     1      26.949 -10.567  15.391  1.00  0.00     0.725 A 
HETATM    8  N5  UNL     1      27.741 -11.260  16.113  1.00  0.00    -0.135 N 
ATOM      9  H5  UNL     1      27.353 -11.629  16.981  1.00  0.00     0.205 HD
HETATM   10  N9  UNL     1      25.670 -10.332  15.813  1.00  0.00    -0.020 N 
ATOM     11  H9  UNL     1      25.366 -10.739  16.698  1.00  0.00     0.203 HD
ENDROOT
BRANCH   8  12
HETATM   12  N6  UNL     1      29.059 -11.567  15.855  1.00  0.00    -0.321 N 
ATOM     13  H6  UNL     1      29.543 -11.093  15.094  1.00  0.00     0.180 HD
BRANCH  12  14
HETATM   14  C6  UNL     1      29.780 -12.564  16.655  1.00  0.00     0.157 C 
BRANCH  14  15
HETATM   15  C7  UNL     1      29.374 -13.960  16.206  1.00  0.00     0.155 C 
BRANCH  15  16
HETATM   16  N7  UNL     1      27.976 -14.148  16.467  1.00  0.00    -0.147 NA
BRANCH  16  17
HETATM   17  N8  UNL     1      27.685 -15.176  17.335  1.00  0.00    -0.348 N 
ATOM     18  H82 UNL     1      27.466 -15.004  18.316  1.00  0.00     0.172 HD
ATOM     19  H81 UNL     1      27.708 -16.106  16.918  1.00  0.00     0.172 HD
ENDBRANCH  16  17
ENDBRANCH  15  16
ENDBRANCH  14  15
ENDBRANCH  12  14
ENDBRANCH   8  12
BRANCH   4  20
HETATM   20  N3  UNL     1      26.880  -8.740  12.377  1.00  0.00    -0.234 N 
ATOM     21  H32 UNL     1      26.808  -7.729  12.262  1.00  0.00     0.174 HD
ATOM     22  H31 UNL     1      27.269  -9.302  11.620  1.00  0.00     0.174 HD
ENDBRANCH   4  20
BRANCH   1  23
HETATM   23  N1  UNL     1      23.454  -9.384  15.616  1.00  0.00    -0.225 N 
HETATM   24  C1  UNL     1      23.144  -8.037  16.035  1.00  0.00     0.168 C 
HETATM   25  C2  UNL     1      22.586 -10.510  15.650  1.00  0.00     0.168 C 
ENDBRANCH   1  23
TORSDOF 7
ENDMDL
