MODEL 1
REMARK VINA RESULT: -5.596421484      0.000      0.000
REMARK  9 active torsions:
REMARK  status: ('A' for Active; 'I' for Inactive)
REMARK    1  A    between atoms: N1_1  and  C1_4 
REMARK    2  A    between atoms: C2_7  and  S1_8 
REMARK    3  A    between atoms: S1_8  and  C3_9 
REMARK    4  A    between atoms: C3_9  and  C4_10 
REMARK    5  A    between atoms: C4_10  and  O1_11 
REMARK    6  A    between atoms: O1_11  and  N3_12 
REMARK    7  A    between atoms: N3_12  and  N4_13 
REMARK    8  A    between atoms: N3_12  and  N5_16 
REMARK    9  A    between atoms: C5_21  and  N7_22 
ROOT
HETATM    1  C1  UNL     1      22.571  -8.574  16.186  1.00  0.00     0.692 A 
HETATM    2  N2  UNL     1      23.652  -8.149  15.501  1.00  0.00    -0.170 N 
ATOM      3  H2  UNL     1      23.893  -7.158  15.516  1.00  0.00     0.186 HD
HETATM    4  C2  UNL     1      24.414  -8.995  14.803  1.00  0.00     0.174 A 
HETATM    5  N6  UNL     1      24.078 -10.291  14.796  1.00  0.00    -0.170 N 
ATOM      6  H6  UNL     1      24.645 -10.955  14.269  1.00  0.00     0.186 HD
HETATM    7  C5  UNL     1      23.013 -10.724  15.469  1.00  0.00     0.692 A 
HETATM    8  N8  UNL     1      22.253  -9.863  16.169  1.00  0.00    -0.023 N 
ATOM      9  H8  UNL     1      21.437 -10.197  16.683  1.00  0.00     0.203 HD
ENDROOT
BRANCH   4  10
HETATM   10  S1  UNL     1      25.831  -8.420  13.909  1.00  0.00    -0.091 SA
BRANCH  10  11
HETATM   11  C3  UNL     1      27.090  -7.865  15.085  1.00  0.00     0.111 C 
BRANCH  11  12
HETATM   12  C4  UNL     1      27.043  -8.719  16.346  1.00  0.00     0.216 C 
BRANCH  12  13
HETATM   13  O1  UNL     1      28.067  -9.656  16.354  1.00  0.00    -0.244 OA
BRANCH  13  14
HETATM   14  N3  UNL     1      27.678 -10.890  16.081  1.00  0.00    -0.106 N 
BRANCH  14  15
HETATM   15  N4  UNL     1      28.004 -11.364  14.832  1.00  0.00    -0.304 N 
ATOM     16  H42 UNL     1      28.862 -10.988  14.429  1.00  0.00     0.180 HD
ATOM     17  H41 UNL     1      27.227 -11.484  14.182  1.00  0.00     0.180 HD
ENDBRANCH  14  15
BRANCH  14  18
HETATM   18  N5  UNL     1      27.803 -11.793  17.109  1.00  0.00    -0.304 N 
ATOM     19  H52 UNL     1      28.569 -12.460  17.019  1.00  0.00     0.180 HD
ATOM     20  H51 UNL     1      27.641 -11.420  18.045  1.00  0.00     0.180 HD
ENDBRANCH  14  18
ENDBRANCH  13  14
ENDBRANCH  12  13
ENDBRANCH  11  12
ENDBRANCH  10  11
ENDBRANCH   4  10
BRANCH   1  21
HETATM   21  N1  UNL     1      21.856  -7.743  16.848  1.00  0.00    -0.234 N 
ATOM     22  H12 UNL     1      22.279  -6.903  17.244  1.00  0.00     0.174 HD
ATOM     23  H11 UNL     1      20.859  -7.914  16.984  1.00  0.00     0.174 HD
ENDBRANCH   1  21
BRANCH   7  24
HETATM   24  N7  UNL     1      22.677 -11.971  15.471  1.00  0.00    -0.234 N 
ATOM     25  H72 UNL     1      23.374 -12.655  15.768  1.00  0.00     0.174 HD
ATOM     26  H71 UNL     1      21.746 -12.274  15.187  1.00  0.00     0.174 HD
ENDBRANCH   7  24
TORSDOF 9
ENDMDL
MODEL 2
REMARK VINA RESULT: -5.515992125      0.110      2.037
REMARK  9 active torsions:
REMARK  status: ('A' for Active; 'I' for Inactive)
REMARK    1  A    between atoms: N1_1  and  C1_4 
REMARK    2  A    between atoms: C2_7  and  S1_8 
REMARK    3  A    between atoms: S1_8  and  C3_9 
REMARK    4  A    between atoms: C3_9  and  C4_10 
REMARK    5  A    between atoms: C4_10  and  O1_11 
REMARK    6  A    between atoms: O1_11  and  N3_12 
REMARK    7  A    between atoms: N3_12  and  N4_13 
REMARK    8  A    between atoms: N3_12  and  N5_16 
REMARK    9  A    between atoms: C5_21  and  N7_22 
ROOT
HETATM    1  C1  UNL     1      22.959 -10.757  15.418  1.00  0.00     0.692 A 
HETATM    2  N2  UNL     1      24.032 -10.288  14.749  1.00  0.00    -0.170 N 
ATOM      3  H2  UNL     1      24.592 -10.934  14.192  1.00  0.00     0.186 HD
HETATM    4  C2  UNL     1      24.377  -9.000  14.798  1.00  0.00     0.174 A 
HETATM    5  N6  UNL     1      23.628  -8.171  15.536  1.00  0.00    -0.170 N 
ATOM      6  H6  UNL     1      23.874  -7.183  15.590  1.00  0.00     0.186 HD
HETATM    7  C5  UNL     1      22.566  -8.622  16.202  1.00  0.00     0.692 A 
HETATM    8  N8  UNL     1      22.227  -9.923  16.145  1.00  0.00    -0.023 N 
ATOM      9  H8  UNL     1      21.413 -10.265  16.656  1.00  0.00     0.203 HD
ENDROOT
BRANCH   4  10
HETATM   10  S1  UNL     1      25.789  -8.399  13.912  1.00  0.00    -0.091 SA
BRANCH  10  11
HETATM   11  C3  UNL     1      27.037  -7.834  15.097  1.00  0.00     0.111 C 
BRANCH  11  12
HETATM   12  C4  UNL     1      27.058  -8.751  16.313  1.00  0.00     0.216 C 
BRANCH  12  13
HETATM   13  O1  UNL     1      28.067  -9.699  16.207  1.00  0.00    -0.244 OA
BRANCH  13  14
HETATM   14  N3  UNL     1      27.639 -10.923  15.946  1.00  0.00    -0.106 N 
BRANCH  14  15
HETATM   15  N4  UNL     1      27.856 -11.379  14.668  1.00  0.00    -0.304 N 
ATOM     16  H42 UNL     1      27.346 -10.890  13.933  1.00  0.00     0.180 HD
ATOM     17  H41 UNL     1      27.923 -12.392  14.559  1.00  0.00     0.180 HD
ENDBRANCH  14  15
BRANCH  14  18
HETATM   18  N5  UNL     1      27.834 -11.845  16.947  1.00  0.00    -0.304 N 
ATOM     19  H52 UNL     1      27.072 -12.507  17.090  1.00  0.00     0.180 HD
ATOM     20  H51 UNL     1      28.778 -12.226  17.017  1.00  0.00     0.180 HD
ENDBRANCH  14  18
ENDBRANCH  13  14
ENDBRANCH  12  13
ENDBRANCH  11  12
ENDBRANCH  10  11
ENDBRANCH   4  10
BRANCH   1  21
HETATM   21  N1  UNL     1      22.649 -11.998  15.355  1.00  0.00    -0.234 N 
ATOM     22  H12 UNL     1      22.766 -12.513  14.482  1.00  0.00     0.174 HD
ATOM     23  H11 UNL     1      22.282 -12.481  16.176  1.00  0.00     0.174 HD
ENDBRANCH   1  21
BRANCH   7  24
HETATM   24  N7  UNL     1      21.834  -7.834  16.918  1.00  0.00    -0.234 N 
ATOM     25  H72 UNL     1      22.232  -6.941  17.207  1.00  0.00     0.174 HD
ATOM     26  H71 UNL     1      20.885  -8.089  17.191  1.00  0.00     0.174 HD
ENDBRANCH   7  24
TORSDOF 9
ENDMDL
MODEL 3
REMARK VINA RESULT: -5.361664931      2.155      2.628
REMARK  9 active torsions:
REMARK  status: ('A' for Active; 'I' for Inactive)
REMARK    1  A    between atoms: N1_1  and  C1_4 
REMARK    2  A    between atoms: C2_7  and  S1_8 
REMARK    3  A    between atoms: S1_8  and  C3_9 
REMARK    4  A    between atoms: C3_9  and  C4_10 
REMARK    5  A    between atoms: C4_10  and  O1_11 
REMARK    6  A    between atoms: O1_11  and  N3_12 
REMARK    7  A    between atoms: N3_12  and  N4_13 
REMARK    8  A    between atoms: N3_12  and  N5_16 
REMARK    9  A    between atoms: C5_21  and  N7_22 
ROOT
HETATM    1  C1  UNL     1      22.594  -8.554  16.173  1.00  0.00     0.692 A 
HETATM    2  N2  UNL     1      23.686  -8.110  15.518  1.00  0.00    -0.170 N 
ATOM      3  H2  UNL     1      23.918  -7.117  15.553  1.00  0.00     0.186 HD
HETATM    4  C2  UNL     1      24.470  -8.940  14.826  1.00  0.00     0.174 A 
HETATM    5  N6  UNL     1      24.146 -10.238  14.793  1.00  0.00    -0.170 N 
ATOM      6  H6  UNL     1      24.730 -10.889  14.269  1.00  0.00     0.186 HD
HETATM    7  C5  UNL     1      23.070 -10.690  15.436  1.00  0.00     0.692 A 
HETATM    8  N8  UNL     1      22.287  -9.844  16.131  1.00  0.00    -0.023 N 
ATOM      9  H8  UNL     1      21.464 -10.193  16.622  1.00  0.00     0.203 HD
ENDROOT
BRANCH   4  10
HETATM   10  S1  UNL     1      25.902  -8.340  13.971  1.00  0.00    -0.091 SA
BRANCH  10  11
HETATM   11  C3  UNL     1      27.381  -8.754  14.929  1.00  0.00     0.111 C 
BRANCH  11  12
HETATM   12  C4  UNL     1      27.151  -8.456  16.405  1.00  0.00     0.216 C 
BRANCH  12  13
HETATM   13  O1  UNL     1      27.979  -7.432  16.844  1.00  0.00    -0.244 OA
BRANCH  13  14
HETATM   14  N3  UNL     1      27.348  -6.307  17.134  1.00  0.00    -0.106 N 
BRANCH  14  15
HETATM   15  N4  UNL     1      25.980  -6.391  17.240  1.00  0.00    -0.304 N 
ATOM     16  H42 UNL     1      25.581  -7.314  17.067  1.00  0.00     0.180 HD
ATOM     17  H41 UNL     1      25.452  -5.605  16.862  1.00  0.00     0.180 HD
ENDBRANCH  14  15
BRANCH  14  18
HETATM   18  N5  UNL     1      27.966  -5.502  18.061  1.00  0.00    -0.304 N 
ATOM     19  H52 UNL     1      27.635  -5.599  19.020  1.00  0.00     0.180 HD
ATOM     20  H51 UNL     1      28.974  -5.390  17.945  1.00  0.00     0.180 HD
ENDBRANCH  14  18
ENDBRANCH  13  14
ENDBRANCH  12  13
ENDBRANCH  11  12
ENDBRANCH  10  11
ENDBRANCH   4  10
BRANCH   1  21
HETATM   21  N1  UNL     1      21.857  -7.738  16.831  1.00  0.00    -0.234 N 
ATOM     22  H12 UNL     1      21.868  -6.742  16.607  1.00  0.00     0.174 HD
ATOM     23  H11 UNL     1      21.257  -8.076  17.583  1.00  0.00     0.174 HD
ENDBRANCH   1  21
BRANCH   7  24
HETATM   24  N7  UNL     1      22.745 -11.939  15.414  1.00  0.00    -0.234 N 
ATOM     25  H72 UNL     1      23.395 -12.611  15.822  1.00  0.00     0.174 HD
ATOM     26  H71 UNL     1      21.867 -12.255  15.003  1.00  0.00     0.174 HD
ENDBRANCH   7  24
TORSDOF 9
ENDMDL
MODEL 4
REMARK VINA RESULT: -5.291807323      2.155      3.398
REMARK  9 active torsions:
REMARK  status: ('A' for Active; 'I' for Inactive)
REMARK    1  A    between atoms: N1_1  and  C1_4 
REMARK    2  A    between atoms: C2_7  and  S1_8 
REMARK    3  A    between atoms: S1_8  and  C3_9 
REMARK    4  A    between atoms: C3_9  and  C4_10 
REMARK    5  A    between atoms: C4_10  and  O1_11 
REMARK    6  A    between atoms: O1_11  and  N3_12 
REMARK    7  A    between atoms: N3_12  and  N4_13 
REMARK    8  A    between atoms: N3_12  and  N5_16 
REMARK    9  A    between atoms: C5_21  and  N7_22 
ROOT
HETATM    1  C1  UNL     1      23.019 -10.718  15.465  1.00  0.00     0.692 A 
HETATM    2  N2  UNL     1      24.117 -10.285  14.814  1.00  0.00    -0.170 N 
ATOM      3  H2  UNL     1      24.684 -10.955  14.294  1.00  0.00     0.186 HD
HETATM    4  C2  UNL     1      24.479  -9.000  14.835  1.00  0.00     0.174 A 
HETATM    5  N6  UNL     1      23.721  -8.139  15.524  1.00  0.00    -0.170 N 
ATOM      6  H6  UNL     1      23.980  -7.153  15.554  1.00  0.00     0.186 HD
HETATM    7  C5  UNL     1      22.633  -8.554  16.171  1.00  0.00     0.692 A 
HETATM    8  N8  UNL     1      22.277  -9.851  16.144  1.00  0.00    -0.023 N 
ATOM      9  H8  UNL     1      21.444 -10.166  16.640  1.00  0.00     0.203 HD
ENDROOT
BRANCH   4  10
HETATM   10  S1  UNL     1      25.926  -8.446  13.973  1.00  0.00    -0.091 SA
BRANCH  10  11
HETATM   11  C3  UNL     1      27.388  -8.803  14.979  1.00  0.00     0.111 C 
BRANCH  11  12
HETATM   12  C4  UNL     1      27.115  -8.466  16.440  1.00  0.00     0.216 C 
BRANCH  12  13
HETATM   13  O1  UNL     1      27.869  -7.375  16.851  1.00  0.00    -0.244 OA
BRANCH  13  14
HETATM   14  N3  UNL     1      27.170  -6.421  17.441  1.00  0.00    -0.106 N 
BRANCH  14  15
HETATM   15  N4  UNL     1      27.898  -5.436  18.064  1.00  0.00    -0.304 N 
ATOM     16  H42 UNL     1      28.515  -5.751  18.814  1.00  0.00     0.180 HD
ATOM     17  H41 UNL     1      27.408  -4.558  18.237  1.00  0.00     0.180 HD
ENDBRANCH  14  15
BRANCH  14  18
HETATM   18  N5  UNL     1      26.057  -5.993  16.758  1.00  0.00    -0.304 N 
ATOM     19  H52 UNL     1      25.623  -6.683  16.145  1.00  0.00     0.180 HD
ATOM     20  H51 UNL     1      25.417  -5.398  17.286  1.00  0.00     0.180 HD
ENDBRANCH  14  18
ENDBRANCH  13  14
ENDBRANCH  12  13
ENDBRANCH  11  12
ENDBRANCH  10  11
ENDBRANCH   4  10
BRANCH   1  21
HETATM   21  N1  UNL     1      22.692 -11.956  15.430  1.00  0.00    -0.234 N 
ATOM     22  H12 UNL     1      22.647 -12.451  14.539  1.00  0.00     0.174 HD
ATOM     23  H11 UNL     1      22.474 -12.457  16.293  1.00  0.00     0.174 HD
ENDBRANCH   1  21
BRANCH   7  24
HETATM   24  N7  UNL     1      21.892  -7.735  16.840  1.00  0.00    -0.234 N 
ATOM     25  H72 UNL     1      22.264  -6.807  17.041  1.00  0.00     0.174 HD
ATOM     26  H71 UNL     1      20.961  -7.999  17.162  1.00  0.00     0.174 HD
ENDBRANCH   7  24
TORSDOF 9
ENDMDL
MODEL 5
REMARK VINA RESULT: -5.204912601      3.311      4.193
REMARK  9 active torsions:
REMARK  status: ('A' for Active; 'I' for Inactive)
REMARK    1  A    between atoms: N1_1  and  C1_4 
REMARK    2  A    between atoms: C2_7  and  S1_8 
REMARK    3  A    between atoms: S1_8  and  C3_9 
REMARK    4  A    between atoms: C3_9  and  C4_10 
REMARK    5  A    between atoms: C4_10  and  O1_11 
REMARK    6  A    between atoms: O1_11  and  N3_12 
REMARK    7  A    between atoms: N3_12  and  N4_13 
REMARK    8  A    between atoms: N3_12  and  N5_16 
REMARK    9  A    between atoms: C5_21  and  N7_22 
ROOT
HETATM    1  C1  UNL     1      26.519  -7.569  16.057  1.00  0.00     0.692 A 
HETATM    2  N2  UNL     1      27.218  -8.718  15.966  1.00  0.00    -0.170 N 
ATOM      3  H2  UNL     1      27.906  -8.940  16.686  1.00  0.00     0.186 HD
HETATM    4  C2  UNL     1      27.031  -9.572  14.957  1.00  0.00     0.174 A 
HETATM    5  N6  UNL     1      26.124  -9.260  14.024  1.00  0.00    -0.170 N 
ATOM      6  H6  UNL     1      25.966  -9.897  13.243  1.00  0.00     0.186 HD
HETATM    7  C5  UNL     1      25.426  -8.128  14.101  1.00  0.00     0.692 A 
HETATM    8  N8  UNL     1      25.623  -7.275  15.122  1.00  0.00    -0.023 N 
ATOM      9  H8  UNL     1      25.087  -6.409  15.179  1.00  0.00     0.203 HD
ENDROOT
BRANCH   4  10
HETATM   10  S1  UNL     1      27.958 -11.079  14.854  1.00  0.00    -0.091 SA
BRANCH  10  11
HETATM   11  C3  UNL     1      28.352 -11.649  16.526  1.00  0.00     0.111 C 
BRANCH  11  12
HETATM   12  C4  UNL     1      29.352 -12.797  16.468  1.00  0.00     0.216 C 
BRANCH  12  13
HETATM   13  O1  UNL     1      30.655 -12.331  16.574  1.00  0.00    -0.244 OA
BRANCH  13  14
HETATM   14  N3  UNL     1      31.563 -13.281  16.723  1.00  0.00    -0.106 N 
BRANCH  14  15
HETATM   15  N4  UNL     1      31.311 -14.465  16.072  1.00  0.00    -0.304 N 
ATOM     16  H42 UNL     1      30.382 -14.553  15.661  1.00  0.00     0.180 HD
ATOM     17  H41 UNL     1      31.677 -15.308  16.517  1.00  0.00     0.180 HD
ENDBRANCH  14  15
BRANCH  14  18
HETATM   18  N5  UNL     1      32.871 -12.860  16.704  1.00  0.00    -0.304 N 
ATOM     19  H52 UNL     1      33.551 -13.548  16.382  1.00  0.00     0.180 HD
ATOM     20  H51 UNL     1      33.021 -11.901  16.389  1.00  0.00     0.180 HD
ENDBRANCH  14  18
ENDBRANCH  13  14
ENDBRANCH  12  13
ENDBRANCH  11  12
ENDBRANCH  10  11
ENDBRANCH   4  10
BRANCH   1  21
HETATM   21  N1  UNL     1      26.717  -6.766  17.035  1.00  0.00    -0.234 N 
ATOM     22  H12 UNL     1      26.737  -7.118  17.992  1.00  0.00     0.174 HD
ATOM     23  H11 UNL     1      26.855  -5.769  16.864  1.00  0.00     0.174 HD
ENDBRANCH   1  21
BRANCH   7  24
HETATM   24  N7  UNL     1      24.548  -7.814  13.208  1.00  0.00    -0.234 N 
ATOM     25  H72 UNL     1      24.754  -7.031  12.587  1.00  0.00     0.174 HD
ATOM     26  H71 UNL     1      23.672  -8.328  13.117  1.00  0.00     0.174 HD
ENDBRANCH   7  24
TORSDOF 9
ENDMDL
