MODEL 1
REMARK VINA RESULT: -7.788419385      0.000      0.000
REMARK  4 active torsions:
REMARK  status: ('A' for Active; 'I' for Inactive)
REMARK    1  A    between atoms: C1_4  and  C2_6 
REMARK    2  A    between atoms: C3_9  and  C4_10 
REMARK    3  A    between atoms: C4_10  and  N4_11 
REMARK    4  A    between atoms: N4_11  and  C5_14 
ROOT
HETATM    1  C2  UNL     1      27.969 -10.487  15.671  1.00  0.00     0.212 A 
HETATM    2  N3  UNL     1      27.183  -9.605  16.309  1.00  0.00    -0.319 N 
ATOM      3  H3  UNL     1      26.613  -9.807  17.130  1.00  0.00     0.169 HD
HETATM    4  C3  UNL     1      27.269  -8.417  15.695  1.00  0.00     0.130 A 
HETATM    5  N8  UNL     1      28.123  -8.596  14.672  1.00  0.00    -0.245 N 
ATOM      6  H8  UNL     1      28.410  -7.883  14.001  1.00  0.00     0.196 HD
HETATM    7  O1  UNL     1      28.518  -9.832  14.686  1.00  0.00    -0.215 OA
ENDROOT
BRANCH   4   8
HETATM    8  C4  UNL     1      26.558  -7.142  16.066  1.00  0.00     0.312 C 
BRANCH   8   9
HETATM    9  N4  UNL     1      25.543  -6.905  15.091  1.00  0.00    -0.048 N 
ATOM     10  H42 UNL     1      25.311  -5.913  15.056  1.00  0.00     0.279 HD
ATOM     11  H41 UNL     1      25.919  -7.032  14.151  1.00  0.00     0.279 HD
BRANCH   9  12
HETATM   12  C5  UNL     1      24.355  -7.686  15.260  1.00  0.00     0.311 C 
HETATM   13  C6  UNL     1      24.188  -8.797  14.292  1.00  0.00     0.183 C 
HETATM   14  N5  UNL     1      23.615  -8.173  13.144  1.00  0.00    -0.127 NA
HETATM   15  N6  UNL     1      23.366  -6.842  13.467  1.00  0.00    -0.038 NA
HETATM   16  N7  UNL     1      23.237  -6.823  14.879  1.00  0.00    -0.095 NA
ENDBRANCH   9  12
ENDBRANCH   8   9
ENDBRANCH   4   8
BRANCH   1  17
HETATM   17  C1  UNL     1      28.157 -11.899  16.029  1.00  0.00     0.163 C 
HETATM   18  N1  UNL     1      27.862 -12.253  17.226  1.00  0.00    -0.384 N 
ATOM     19  H12 UNL     1      27.992 -13.235  17.475  1.00  0.00     0.157 HD
ATOM     20  H11 UNL     1      27.509 -11.590  17.916  1.00  0.00     0.157 HD
HETATM   21  N2  UNL     1      28.645 -12.816  15.075  1.00  0.00    -0.079 NA
ENDBRANCH   1  17
TORSDOF 4
ENDMDL
MODEL 2
REMARK VINA RESULT: -7.468687262      1.619      2.024
REMARK  4 active torsions:
REMARK  status: ('A' for Active; 'I' for Inactive)
REMARK    1  A    between atoms: C1_4  and  C2_6 
REMARK    2  A    between atoms: C3_9  and  C4_10 
REMARK    3  A    between atoms: C4_10  and  N4_11 
REMARK    4  A    between atoms: N4_11  and  C5_14 
ROOT
HETATM    1  C2  UNL     1      28.253 -11.278  15.802  1.00  0.00     0.212 A 
HETATM    2  N3  UNL     1      28.444 -10.075  15.237  1.00  0.00    -0.319 N 
ATOM      3  H3  UNL     1      29.350  -9.655  15.034  1.00  0.00     0.169 HD
HETATM    4  C3  UNL     1      27.252  -9.516  14.983  1.00  0.00     0.130 A 
HETATM    5  N8  UNL     1      26.336 -10.405  15.406  1.00  0.00    -0.245 N 
ATOM      6  H8  UNL     1      25.323 -10.288  15.357  1.00  0.00     0.196 HD
HETATM    7  O1  UNL     1      26.961 -11.436  15.885  1.00  0.00    -0.215 OA
ENDROOT
BRANCH   4   8
HETATM    8  C4  UNL     1      26.987  -8.172  14.358  1.00  0.00     0.312 C 
BRANCH   8   9
HETATM    9  N4  UNL     1      25.840  -8.297  13.517  1.00  0.00    -0.048 N 
ATOM     10  H42 UNL     1      26.092  -8.114  12.546  1.00  0.00     0.279 HD
ATOM     11  H41 UNL     1      25.560  -9.275  13.445  1.00  0.00     0.279 HD
BRANCH   9  12
HETATM   12  C5  UNL     1      24.723  -7.488  13.902  1.00  0.00     0.311 C 
HETATM   13  C6  UNL     1      24.459  -7.432  15.361  1.00  0.00     0.183 C 
HETATM   14  N5  UNL     1      23.696  -8.609  15.619  1.00  0.00    -0.127 NA
HETATM   15  N6  UNL     1      23.444  -9.227  14.397  1.00  0.00    -0.038 NA
HETATM   16  N7  UNL     1      23.528  -8.188  13.435  1.00  0.00    -0.095 NA
ENDBRANCH   9  12
ENDBRANCH   8   9
ENDBRANCH   4   8
BRANCH   1  17
HETATM   17  C1  UNL     1      29.303 -12.211  16.232  1.00  0.00     0.163 C 
HETATM   18  N1  UNL     1      28.985 -13.448  16.358  1.00  0.00    -0.384 N 
ATOM     19  H12 UNL     1      29.715 -14.096  16.656  1.00  0.00     0.157 HD
ATOM     20  H11 UNL     1      28.042 -13.786  16.170  1.00  0.00     0.157 HD
HETATM   21  N2  UNL     1      30.609 -11.743  16.492  1.00  0.00    -0.079 NA
ENDBRANCH   1  17
TORSDOF 4
ENDMDL
MODEL 3
REMARK VINA RESULT: -7.402912801      2.240      5.104
REMARK  4 active torsions:
REMARK  status: ('A' for Active; 'I' for Inactive)
REMARK    1  A    between atoms: C1_4  and  C2_6 
REMARK    2  A    between atoms: C3_9  and  C4_10 
REMARK    3  A    between atoms: C4_10  and  N4_11 
REMARK    4  A    between atoms: N4_11  and  C5_14 
ROOT
HETATM    1  C2  UNL     1      23.689  -8.033  15.378  1.00  0.00     0.212 A 
HETATM    2  N3  UNL     1      24.893  -8.602  15.206  1.00  0.00    -0.319 N 
ATOM      3  H3  UNL     1      25.197  -9.481  15.625  1.00  0.00     0.169 HD
HETATM    4  C3  UNL     1      25.631  -7.829  14.397  1.00  0.00     0.130 A 
HETATM    5  N8  UNL     1      24.850  -6.781  14.082  1.00  0.00    -0.245 N 
ATOM      6  H8  UNL     1      25.111  -6.002  13.478  1.00  0.00     0.196 HD
HETATM    7  O1  UNL     1      23.708  -6.932  14.679  1.00  0.00    -0.215 OA
ENDROOT
BRANCH   4   8
HETATM    8  C4  UNL     1      27.043  -8.076  13.934  1.00  0.00     0.312 C 
BRANCH   8   9
HETATM    9  N4  UNL     1      27.246  -9.488  13.874  1.00  0.00    -0.048 N 
ATOM     10  H42 UNL     1      26.365  -9.978  14.028  1.00  0.00     0.279 HD
ATOM     11  H41 UNL     1      27.444  -9.776  12.916  1.00  0.00     0.279 HD
BRANCH   9  12
HETATM   12  C5  UNL     1      28.253  -9.987  14.761  1.00  0.00     0.311 C 
HETATM   13  C6  UNL     1      28.313 -11.465  14.878  1.00  0.00     0.183 C 
HETATM   14  N5  UNL     1      27.309 -11.777  15.842  1.00  0.00    -0.127 NA
HETATM   15  N6  UNL     1      26.797 -10.575  16.323  1.00  0.00    -0.038 NA
HETATM   16  N7  UNL     1      27.828  -9.625  16.113  1.00  0.00    -0.095 NA
ENDBRANCH   9  12
ENDBRANCH   8   9
ENDBRANCH   4   8
BRANCH   1  17
HETATM   17  C1  UNL     1      22.588  -8.562  16.194  1.00  0.00     0.163 C 
HETATM   18  N1  UNL     1      21.861  -7.719  16.831  1.00  0.00    -0.384 N 
ATOM     19  H12 UNL     1      21.096  -8.087  17.398  1.00  0.00     0.157 HD
ATOM     20  H11 UNL     1      22.029  -6.714  16.783  1.00  0.00     0.157 HD
HETATM   21  N2  UNL     1      22.356  -9.953  16.261  1.00  0.00    -0.079 NA
ENDBRANCH   1  17
TORSDOF 4
ENDMDL
MODEL 4
REMARK VINA RESULT: -7.293321329      1.070      1.193
REMARK  4 active torsions:
REMARK  status: ('A' for Active; 'I' for Inactive)
REMARK    1  A    between atoms: C1_4  and  C2_6 
REMARK    2  A    between atoms: C3_9  and  C4_10 
REMARK    3  A    between atoms: C4_10  and  N4_11 
REMARK    4  A    between atoms: N4_11  and  C5_14 
ROOT
HETATM    1  C2  UNL     1      28.229 -10.941  15.581  1.00  0.00     0.212 A 
HETATM    2  N3  UNL     1      27.627  -9.803  15.962  1.00  0.00    -0.319 N 
ATOM      3  H3  UNL     1      27.431  -9.532  16.925  1.00  0.00     0.169 HD
HETATM    4  C3  UNL     1      27.326  -9.081  14.874  1.00  0.00     0.130 A 
HETATM    5  N8  UNL     1      27.757  -9.804  13.825  1.00  0.00    -0.245 N 
ATOM      6  H8  UNL     1      27.682  -9.537  12.844  1.00  0.00     0.196 HD
HETATM    7  O1  UNL     1      28.287 -10.899  14.278  1.00  0.00    -0.215 OA
ENDROOT
BRANCH   4   8
HETATM    8  C4  UNL     1      26.643  -7.739  14.826  1.00  0.00     0.312 C 
BRANCH   8   9
HETATM    9  N4  UNL     1      25.457  -7.821  15.617  1.00  0.00    -0.048 N 
ATOM     10  H42 UNL     1      25.667  -8.227  16.528  1.00  0.00     0.279 HD
ATOM     11  H41 UNL     1      25.158  -6.889  15.903  1.00  0.00     0.279 HD
BRANCH   9  12
HETATM   12  C5  UNL     1      24.372  -8.522  14.999  1.00  0.00     0.311 C 
HETATM   13  C6  UNL     1      24.155  -8.209  13.565  1.00  0.00     0.183 C 
HETATM   14  N5  UNL     1      23.373  -7.017  13.586  1.00  0.00    -0.127 NA
HETATM   15  N6  UNL     1      23.069  -6.733  14.915  1.00  0.00    -0.038 NA
HETATM   16  N7  UNL     1      23.146  -7.980  15.585  1.00  0.00    -0.095 NA
ENDBRANCH   9  12
ENDBRANCH   8   9
ENDBRANCH   4   8
BRANCH   1  17
HETATM   17  C1  UNL     1      28.717 -12.004  16.470  1.00  0.00     0.163 C 
HETATM   18  N1  UNL     1      27.842 -12.709  17.089  1.00  0.00    -0.384 N 
ATOM     19  H12 UNL     1      28.181 -13.447  17.706  1.00  0.00     0.157 HD
ATOM     20  H11 UNL     1      26.841 -12.549  16.979  1.00  0.00     0.157 HD
HETATM   21  N2  UNL     1      30.102 -12.225  16.622  1.00  0.00    -0.079 NA
ENDBRANCH   1  17
TORSDOF 4
ENDMDL
MODEL 5
REMARK VINA RESULT: -7.262796005      1.042      1.622
REMARK  4 active torsions:
REMARK  status: ('A' for Active; 'I' for Inactive)
REMARK    1  A    between atoms: C1_4  and  C2_6 
REMARK    2  A    between atoms: C3_9  and  C4_10 
REMARK    3  A    between atoms: C4_10  and  N4_11 
REMARK    4  A    between atoms: N4_11  and  C5_14 
ROOT
HETATM    1  C2  UNL     1      28.143 -10.760  15.773  1.00  0.00     0.212 A 
HETATM    2  N3  UNL     1      27.235  -9.810  16.051  1.00  0.00    -0.319 N 
ATOM      3  H3  UNL     1      26.522  -9.869  16.777  1.00  0.00     0.169 HD
HETATM    4  C3  UNL     1      27.418  -8.773  15.222  1.00  0.00     0.130 A 
HETATM    5  N8  UNL     1      28.455  -9.113  14.436  1.00  0.00    -0.245 N 
ATOM      6  H8  UNL     1      28.854  -8.540  13.692  1.00  0.00     0.196 HD
HETATM    7  O1  UNL     1      28.860 -10.294  14.787  1.00  0.00    -0.215 OA
ENDROOT
BRANCH   4   8
HETATM    8  C4  UNL     1      26.629  -7.490  15.174  1.00  0.00     0.312 C 
BRANCH   8   9
HETATM    9  N4  UNL     1      25.764  -7.549  14.040  1.00  0.00    -0.048 N 
ATOM     10  H42 UNL     1      26.051  -6.865  13.341  1.00  0.00     0.279 HD
ATOM     11  H41 UNL     1      25.923  -8.412  13.518  1.00  0.00     0.279 HD
BRANCH   9  12
HETATM   12  C5  UNL     1      24.372  -7.400  14.339  1.00  0.00     0.311 C 
HETATM   13  C6  UNL     1      23.964  -7.864  15.688  1.00  0.00     0.183 C 
HETATM   14  N5  UNL     1      23.780  -9.270  15.530  1.00  0.00    -0.127 NA
HETATM   15  N6  UNL     1      23.953  -9.569  14.181  1.00  0.00    -0.038 NA
HETATM   16  N7  UNL     1      23.665  -8.363  13.495  1.00  0.00    -0.095 NA
ENDBRANCH   9  12
ENDBRANCH   8   9
ENDBRANCH   4   8
BRANCH   1  17
HETATM   17  C1  UNL     1      28.281 -12.054  16.454  1.00  0.00     0.163 C 
HETATM   18  N1  UNL     1      28.831 -13.013  15.803  1.00  0.00    -0.384 N 
ATOM     19  H12 UNL     1      28.927 -13.912  16.276  1.00  0.00     0.157 HD
ATOM     20  H11 UNL     1      29.166 -12.896  14.847  1.00  0.00     0.157 HD
HETATM   21  N2  UNL     1      27.818 -12.215  17.777  1.00  0.00    -0.079 NA
ENDBRANCH   1  17
TORSDOF 4
ENDMDL
