MODEL 1
REMARK VINA RESULT: -8.700033468      0.000      0.000
REMARK  16 active torsions:
REMARK  status: ('A' for Active; 'I' for Inactive)
REMARK    1  A    between atoms: C2_2  and  O1_4 
REMARK    2  A    between atoms: C2_2  and  C4_6 
REMARK    3  A    between atoms: C4_6  and  O2_7 
REMARK    4  A    between atoms: C7_13  and  N2_14 
REMARK    5  A    between atoms: N2_14  and  N3_16 
REMARK    6  A    between atoms: N3_16  and  C8_18 
REMARK    7  A    between atoms: C8_18  and  C9_19 
REMARK    8  A    between atoms: C8_18  and  C11_25 
REMARK    9  A    between atoms: C9_19  and  O3_20 
REMARK   10  A    between atoms: C9_19  and  C10_22 
REMARK   11  A    between atoms: C10_22  and  O4_23 
REMARK   12  A    between atoms: C11_25  and  O5_26 
REMARK   13  A    between atoms: C11_25  and  C12_28 
REMARK   14  A    between atoms: C12_28  and  N4_29 
REMARK   15  A    between atoms: C14_35  and  C15_36 
REMARK   16  A    between atoms: C17_39  and  N7_40 
ROOT
HETATM    1  C8  UNL     1     -19.446  24.353   1.903  1.00  0.00     0.160 C 
ENDROOT
BRANCH   1   2
HETATM    2  N3  UNL     1     -19.552  23.966   3.271  1.00  0.00    -0.324 N 
ATOM      3  H3  UNL     1     -20.022  24.550   3.961  1.00  0.00     0.180 HD
BRANCH   2   4
HETATM    4  N2  UNL     1     -18.983  22.760   3.607  1.00  0.00    -0.274 N 
ATOM      5  H2  UNL     1     -19.351  21.890   3.221  1.00  0.00     0.189 HD
BRANCH   4   6
HETATM    6  C7  UNL     1     -17.878  22.742   4.499  1.00  0.00     0.218 C 
HETATM    7  N1  UNL     1     -17.783  22.383   5.730  1.00  0.00    -0.302 N 
HETATM    8  C6  UNL     1     -16.428  22.573   6.137  1.00  0.00     0.287 C 
ATOM      9  H1  UNL     1     -18.541  22.026   6.312  1.00  0.00     0.168 HD
HETATM   10  C5  UNL     1     -15.860  21.443   6.950  1.00  0.00     0.168 C 
HETATM   11  O6  UNL     1     -15.661  22.646   4.953  1.00  0.00    -0.215 OA
HETATM   12  O7  UNL     1     -16.227  23.834   6.794  1.00  0.00    -0.238 OA
HETATM   13  C4  UNL     1     -14.507  21.794   7.475  1.00  0.00     0.210 C 
HETATM   14  O9  UNL     1     -14.015  23.037   7.021  1.00  0.00    -0.257 OA
HETATM   15  C18 UNL     1     -14.875  24.125   7.067  1.00  0.00     0.413 C 
HETATM   16  O8  UNL     1     -14.496  25.306   7.333  1.00  0.00    -0.229 OA
HETATM   17  N9  UNL     1     -16.566  23.171   4.101  1.00  0.00    -0.230 N 
ATOM     18  H9  UNL     1     -16.354  23.774   3.306  1.00  0.00     0.197 HD
BRANCH  13  19
HETATM   19  C2  UNL     1     -13.494  20.713   7.178  1.00  0.00     0.107 C 
HETATM   20  C1  UNL     1     -12.176  20.996   7.860  1.00  0.00     0.051 C 
HETATM   21  C3  UNL     1     -14.000  19.396   7.727  1.00  0.00     0.051 C 
BRANCH  19  22
HETATM   22  O1  UNL     1     -13.318  20.622   5.804  1.00  0.00    -0.385 OA
ATOM     23  H1  UNL     1     -13.278  21.489   5.417  1.00  0.00     0.210 HD
ENDBRANCH  19  22
ENDBRANCH  13  19
BRANCH  13  24
HETATM   24  O2  UNL     1     -14.586  21.891   8.884  1.00  0.00    -0.362 OA
ATOM     25  H2  UNL     1     -14.005  21.224   9.230  1.00  0.00     0.213 HD
ENDBRANCH  13  24
ENDBRANCH   4   6
ENDBRANCH   2   4
ENDBRANCH   1   2
BRANCH   1  26
HETATM   26  C9  UNL     1     -20.667  25.074   1.392  1.00  0.00     0.168 C 
BRANCH  26  27
HETATM   27  O3  UNL     1     -20.450  25.820   0.260  1.00  0.00    -0.391 OA
ATOM     28  H3  UNL     1     -21.026  25.607  -0.465  1.00  0.00     0.210 HD
ENDBRANCH  26  27
BRANCH  26  29
HETATM   29  C10 UNL     1     -21.200  26.011   2.458  1.00  0.00     0.198 C 
BRANCH  29  30
HETATM   30  O4  UNL     1     -22.253  25.348   3.093  1.00  0.00    -0.398 OA
ATOM     31  H4  UNL     1     -22.222  25.593   4.010  1.00  0.00     0.209 HD
ENDBRANCH  29  30
ENDBRANCH  26  29
ENDBRANCH   1  26
BRANCH   1  32
HETATM   32  C11 UNL     1     -18.171  25.113   1.600  1.00  0.00     0.164 C 
BRANCH  32  33
HETATM   33  O5  UNL     1     -17.674  25.835   2.637  1.00  0.00    -0.392 OA
ATOM     34  H5  UNL     1     -17.390  25.321   3.384  1.00  0.00     0.210 HD
ENDBRANCH  32  33
BRANCH  32  35
HETATM   35  C12 UNL     1     -17.167  24.257   0.873  1.00  0.00     0.184 C 
BRANCH  35  36
HETATM   36  N4  UNL     1     -17.521  24.078  -0.506  1.00  0.00    -0.272 N 
HETATM   37  N5  UNL     1     -17.625  25.173  -1.307  1.00  0.00    -0.240 N 
HETATM   38  N6  UNL     1     -17.926  24.815  -2.528  1.00  0.00    -0.295 N 
ATOM     39  H5  UNL     1     -17.487  26.136  -0.999  1.00  0.00     0.208 HD
HETATM   40  C13 UNL     1     -18.017  23.481  -2.509  1.00  0.00     0.142 A 
ATOM     41  H6  UNL     1     -18.062  25.429  -3.331  1.00  0.00     0.187 HD
HETATM   42  C14 UNL     1     -17.760  22.994  -1.215  1.00  0.00     0.096 A 
BRANCH  42  43
HETATM   43  C15 UNL     1     -17.829  21.572  -0.781  1.00  0.00     0.070 A 
HETATM   44  C16 UNL     1     -17.267  20.538  -1.458  1.00  0.00     0.085 A 
HETATM   45  S1  UNL     1     -17.688  19.169  -0.488  1.00  0.00    -0.064 SA
HETATM   46  C17 UNL     1     -18.546  19.993   0.707  1.00  0.00     0.142 A 
HETATM   47  N8  UNL     1     -18.486  21.259   0.337  1.00  0.00    -0.335 N 
ATOM     48  H8  UNL     1     -18.934  21.985   0.896  1.00  0.00     0.168 HD
BRANCH  46  49
HETATM   49  N7  UNL     1     -19.133  19.485   1.758  1.00  0.00    -0.380 N 
ATOM     50  H72 UNL     1     -20.019  18.979   1.804  1.00  0.00     0.158 HD
ATOM     51  H71 UNL     1     -18.806  19.508   2.724  1.00  0.00     0.158 HD
ENDBRANCH  46  49
ENDBRANCH  42  43
ENDBRANCH  35  36
ENDBRANCH  32  35
ENDBRANCH   1  32
TORSDOF 16
ENDMDL
MODEL 2
REMARK VINA RESULT: -8.687715284      1.527      2.536
REMARK  16 active torsions:
REMARK  status: ('A' for Active; 'I' for Inactive)
REMARK    1  A    between atoms: C2_2  and  O1_4 
REMARK    2  A    between atoms: C2_2  and  C4_6 
REMARK    3  A    between atoms: C4_6  and  O2_7 
REMARK    4  A    between atoms: C7_13  and  N2_14 
REMARK    5  A    between atoms: N2_14  and  N3_16 
REMARK    6  A    between atoms: N3_16  and  C8_18 
REMARK    7  A    between atoms: C8_18  and  C9_19 
REMARK    8  A    between atoms: C8_18  and  C11_25 
REMARK    9  A    between atoms: C9_19  and  O3_20 
REMARK   10  A    between atoms: C9_19  and  C10_22 
REMARK   11  A    between atoms: C10_22  and  O4_23 
REMARK   12  A    between atoms: C11_25  and  O5_26 
REMARK   13  A    between atoms: C11_25  and  C12_28 
REMARK   14  A    between atoms: C12_28  and  N4_29 
REMARK   15  A    between atoms: C14_35  and  C15_36 
REMARK   16  A    between atoms: C17_39  and  N7_40 
ROOT
HETATM    1  C8  UNL     1     -18.323  24.197   3.169  1.00  0.00     0.160 C 
ENDROOT
BRANCH   1   2
HETATM    2  N3  UNL     1     -18.110  25.206   4.153  1.00  0.00    -0.324 N 
ATOM      3  H3  UNL     1     -18.859  25.828   4.458  1.00  0.00     0.180 HD
BRANCH   2   4
HETATM    4  N2  UNL     1     -16.838  25.294   4.668  1.00  0.00    -0.274 N 
ATOM      5  H2  UNL     1     -16.307  26.161   4.586  1.00  0.00     0.189 HD
BRANCH   4   6
HETATM    6  C7  UNL     1     -16.275  24.162   5.315  1.00  0.00     0.218 C 
HETATM    7  N1  UNL     1     -15.426  23.284   4.910  1.00  0.00    -0.302 N 
HETATM    8  C6  UNL     1     -15.211  22.360   5.977  1.00  0.00     0.287 C 
ATOM      9  H1  UNL     1     -14.987  23.254   3.990  1.00  0.00     0.168 HD
HETATM   10  C5  UNL     1     -13.771  21.988   6.194  1.00  0.00     0.168 C 
HETATM   11  O6  UNL     1     -15.646  23.002   7.157  1.00  0.00    -0.215 OA
HETATM   12  O7  UNL     1     -16.035  21.190   5.859  1.00  0.00    -0.238 OA
HETATM   13  C4  UNL     1     -13.651  20.897   7.206  1.00  0.00     0.210 C 
HETATM   14  O9  UNL     1     -14.874  20.529   7.808  1.00  0.00    -0.257 OA
HETATM   15  C18 UNL     1     -15.967  20.331   6.975  1.00  0.00     0.413 C 
HETATM   16  O8  UNL     1     -16.853  19.448   7.182  1.00  0.00    -0.229 OA
HETATM   17  N9  UNL     1     -16.615  23.802   6.663  1.00  0.00    -0.230 N 
ATOM     18  H9  UNL     1     -17.451  24.101   7.165  1.00  0.00     0.197 HD
BRANCH  13  19
HETATM   19  C2  UNL     1     -12.645  21.238   8.280  1.00  0.00     0.107 C 
HETATM   20  C1  UNL     1     -12.814  22.661   8.757  1.00  0.00     0.051 C 
HETATM   21  C3  UNL     1     -12.876  20.342   9.478  1.00  0.00     0.051 C 
BRANCH  19  22
HETATM   22  O1  UNL     1     -11.364  21.046   7.779  1.00  0.00    -0.385 OA
ATOM     23  H1  UNL     1     -11.324  20.243   7.271  1.00  0.00     0.210 HD
ENDBRANCH  19  22
ENDBRANCH  13  19
BRANCH  13  24
HETATM   24  O2  UNL     1     -13.165  19.738   6.558  1.00  0.00    -0.362 OA
ATOM     25  H2  UNL     1     -13.595  18.999   6.973  1.00  0.00     0.213 HD
ENDBRANCH  13  24
ENDBRANCH   4   6
ENDBRANCH   2   4
ENDBRANCH   1   2
BRANCH   1  26
HETATM   26  C9  UNL     1     -19.551  23.362   3.428  1.00  0.00     0.168 C 
BRANCH  26  27
HETATM   27  O3  UNL     1     -20.531  24.004   4.142  1.00  0.00    -0.391 OA
ATOM     28  H3  UNL     1     -21.415  23.817   3.848  1.00  0.00     0.210 HD
ENDBRANCH  26  27
BRANCH  26  29
HETATM   29  C10 UNL     1     -19.174  22.111   4.197  1.00  0.00     0.198 C 
BRANCH  29  30
HETATM   30  O4  UNL     1     -17.925  21.702   3.722  1.00  0.00    -0.398 OA
ATOM     31  H4  UNL     1     -17.959  20.757   3.633  1.00  0.00     0.209 HD
ENDBRANCH  29  30
ENDBRANCH  26  29
ENDBRANCH   1  26
BRANCH   1  32
HETATM   32  C11 UNL     1     -18.292  24.735   1.754  1.00  0.00     0.164 C 
BRANCH  32  33
HETATM   33  O5  UNL     1     -18.464  26.078   1.647  1.00  0.00    -0.392 OA
ATOM     34  H5  UNL     1     -18.117  26.465   0.852  1.00  0.00     0.210 HD
ENDBRANCH  32  33
BRANCH  32  35
HETATM   35  C12 UNL     1     -17.140  24.170   0.963  1.00  0.00     0.184 C 
BRANCH  35  36
HETATM   36  N4  UNL     1     -17.483  23.987  -0.418  1.00  0.00    -0.272 N 
HETATM   37  N5  UNL     1     -17.552  25.078  -1.229  1.00  0.00    -0.240 N 
HETATM   38  N6  UNL     1     -17.848  24.716  -2.450  1.00  0.00    -0.295 N 
ATOM     39  H5  UNL     1     -17.396  26.039  -0.928  1.00  0.00     0.208 HD
HETATM   40  C13 UNL     1     -17.970  23.385  -2.421  1.00  0.00     0.142 A 
ATOM     41  H6  UNL     1     -17.962  25.325  -3.260  1.00  0.00     0.187 HD
HETATM   42  C14 UNL     1     -17.739  22.903  -1.120  1.00  0.00     0.096 A 
BRANCH  42  43
HETATM   43  C15 UNL     1     -17.845  21.487  -0.675  1.00  0.00     0.070 A 
HETATM   44  C16 UNL     1     -17.310  20.433  -1.343  1.00  0.00     0.085 A 
HETATM   45  S1  UNL     1     -17.768  19.084  -0.362  1.00  0.00    -0.064 SA
HETATM   46  C17 UNL     1     -18.606  19.939   0.824  1.00  0.00     0.142 A 
HETATM   47  N8  UNL     1     -18.512  21.200   0.445  1.00  0.00    -0.335 N 
ATOM     48  H8  UNL     1     -18.941  21.942   0.997  1.00  0.00     0.168 HD
BRANCH  46  49
HETATM   49  N7  UNL     1     -19.207  19.455   1.879  1.00  0.00    -0.380 N 
ATOM     50  H72 UNL     1     -19.555  18.507   2.028  1.00  0.00     0.158 HD
ATOM     51  H71 UNL     1     -19.436  19.946   2.744  1.00  0.00     0.158 HD
ENDBRANCH  46  49
ENDBRANCH  42  43
ENDBRANCH  35  36
ENDBRANCH  32  35
ENDBRANCH   1  32
TORSDOF 16
ENDMDL
MODEL 3
REMARK VINA RESULT: -8.493628020      3.631      9.138
REMARK  16 active torsions:
REMARK  status: ('A' for Active; 'I' for Inactive)
REMARK    1  A    between atoms: C2_2  and  O1_4 
REMARK    2  A    between atoms: C2_2  and  C4_6 
REMARK    3  A    between atoms: C4_6  and  O2_7 
REMARK    4  A    between atoms: C7_13  and  N2_14 
REMARK    5  A    between atoms: N2_14  and  N3_16 
REMARK    6  A    between atoms: N3_16  and  C8_18 
REMARK    7  A    between atoms: C8_18  and  C9_19 
REMARK    8  A    between atoms: C8_18  and  C11_25 
REMARK    9  A    between atoms: C9_19  and  O3_20 
REMARK   10  A    between atoms: C9_19  and  C10_22 
REMARK   11  A    between atoms: C10_22  and  O4_23 
REMARK   12  A    between atoms: C11_25  and  O5_26 
REMARK   13  A    between atoms: C11_25  and  C12_28 
REMARK   14  A    between atoms: C12_28  and  N4_29 
REMARK   15  A    between atoms: C14_35  and  C15_36 
REMARK   16  A    between atoms: C17_39  and  N7_40 
ROOT
HETATM    1  C8  UNL     1     -15.079  22.698   6.544  1.00  0.00     0.160 C 
ENDROOT
BRANCH   1   2
HETATM    2  N3  UNL     1     -16.362  23.038   6.023  1.00  0.00    -0.324 N 
ATOM      3  H3  UNL     1     -16.900  23.824   6.389  1.00  0.00     0.180 HD
BRANCH   2   4
HETATM    4  N2  UNL     1     -16.832  22.249   5.001  1.00  0.00    -0.274 N 
ATOM      5  H2  UNL     1     -16.802  21.232   5.078  1.00  0.00     0.189 HD
BRANCH   4   6
HETATM    6  C7  UNL     1     -17.360  22.868   3.836  1.00  0.00     0.218 C 
HETATM    7  N1  UNL     1     -17.101  23.999   3.282  1.00  0.00    -0.302 N 
HETATM    8  C6  UNL     1     -17.928  24.118   2.125  1.00  0.00     0.287 C 
ATOM      9  H1  UNL     1     -16.425  24.689   3.611  1.00  0.00     0.168 HD
HETATM   10  C5  UNL     1     -17.222  24.652   0.910  1.00  0.00     0.168 C 
HETATM   11  O6  UNL     1     -18.357  22.811   1.803  1.00  0.00    -0.215 OA
HETATM   12  O7  UNL     1     -19.132  24.855   2.388  1.00  0.00    -0.238 OA
HETATM   13  C4  UNL     1     -18.190  24.904  -0.199  1.00  0.00     0.210 C 
HETATM   14  O9  UNL     1     -19.512  24.498   0.084  1.00  0.00    -0.257 OA
HETATM   15  C18 UNL     1     -20.046  24.856   1.314  1.00  0.00     0.413 C 
HETATM   16  O8  UNL     1     -21.263  25.166   1.485  1.00  0.00    -0.229 OA
HETATM   17  N9  UNL     1     -18.370  22.244   3.028  1.00  0.00    -0.230 N 
ATOM     18  H9  UNL     1     -18.994  21.496   3.330  1.00  0.00     0.197 HD
BRANCH  13  19
HETATM   19  C2  UNL     1     -17.735  24.271  -1.494  1.00  0.00     0.107 C 
HETATM   20  C1  UNL     1     -16.308  24.646  -1.815  1.00  0.00     0.051 C 
HETATM   21  C3  UNL     1     -17.772  22.764  -1.347  1.00  0.00     0.051 C 
BRANCH  19  22
HETATM   22  O1  UNL     1     -18.584  24.672  -2.517  1.00  0.00    -0.385 OA
ATOM     23  H1  UNL     1     -19.339  25.127  -2.162  1.00  0.00     0.210 HD
ENDBRANCH  19  22
ENDBRANCH  13  19
BRANCH  13  24
HETATM   24  O2  UNL     1     -18.246  26.297  -0.435  1.00  0.00    -0.362 OA
ATOM     25  H2  UNL     1     -19.150  26.555  -0.299  1.00  0.00     0.213 HD
ENDBRANCH  13  24
ENDBRANCH   4   6
ENDBRANCH   2   4
ENDBRANCH   1   2
BRANCH   1  26
HETATM   26  C9  UNL     1     -14.840  23.229   7.934  1.00  0.00     0.168 C 
BRANCH  26  27
HETATM   27  O3  UNL     1     -15.948  23.780   8.528  1.00  0.00    -0.391 OA
ATOM     28  H3  UNL     1     -16.262  23.303   9.287  1.00  0.00     0.210 HD
ENDBRANCH  26  27
BRANCH  26  29
HETATM   29  C10 UNL     1     -13.763  24.296   7.903  1.00  0.00     0.198 C 
BRANCH  29  30
HETATM   30  O4  UNL     1     -12.566  23.678   8.273  1.00  0.00    -0.398 OA
ATOM     31  H4  UNL     1     -12.411  23.899   9.184  1.00  0.00     0.209 HD
ENDBRANCH  29  30
ENDBRANCH  26  29
ENDBRANCH   1  26
BRANCH   1  32
HETATM   32  C11 UNL     1     -14.774  21.218   6.443  1.00  0.00     0.164 C 
BRANCH  32  33
HETATM   33  O5  UNL     1     -13.940  20.873   5.428  1.00  0.00    -0.392 OA
ATOM     34  H5  UNL     1     -14.371  20.654   4.610  1.00  0.00     0.210 HD
ENDBRANCH  32  33
BRANCH  32  35
HETATM   35  C12 UNL     1     -14.436  20.621   7.784  1.00  0.00     0.184 C 
BRANCH  35  36
HETATM   36  N4  UNL     1     -13.071  20.183   7.842  1.00  0.00    -0.272 N 
HETATM   37  N5  UNL     1     -12.127  20.876   7.148  1.00  0.00    -0.240 N 
HETATM   38  N6  UNL     1     -10.946  20.351   7.343  1.00  0.00    -0.295 N 
ATOM     39  H5  UNL     1     -12.315  21.688   6.561  1.00  0.00     0.208 HD
HETATM   40  C13 UNL     1     -11.134  19.314   8.166  1.00  0.00     0.142 A 
ATOM     41  H6  UNL     1     -10.060  20.668   6.947  1.00  0.00     0.187 HD
HETATM   42  C14 UNL     1     -12.496  19.194   8.495  1.00  0.00     0.096 A 
BRANCH  42  43
HETATM   43  C15 UNL     1     -13.107  18.129   9.334  1.00  0.00     0.070 A 
HETATM   44  C16 UNL     1     -12.660  17.774  10.566  1.00  0.00     0.085 A 
HETATM   45  S1  UNL     1     -13.744  16.504  11.018  1.00  0.00    -0.064 SA
HETATM   46  C17 UNL     1     -14.688  16.503   9.621  1.00  0.00     0.142 A 
HETATM   47  N8  UNL     1     -14.160  17.451   8.870  1.00  0.00    -0.335 N 
ATOM     48  H8  UNL     1     -14.549  17.663   7.951  1.00  0.00     0.168 HD
BRANCH  46  49
HETATM   49  N7  UNL     1     -15.711  15.735   9.352  1.00  0.00    -0.380 N 
ATOM     50  H72 UNL     1     -16.519  15.532   9.941  1.00  0.00     0.158 HD
ATOM     51  H71 UNL     1     -15.879  15.199   8.500  1.00  0.00     0.158 HD
ENDBRANCH  46  49
ENDBRANCH  42  43
ENDBRANCH  35  36
ENDBRANCH  32  35
ENDBRANCH   1  32
TORSDOF 16
ENDMDL
MODEL 4
REMARK VINA RESULT: -8.455600021      2.818      4.870
REMARK  16 active torsions:
REMARK  status: ('A' for Active; 'I' for Inactive)
REMARK    1  A    between atoms: C2_2  and  O1_4 
REMARK    2  A    between atoms: C2_2  and  C4_6 
REMARK    3  A    between atoms: C4_6  and  O2_7 
REMARK    4  A    between atoms: C7_13  and  N2_14 
REMARK    5  A    between atoms: N2_14  and  N3_16 
REMARK    6  A    between atoms: N3_16  and  C8_18 
REMARK    7  A    between atoms: C8_18  and  C9_19 
REMARK    8  A    between atoms: C8_18  and  C11_25 
REMARK    9  A    between atoms: C9_19  and  O3_20 
REMARK   10  A    between atoms: C9_19  and  C10_22 
REMARK   11  A    between atoms: C10_22  and  O4_23 
REMARK   12  A    between atoms: C11_25  and  O5_26 
REMARK   13  A    between atoms: C11_25  and  C12_28 
REMARK   14  A    between atoms: C12_28  and  N4_29 
REMARK   15  A    between atoms: C14_35  and  C15_36 
REMARK   16  A    between atoms: C17_39  and  N7_40 
ROOT
HETATM    1  C8  UNL     1     -19.296  24.596   0.781  1.00  0.00     0.160 C 
ENDROOT
BRANCH   1   2
HETATM    2  N3  UNL     1     -17.937  25.002   0.920  1.00  0.00    -0.324 N 
ATOM      3  H3  UNL     1     -17.248  24.840   0.185  1.00  0.00     0.180 HD
BRANCH   2   4
HETATM    4  N2  UNL     1     -17.606  25.626   2.100  1.00  0.00    -0.274 N 
ATOM      5  H2  UNL     1     -17.582  26.644   2.156  1.00  0.00     0.189 HD
BRANCH   4   6
HETATM    6  C7  UNL     1     -17.298  24.833   3.237  1.00  0.00     0.218 C 
HETATM    7  N1  UNL     1     -16.373  23.964   3.445  1.00  0.00    -0.302 N 
HETATM    8  C6  UNL     1     -16.530  23.468   4.774  1.00  0.00     0.287 C 
ATOM      9  H1  UNL     1     -15.655  23.680   2.778  1.00  0.00     0.168 HD
HETATM   10  C5  UNL     1     -15.245  23.339   5.544  1.00  0.00     0.168 C 
HETATM   11  O6  UNL     1     -17.322  24.412   5.463  1.00  0.00    -0.215 OA
HETATM   12  O7  UNL     1     -17.281  22.245   4.815  1.00  0.00    -0.238 OA
HETATM   13  C4  UNL     1     -15.476  22.659   6.852  1.00  0.00     0.210 C 
HETATM   14  O9  UNL     1     -16.832  22.383   7.130  1.00  0.00    -0.257 OA
HETATM   15  C18 UNL     1     -17.592  21.811   6.119  1.00  0.00     0.413 C 
HETATM   16  O8  UNL     1     -18.506  20.957   6.330  1.00  0.00    -0.229 OA
HETATM   17  N9  UNL     1     -18.067  24.901   4.448  1.00  0.00    -0.230 N 
ATOM     18  H9  UNL     1     -19.018  25.259   4.529  1.00  0.00     0.197 HD
BRANCH  13  19
HETATM   19  C2  UNL     1     -14.875  23.436   8.001  1.00  0.00     0.107 C 
HETATM   20  C1  UNL     1     -13.910  22.585   8.792  1.00  0.00     0.051 C 
HETATM   21  C3  UNL     1     -14.084  24.602   7.449  1.00  0.00     0.051 C 
BRANCH  19  22
HETATM   22  O1  UNL     1     -15.898  23.897   8.820  1.00  0.00    -0.385 OA
ATOM     23  H1  UNL     1     -16.458  24.498   8.343  1.00  0.00     0.210 HD
ENDBRANCH  19  22
ENDBRANCH  13  19
BRANCH  13  24
HETATM   24  O2  UNL     1     -14.815  21.409   6.829  1.00  0.00    -0.362 OA
ATOM     25  H2  UNL     1     -15.427  20.776   7.185  1.00  0.00     0.213 HD
ENDBRANCH  13  24
ENDBRANCH   4   6
ENDBRANCH   2   4
ENDBRANCH   1   2
BRANCH   1  26
HETATM   26  C9  UNL     1     -19.573  23.232   1.359  1.00  0.00     0.168 C 
BRANCH  26  27
HETATM   27  O3  UNL     1     -19.457  23.163   2.725  1.00  0.00    -0.391 OA
ATOM     28  H3  UNL     1     -20.287  23.145   3.187  1.00  0.00     0.210 HD
ENDBRANCH  26  27
BRANCH  26  29
HETATM   29  C10 UNL     1     -18.616  22.215   0.769  1.00  0.00     0.198 C 
BRANCH  29  30
HETATM   30  O4  UNL     1     -17.808  21.762   1.815  1.00  0.00    -0.398 OA
ATOM     31  H4  UNL     1     -18.215  22.051   2.624  1.00  0.00     0.209 HD
ENDBRANCH  29  30
ENDBRANCH  26  29
ENDBRANCH   1  26
BRANCH   1  32
HETATM   32  C11 UNL     1     -20.278  25.634   1.283  1.00  0.00     0.164 C 
BRANCH  32  33
HETATM   33  O5  UNL     1     -20.232  26.827   0.635  1.00  0.00    -0.392 OA
ATOM     34  H5  UNL     1     -20.964  27.407   0.810  1.00  0.00     0.210 HD
ENDBRANCH  32  33
BRANCH  32  35
HETATM   35  C12 UNL     1     -21.657  25.058   1.473  1.00  0.00     0.184 C 
BRANCH  35  36
HETATM   36  N4  UNL     1     -22.299  25.590   2.640  1.00  0.00    -0.272 N 
HETATM   37  N5  UNL     1     -22.400  26.940   2.779  1.00  0.00    -0.240 N 
HETATM   38  N6  UNL     1     -23.036  27.236   3.882  1.00  0.00    -0.295 N 
ATOM     39  H5  UNL     1     -22.034  27.623   2.116  1.00  0.00     0.208 HD
HETATM   40  C13 UNL     1     -23.342  26.068   4.456  1.00  0.00     0.142 A 
ATOM     41  H6  UNL     1     -23.254  28.169   4.234  1.00  0.00     0.187 HD
HETATM   42  C14 UNL     1     -22.874  25.000   3.668  1.00  0.00     0.096 A 
BRANCH  42  43
HETATM   43  C15 UNL     1     -22.967  23.554   4.003  1.00  0.00     0.070 A 
HETATM   44  C16 UNL     1     -24.131  22.859   4.076  1.00  0.00     0.085 A 
HETATM   45  S1  UNL     1     -23.603  21.269   4.505  1.00  0.00    -0.064 SA
HETATM   46  C17 UNL     1     -21.949  21.587   4.566  1.00  0.00     0.142 A 
HETATM   47  N8  UNL     1     -21.852  22.868   4.263  1.00  0.00    -0.335 N 
ATOM     48  H8  UNL     1     -20.941  23.326   4.228  1.00  0.00     0.168 HD
BRANCH  46  49
HETATM   49  N7  UNL     1     -20.987  20.748   4.849  1.00  0.00    -0.380 N 
ATOM     50  H72 UNL     1     -21.065  19.790   5.192  1.00  0.00     0.158 HD
ATOM     51  H71 UNL     1     -19.982  20.908   4.776  1.00  0.00     0.158 HD
ENDBRANCH  46  49
ENDBRANCH  42  43
ENDBRANCH  35  36
ENDBRANCH  32  35
ENDBRANCH   1  32
TORSDOF 16
ENDMDL
MODEL 5
REMARK VINA RESULT: -8.383183788      3.529      5.614
REMARK  16 active torsions:
REMARK  status: ('A' for Active; 'I' for Inactive)
REMARK    1  A    between atoms: C2_2  and  O1_4 
REMARK    2  A    between atoms: C2_2  and  C4_6 
REMARK    3  A    between atoms: C4_6  and  O2_7 
REMARK    4  A    between atoms: C7_13  and  N2_14 
REMARK    5  A    between atoms: N2_14  and  N3_16 
REMARK    6  A    between atoms: N3_16  and  C8_18 
REMARK    7  A    between atoms: C8_18  and  C9_19 
REMARK    8  A    between atoms: C8_18  and  C11_25 
REMARK    9  A    between atoms: C9_19  and  O3_20 
REMARK   10  A    between atoms: C9_19  and  C10_22 
REMARK   11  A    between atoms: C10_22  and  O4_23 
REMARK   12  A    between atoms: C11_25  and  O5_26 
REMARK   13  A    between atoms: C11_25  and  C12_28 
REMARK   14  A    between atoms: C12_28  and  N4_29 
REMARK   15  A    between atoms: C14_35  and  C15_36 
REMARK   16  A    between atoms: C17_39  and  N7_40 
ROOT
HETATM    1  C8  UNL     1     -20.450  24.618   1.896  1.00  0.00     0.160 C 
ENDROOT
BRANCH   1   2
HETATM    2  N3  UNL     1     -20.154  23.368   1.279  1.00  0.00    -0.324 N 
ATOM      3  H3  UNL     1     -20.173  23.248   0.267  1.00  0.00     0.180 HD
BRANCH   2   4
HETATM    4  N2  UNL     1     -19.840  22.331   2.126  1.00  0.00    -0.274 N 
ATOM      5  H2  UNL     1     -20.315  21.433   2.042  1.00  0.00     0.189 HD
BRANCH   4   6
HETATM    6  C7  UNL     1     -18.845  22.529   3.121  1.00  0.00     0.218 C 
HETATM    7  N1  UNL     1     -18.898  22.458   4.404  1.00  0.00    -0.302 N 
HETATM    8  C6  UNL     1     -17.596  22.753   4.911  1.00  0.00     0.287 C 
ATOM      9  H1  UNL     1     -19.723  22.232   4.960  1.00  0.00     0.168 HD
HETATM   10  C5  UNL     1     -17.141  21.843   6.018  1.00  0.00     0.168 C 
HETATM   11  O6  UNL     1     -16.697  22.568   3.839  1.00  0.00    -0.215 OA
HETATM   12  O7  UNL     1     -17.456  24.132   5.286  1.00  0.00    -0.238 OA
HETATM   13  C4  UNL     1     -15.854  22.321   6.603  1.00  0.00     0.210 C 
HETATM   14  O9  UNL     1     -15.296  23.436   5.941  1.00  0.00    -0.257 OA
HETATM   15  C18 UNL     1     -16.141  24.495   5.641  1.00  0.00     0.413 C 
HETATM   16  O8  UNL     1     -15.779  25.710   5.676  1.00  0.00    -0.229 OA
HETATM   17  N9  UNL     1     -17.491  22.875   2.791  1.00  0.00    -0.230 N 
ATOM     18  H9  UNL     1     -17.180  23.286   1.911  1.00  0.00     0.197 HD
BRANCH  13  19
HETATM   19  C2  UNL     1     -14.827  21.214   6.677  1.00  0.00     0.107 C 
HETATM   20  C1  UNL     1     -13.709  21.568   7.628  1.00  0.00     0.051 C 
HETATM   21  C3  UNL     1     -15.487  19.964   7.218  1.00  0.00     0.051 C 
BRANCH  19  22
HETATM   22  O1  UNL     1     -14.324  20.978   5.405  1.00  0.00    -0.385 OA
ATOM     23  H1  UNL     1     -14.641  20.146   5.072  1.00  0.00     0.210 HD
ENDBRANCH  19  22
ENDBRANCH  13  19
BRANCH  13  24
HETATM   24  O2  UNL     1     -16.093  22.732   7.935  1.00  0.00    -0.362 OA
ATOM     25  H2  UNL     1     -16.077  21.944   8.465  1.00  0.00     0.213 HD
ENDBRANCH  13  24
ENDBRANCH   4   6
ENDBRANCH   2   4
ENDBRANCH   1   2
BRANCH   1  26
HETATM   26  C9  UNL     1     -19.752  25.785   1.245  1.00  0.00     0.168 C 
BRANCH  26  27
HETATM   27  O3  UNL     1     -20.543  26.512   0.391  1.00  0.00    -0.391 OA
ATOM     28  H3  UNL     1     -20.495  26.237  -0.516  1.00  0.00     0.210 HD
ENDBRANCH  26  27
BRANCH  26  29
HETATM   29  C10 UNL     1     -18.557  25.295   0.451  1.00  0.00     0.198 C 
BRANCH  29  30
HETATM   30  O4  UNL     1     -18.886  25.423  -0.901  1.00  0.00    -0.398 OA
ATOM     31  H4  UNL     1     -18.237  25.998  -1.291  1.00  0.00     0.209 HD
ENDBRANCH  29  30
ENDBRANCH  26  29
ENDBRANCH   1  26
BRANCH   1  32
HETATM   32  C11 UNL     1     -21.937  24.863   2.051  1.00  0.00     0.164 C 
BRANCH  32  33
HETATM   33  O5  UNL     1     -22.690  24.522   0.974  1.00  0.00    -0.392 OA
ATOM     34  H5  UNL     1     -23.628  24.613   1.095  1.00  0.00     0.210 HD
ENDBRANCH  32  33
BRANCH  32  35
HETATM   35  C12 UNL     1     -22.452  24.368   3.378  1.00  0.00     0.184 C 
BRANCH  35  36
HETATM   36  N4  UNL     1     -23.131  25.403   4.104  1.00  0.00    -0.272 N 
HETATM   37  N5  UNL     1     -23.118  26.671   3.611  1.00  0.00    -0.240 N 
HETATM   38  N6  UNL     1     -23.807  27.466   4.386  1.00  0.00    -0.295 N 
ATOM     39  H5  UNL     1     -22.638  26.959   2.758  1.00  0.00     0.208 HD
HETATM   40  C13 UNL     1     -24.264  26.702   5.384  1.00  0.00     0.142 A 
ATOM     41  H6  UNL     1     -23.965  28.465   4.256  1.00  0.00     0.187 HD
HETATM   42  C14 UNL     1     -23.837  25.373   5.215  1.00  0.00     0.096 A 
BRANCH  42  43
HETATM   43  C15 UNL     1     -24.089  24.243   6.150  1.00  0.00     0.070 A 
HETATM   44  C16 UNL     1     -24.983  23.246   5.922  1.00  0.00     0.085 A 
HETATM   45  S1  UNL     1     -24.834  22.264   7.338  1.00  0.00    -0.064 SA
HETATM   46  C17 UNL     1     -23.656  23.178   8.125  1.00  0.00     0.142 A 
HETATM   47  N8  UNL     1     -23.416  24.181   7.301  1.00  0.00    -0.335 N 
ATOM     48  H8  UNL     1     -22.730  24.897   7.539  1.00  0.00     0.168 HD
BRANCH  46  49
HETATM   49  N7  UNL     1     -23.107  22.938   9.287  1.00  0.00    -0.380 N 
ATOM     50  H72 UNL     1     -23.142  23.510  10.131  1.00  0.00     0.158 HD
ATOM     51  H71 UNL     1     -22.543  22.131   9.553  1.00  0.00     0.158 HD
ENDBRANCH  46  49
ENDBRANCH  42  43
ENDBRANCH  35  36
ENDBRANCH  32  35
ENDBRANCH   1  32
TORSDOF 16
ENDMDL
