MODEL 1
REMARK VINA RESULT: -8.389477795      0.000      0.000
REMARK  15 active torsions:
REMARK  status: ('A' for Active; 'I' for Inactive)
REMARK    1  A    between atoms: C2_2  and  O2_4 
REMARK    2  A    between atoms: O2_4  and  C3_5 
REMARK    3  A    between atoms: C3_5  and  C4_6 
REMARK    4  A    between atoms: C3_5  and  C6_15 
REMARK    5  A    between atoms: C6_15  and  N5_16 
REMARK    6  A    between atoms: C6_15  and  C19_48 
REMARK    7  A    between atoms: N5_16  and  C7_18 
REMARK    8  A    between atoms: C8_19  and  O3_20 
REMARK    9  A    between atoms: C10_23  and  N6_24 
REMARK   10  A    between atoms: N6_24  and  C11_26 
REMARK   11  A    between atoms: C14_35  and  C15_36 
REMARK   12  A    between atoms: C15_36  and  O5_37 
REMARK   13  A    between atoms: C15_36  and  O6_39 
REMARK   14  A    between atoms: C19_48  and  O9_49 
REMARK   15  A    between atoms: C19_48  and  O10_51 
ROOT
HETATM    1  C7  UNL     1     -19.332  24.626   1.286  1.00  0.00     0.132 C 
HETATM    2  C8  UNL     1     -18.846  23.326   1.479  1.00  0.00     0.113 C 
HETATM    3  C9  UNL     1     -18.422  22.471   0.453  1.00  0.00     0.069 A 
HETATM    4  C10 UNL     1     -18.587  21.113   0.436  1.00  0.00     0.160 A 
HETATM    5  O4  UNL     1     -18.008  20.707  -0.672  1.00  0.00    -0.291 OA
HETATM    6  C14 UNL     1     -17.488  21.678  -1.377  1.00  0.00     0.126 A 
HETATM    7  C16 UNL     1     -17.732  22.840  -0.690  1.00  0.00     0.084 A 
HETATM    8  C17 UNL     1     -17.394  24.106  -1.068  1.00  0.00     0.262 C 
HETATM    9  O7  UNL     1     -16.437  24.206  -1.830  1.00  0.00    -0.267 OA
HETATM   10  N10 UNL     1     -17.985  25.284  -0.711  1.00  0.00    -0.288 N 
ATOM     11  H10 UNL     1     -17.666  26.128  -1.189  1.00  0.00     0.172 HD
HETATM   12  C18 UNL     1     -18.972  25.437   0.238  1.00  0.00     0.277 C 
HETATM   13  O8  UNL     1     -19.617  26.507   0.070  1.00  0.00    -0.266 OA
ENDROOT
BRANCH   1  14
HETATM   14  N5  UNL     1     -20.236  25.096   2.237  1.00  0.00    -0.371 N 
ATOM     15  H5  UNL     1     -19.832  25.549   3.057  1.00  0.00     0.160 HD
BRANCH  14  16
HETATM   16  C6  UNL     1     -21.660  25.016   2.199  1.00  0.00     0.174 C 
BRANCH  16  17
HETATM   17  C3  UNL     1     -22.237  24.521   3.479  1.00  0.00     0.229 C 
BRANCH  17  18
HETATM   18  O2  UNL     1     -21.335  23.699   4.202  1.00  0.00    -0.306 OA
BRANCH  18  19
HETATM   19  C2  UNL     1     -21.448  22.328   4.318  1.00  0.00     0.255 C 
HETATM   20  C1  UNL     1     -21.614  21.649   5.637  1.00  0.00     0.126 C 
HETATM   21  O1  UNL     1     -21.406  21.637   3.260  1.00  0.00    -0.266 OA
ENDBRANCH  18  19
ENDBRANCH  17  18
BRANCH  17  22
HETATM   22  C4  UNL     1     -22.861  25.538   4.348  1.00  0.00     0.147 A 
HETATM   23  N1  UNL     1     -22.568  26.873   4.326  1.00  0.00    -0.270 N 
HETATM   24  N2  UNL     1     -23.298  27.509   5.206  1.00  0.00    -0.227 N 
ATOM     25  H1  UNL     1     -21.881  27.310   3.712  1.00  0.00     0.190 HD
HETATM   26  N3  UNL     1     -24.049  26.612   5.785  1.00  0.00    -0.225 N 
ATOM     27  H2  UNL     1     -23.282  28.510   5.401  1.00  0.00     0.210 HD
HETATM   28  N4  UNL     1     -23.810  25.413   5.293  1.00  0.00    -0.266 N 
ATOM     29  H3  UNL     1     -24.728  26.812   6.520  1.00  0.00     0.210 HD
HETATM   30  C5  UNL     1     -24.457  24.173   5.683  1.00  0.00     0.181 C 
ENDBRANCH  17  22
ENDBRANCH  16  17
BRANCH  16  31
HETATM   31  C19 UNL     1     -22.219  24.399   0.953  1.00  0.00     0.279 C 
BRANCH  31  32
HETATM   32  O9  UNL     1     -23.097  25.360   0.391  1.00  0.00    -0.369 OA
ATOM     33  H9  UNL     1     -22.596  26.163   0.307  1.00  0.00     0.212 HD
ENDBRANCH  31  32
BRANCH  31  34
HETATM   34  O10 UNL     1     -23.040  23.330   1.299  1.00  0.00    -0.369 OA
ATOM     35  H10 UNL     1     -22.500  22.587   1.542  1.00  0.00     0.212 HD
ENDBRANCH  31  34
ENDBRANCH  16  31
ENDBRANCH  14  16
ENDBRANCH   1  14
BRANCH   2  36
HETATM   36  O3  UNL     1     -18.761  22.810   2.730  1.00  0.00    -0.357 OA
ATOM     37  H3  UNL     1     -18.254  22.022   2.886  1.00  0.00     0.217 HD
ENDBRANCH   2  36
BRANCH   4  38
HETATM   38  N6  UNL     1     -19.257  20.311   1.411  1.00  0.00    -0.347 N 
ATOM     39  H6  UNL     1     -20.035  20.708   1.938  1.00  0.00     0.163 HD
BRANCH  38  40
HETATM   40  C11 UNL     1     -18.853  18.947   1.662  1.00  0.00     0.203 A 
HETATM   41  C12 UNL     1     -19.979  18.177   2.317  1.00  0.00     0.169 A 
HETATM   42  N7  UNL     1     -20.269  17.113   1.382  1.00  0.00    -0.361 N 
HETATM   43  C13 UNL     1     -19.353  17.211   0.323  1.00  0.00     0.185 A 
ATOM     44  H7  UNL     1     -21.007  16.416   1.475  1.00  0.00     0.162 HD
HETATM   45  N8  UNL     1     -19.278  16.309  -0.799  1.00  0.00    -0.064 NA
HETATM   46  N9  UNL     1     -18.565  18.219   0.466  1.00  0.00    -0.342 N 
ATOM     47  H9  UNL     1     -17.827  18.468  -0.192  1.00  0.00     0.164 HD
ENDBRANCH  38  40
ENDBRANCH   4  38
BRANCH   6  48
HETATM   48  C15 UNL     1     -16.768  21.541  -2.684  1.00  0.00     0.314 C 
BRANCH  48  49
HETATM   49  O5  UNL     1     -17.573  22.293  -3.594  1.00  0.00    -0.365 OA
ATOM     50  H5  UNL     1     -16.948  22.855  -4.036  1.00  0.00     0.213 HD
ENDBRANCH  48  49
BRANCH  48  51
HETATM   51  O6  UNL     1     -16.795  20.245  -3.175  1.00  0.00    -0.365 OA
ATOM     52  H6  UNL     1     -17.161  20.194  -4.051  1.00  0.00     0.213 HD
ENDBRANCH  48  51
ENDBRANCH   6  48
TORSDOF 15
ENDMDL
MODEL 2
REMARK VINA RESULT: -8.261968121      4.483      6.796
REMARK  15 active torsions:
REMARK  status: ('A' for Active; 'I' for Inactive)
REMARK    1  A    between atoms: C2_2  and  O2_4 
REMARK    2  A    between atoms: O2_4  and  C3_5 
REMARK    3  A    between atoms: C3_5  and  C4_6 
REMARK    4  A    between atoms: C3_5  and  C6_15 
REMARK    5  A    between atoms: C6_15  and  N5_16 
REMARK    6  A    between atoms: C6_15  and  C19_48 
REMARK    7  A    between atoms: N5_16  and  C7_18 
REMARK    8  A    between atoms: C8_19  and  O3_20 
REMARK    9  A    between atoms: C10_23  and  N6_24 
REMARK   10  A    between atoms: N6_24  and  C11_26 
REMARK   11  A    between atoms: C14_35  and  C15_36 
REMARK   12  A    between atoms: C15_36  and  O5_37 
REMARK   13  A    between atoms: C15_36  and  O6_39 
REMARK   14  A    between atoms: C19_48  and  O9_49 
REMARK   15  A    between atoms: C19_48  and  O10_51 
ROOT
HETATM    1  C7  UNL     1     -17.031  23.675   3.454  1.00  0.00     0.132 C 
HETATM    2  C8  UNL     1     -18.198  22.900   3.428  1.00  0.00     0.113 C 
HETATM    3  C9  UNL     1     -19.488  23.405   3.215  1.00  0.00     0.069 A 
HETATM    4  C10 UNL     1     -20.628  22.934   3.804  1.00  0.00     0.160 A 
HETATM    5  O4  UNL     1     -21.604  23.653   3.295  1.00  0.00    -0.291 OA
HETATM    6  C14 UNL     1     -21.200  24.550   2.434  1.00  0.00     0.126 A 
HETATM    7  C16 UNL     1     -19.835  24.430   2.350  1.00  0.00     0.084 A 
HETATM    8  C17 UNL     1     -18.988  25.185   1.594  1.00  0.00     0.262 C 
HETATM    9  O7  UNL     1     -19.472  25.708   0.596  1.00  0.00    -0.267 OA
HETATM   10  N10 UNL     1     -17.662  25.440   1.805  1.00  0.00    -0.288 N 
ATOM     11  H10 UNL     1     -17.219  26.127   1.194  1.00  0.00     0.172 HD
HETATM   12  C18 UNL     1     -16.871  24.853   2.767  1.00  0.00     0.277 C 
HETATM   13  O8  UNL     1     -15.851  25.550   3.019  1.00  0.00    -0.266 OA
ENDROOT
BRANCH   1  14
HETATM   14  N5  UNL     1     -15.984  23.190   4.236  1.00  0.00    -0.371 N 
ATOM     15  H5  UNL     1     -15.299  22.604   3.758  1.00  0.00     0.160 HD
BRANCH  14  16
HETATM   16  C6  UNL     1     -15.759  23.416   5.627  1.00  0.00     0.174 C 
BRANCH  16  17
HETATM   17  C3  UNL     1     -15.743  22.152   6.414  1.00  0.00     0.229 C 
BRANCH  17  18
HETATM   18  O2  UNL     1     -16.618  21.168   5.884  1.00  0.00    -0.306 OA
BRANCH  18  19
HETATM   19  C2  UNL     1     -17.585  20.509   6.615  1.00  0.00     0.255 C 
HETATM   20  C1  UNL     1     -17.319  19.212   7.306  1.00  0.00     0.126 C 
HETATM   21  O1  UNL     1     -18.733  21.034   6.692  1.00  0.00    -0.266 OA
ENDBRANCH  18  19
ENDBRANCH  17  18
BRANCH  17  22
HETATM   22  C4  UNL     1     -14.412  21.590   6.714  1.00  0.00     0.147 A 
HETATM   23  N1  UNL     1     -13.755  20.674   5.940  1.00  0.00    -0.270 N 
HETATM   24  N2  UNL     1     -12.595  20.386   6.470  1.00  0.00    -0.227 N 
ATOM     25  H1  UNL     1     -14.118  20.274   5.074  1.00  0.00     0.190 HD
HETATM   26  N3  UNL     1     -12.496  21.097   7.561  1.00  0.00    -0.225 N 
ATOM     27  H2  UNL     1     -11.902  19.733   6.103  1.00  0.00     0.210 HD
HETATM   28  N4  UNL     1     -13.574  21.833   7.738  1.00  0.00    -0.266 N 
ATOM     29  H3  UNL     1     -11.693  21.084   8.190  1.00  0.00     0.210 HD
HETATM   30  C5  UNL     1     -13.822  22.753   8.833  1.00  0.00     0.181 C 
ENDBRANCH  17  22
ENDBRANCH  16  17
BRANCH  16  31
HETATM   31  C19 UNL     1     -16.560  24.538   6.216  1.00  0.00     0.279 C 
BRANCH  31  32
HETATM   32  O9  UNL     1     -15.892  25.735   5.856  1.00  0.00    -0.369 OA
ATOM     33  H9  UNL     1     -14.994  25.641   6.152  1.00  0.00     0.212 HD
ENDBRANCH  31  32
BRANCH  31  34
HETATM   34  O10 UNL     1     -16.470  24.485   7.604  1.00  0.00    -0.369 OA
ATOM     35  H10 UNL     1     -16.884  25.256   7.974  1.00  0.00     0.212 HD
ENDBRANCH  31  34
ENDBRANCH  16  31
ENDBRANCH  14  16
ENDBRANCH   1  14
BRANCH   2  36
HETATM   36  O3  UNL     1     -18.129  21.560   3.617  1.00  0.00    -0.357 OA
ATOM     37  H3  UNL     1     -18.360  21.184   4.458  1.00  0.00     0.217 HD
ENDBRANCH   2  36
BRANCH   4  38
HETATM   38  N6  UNL     1     -20.733  21.890   4.775  1.00  0.00    -0.347 N 
ATOM     39  H6  UNL     1     -20.389  22.050   5.721  1.00  0.00     0.163 HD
BRANCH  38  40
HETATM   40  C11 UNL     1     -21.319  20.613   4.439  1.00  0.00     0.203 A 
HETATM   41  C12 UNL     1     -21.030  20.266   2.994  1.00  0.00     0.169 A 
HETATM   42  N7  UNL     1     -20.272  19.037   3.072  1.00  0.00    -0.361 N 
HETATM   43  C13 UNL     1     -20.191  18.667   4.424  1.00  0.00     0.185 A 
ATOM     44  H7  UNL     1     -19.868  18.530   2.286  1.00  0.00     0.162 HD
HETATM   45  N8  UNL     1     -19.552  17.476   4.924  1.00  0.00    -0.064 NA
HETATM   46  N9  UNL     1     -20.766  19.529   5.188  1.00  0.00    -0.342 N 
ATOM     47  H9  UNL     1     -20.820  19.448   6.204  1.00  0.00     0.164 HD
ENDBRANCH  38  40
ENDBRANCH   4  38
BRANCH   6  48
HETATM   48  C15 UNL     1     -22.063  25.521   1.689  1.00  0.00     0.314 C 
BRANCH  48  49
HETATM   49  O5  UNL     1     -23.142  25.775   2.590  1.00  0.00    -0.365 OA
ATOM     50  H5  UNL     1     -22.710  25.922   3.424  1.00  0.00     0.213 HD
ENDBRANCH  48  49
BRANCH  48  51
HETATM   51  O6  UNL     1     -22.659  24.957   0.572  1.00  0.00    -0.365 OA
ATOM     52  H6  UNL     1     -22.845  25.597  -0.105  1.00  0.00     0.213 HD
ENDBRANCH  48  51
ENDBRANCH   6  48
TORSDOF 15
ENDMDL
MODEL 3
REMARK VINA RESULT: -8.023903109      1.054      1.348
REMARK  15 active torsions:
REMARK  status: ('A' for Active; 'I' for Inactive)
REMARK    1  A    between atoms: C2_2  and  O2_4 
REMARK    2  A    between atoms: O2_4  and  C3_5 
REMARK    3  A    between atoms: C3_5  and  C4_6 
REMARK    4  A    between atoms: C3_5  and  C6_15 
REMARK    5  A    between atoms: C6_15  and  N5_16 
REMARK    6  A    between atoms: C6_15  and  C19_48 
REMARK    7  A    between atoms: N5_16  and  C7_18 
REMARK    8  A    between atoms: C8_19  and  O3_20 
REMARK    9  A    between atoms: C10_23  and  N6_24 
REMARK   10  A    between atoms: N6_24  and  C11_26 
REMARK   11  A    between atoms: C14_35  and  C15_36 
REMARK   12  A    between atoms: C15_36  and  O5_37 
REMARK   13  A    between atoms: C15_36  and  O6_39 
REMARK   14  A    between atoms: C19_48  and  O9_49 
REMARK   15  A    between atoms: C19_48  and  O10_51 
ROOT
HETATM    1  C7  UNL     1     -19.539  24.457   1.586  1.00  0.00     0.132 C 
HETATM    2  C8  UNL     1     -18.781  23.280   1.651  1.00  0.00     0.113 C 
HETATM    3  C9  UNL     1     -18.293  22.582   0.538  1.00  0.00     0.069 A 
HETATM    4  C10 UNL     1     -18.178  21.223   0.447  1.00  0.00     0.160 A 
HETATM    5  O4  UNL     1     -17.640  20.999  -0.732  1.00  0.00    -0.291 OA
HETATM    6  C14 UNL     1     -17.401  22.088  -1.414  1.00  0.00     0.126 A 
HETATM    7  C16 UNL     1     -17.809  23.141  -0.633  1.00  0.00     0.084 A 
HETATM    8  C17 UNL     1     -17.776  24.465  -0.956  1.00  0.00     0.262 C 
HETATM    9  O7  UNL     1     -16.940  24.799  -1.789  1.00  0.00    -0.267 OA
HETATM   10  N10 UNL     1     -18.558  25.476  -0.472  1.00  0.00    -0.288 N 
ATOM     11  H10 UNL     1     -18.467  26.388  -0.919  1.00  0.00     0.172 HD
HETATM   12  C18 UNL     1     -19.458  25.373   0.566  1.00  0.00     0.277 C 
HETATM   13  O8  UNL     1     -20.322  26.290   0.525  1.00  0.00    -0.266 OA
ENDROOT
BRANCH   1  14
HETATM   14  N5  UNL     1     -20.422  24.682   2.641  1.00  0.00    -0.371 N 
ATOM     15  H5  UNL     1     -20.059  25.224   3.425  1.00  0.00     0.160 HD
BRANCH  14  16
HETATM   16  C6  UNL     1     -21.776  24.243   2.752  1.00  0.00     0.174 C 
BRANCH  16  17
HETATM   17  C3  UNL     1     -22.046  23.558   4.046  1.00  0.00     0.229 C 
BRANCH  17  18
HETATM   18  O2  UNL     1     -20.879  22.994   4.621  1.00  0.00    -0.306 OA
BRANCH  18  19
HETATM   19  C2  UNL     1     -20.604  21.643   4.664  1.00  0.00     0.255 C 
HETATM   20  C1  UNL     1     -20.238  20.942   5.931  1.00  0.00     0.126 C 
HETATM   21  O1  UNL     1     -20.667  20.988   3.584  1.00  0.00    -0.266 OA
ENDBRANCH  18  19
ENDBRANCH  17  18
BRANCH  17  22
HETATM   22  C4  UNL     1     -22.823  24.327   5.038  1.00  0.00     0.147 A 
HETATM   23  N1  UNL     1     -23.072  25.670   4.968  1.00  0.00    -0.270 N 
HETATM   24  N2  UNL     1     -23.797  26.047   5.990  1.00  0.00    -0.227 N 
ATOM     25  H1  UNL     1     -22.742  26.287   4.227  1.00  0.00     0.190 HD
HETATM   26  N3  UNL     1     -24.016  24.978   6.707  1.00  0.00    -0.225 N 
ATOM     27  H2  UNL     1     -24.125  26.992   6.188  1.00  0.00     0.210 HD
HETATM   28  N4  UNL     1     -23.443  23.924   6.162  1.00  0.00    -0.266 N 
ATOM     29  H3  UNL     1     -24.558  24.961   7.571  1.00  0.00     0.210 HD
HETATM   30  C5  UNL     1     -23.476  22.563   6.668  1.00  0.00     0.181 C 
ENDBRANCH  17  22
ENDBRANCH  16  17
BRANCH  16  31
HETATM   31  C19 UNL     1     -22.315  23.561   1.531  1.00  0.00     0.279 C 
BRANCH  31  32
HETATM   32  O9  UNL     1     -22.918  24.573   0.743  1.00  0.00    -0.369 OA
ATOM     33  H9  UNL     1     -23.819  24.304   0.605  1.00  0.00     0.212 HD
ENDBRANCH  31  32
BRANCH  31  34
HETATM   34  O10 UNL     1     -23.365  22.725   1.899  1.00  0.00    -0.369 OA
ATOM     35  H10 UNL     1     -23.089  21.820   1.815  1.00  0.00     0.212 HD
ENDBRANCH  31  34
ENDBRANCH  16  31
ENDBRANCH  14  16
ENDBRANCH   1  14
BRANCH   2  36
HETATM   36  O3  UNL     1     -18.469  22.737   2.853  1.00  0.00    -0.357 OA
ATOM     37  H3  UNL     1     -17.565  22.704   3.141  1.00  0.00     0.217 HD
ENDBRANCH   2  36
BRANCH   4  38
HETATM   38  N6  UNL     1     -18.571  20.253   1.420  1.00  0.00    -0.347 N 
ATOM     39  H6  UNL     1     -18.409  20.442   2.409  1.00  0.00     0.163 HD
BRANCH  38  40
HETATM   40  C11 UNL     1     -19.195  19.010   1.028  1.00  0.00     0.203 A 
HETATM   41  C12 UNL     1     -18.178  18.092   0.383  1.00  0.00     0.169 A 
HETATM   42  N7  UNL     1     -18.162  16.929   1.241  1.00  0.00    -0.361 N 
HETATM   43  C13 UNL     1     -19.126  17.120   2.243  1.00  0.00     0.185 A 
ATOM     44  H7  UNL     1     -17.557  16.114   1.136  1.00  0.00     0.162 HD
HETATM   45  N8  UNL     1     -19.451  16.169   3.276  1.00  0.00    -0.064 NA
HETATM   46  N9  UNL     1     -19.703  18.265   2.136  1.00  0.00    -0.342 N 
ATOM     47  H9  UNL     1     -20.434  18.599   2.764  1.00  0.00     0.164 HD
ENDBRANCH  38  40
ENDBRANCH   4  38
BRANCH   6  48
HETATM   48  C15 UNL     1     -16.800  22.167  -2.784  1.00  0.00     0.314 C 
BRANCH  48  49
HETATM   49  O5  UNL     1     -17.802  22.832  -3.555  1.00  0.00    -0.365 OA
ATOM     50  H5  UNL     1     -18.027  23.589  -3.028  1.00  0.00     0.213 HD
ENDBRANCH  48  49
BRANCH  48  51
HETATM   51  O6  UNL     1     -16.663  20.922  -3.379  1.00  0.00    -0.365 OA
ATOM     52  H6  UNL     1     -15.858  20.841  -3.876  1.00  0.00     0.213 HD
ENDBRANCH  48  51
ENDBRANCH   6  48
TORSDOF 15
ENDMDL
MODEL 4
REMARK VINA RESULT: -7.997877717      4.488      7.385
REMARK  15 active torsions:
REMARK  status: ('A' for Active; 'I' for Inactive)
REMARK    1  A    between atoms: C2_2  and  O2_4 
REMARK    2  A    between atoms: O2_4  and  C3_5 
REMARK    3  A    between atoms: C3_5  and  C4_6 
REMARK    4  A    between atoms: C3_5  and  C6_15 
REMARK    5  A    between atoms: C6_15  and  N5_16 
REMARK    6  A    between atoms: C6_15  and  C19_48 
REMARK    7  A    between atoms: N5_16  and  C7_18 
REMARK    8  A    between atoms: C8_19  and  O3_20 
REMARK    9  A    between atoms: C10_23  and  N6_24 
REMARK   10  A    between atoms: N6_24  and  C11_26 
REMARK   11  A    between atoms: C14_35  and  C15_36 
REMARK   12  A    between atoms: C15_36  and  O5_37 
REMARK   13  A    between atoms: C15_36  and  O6_39 
REMARK   14  A    between atoms: C19_48  and  O9_49 
REMARK   15  A    between atoms: C19_48  and  O10_51 
ROOT
HETATM    1  C7  UNL     1     -17.055  23.688   3.453  1.00  0.00     0.132 C 
HETATM    2  C8  UNL     1     -18.238  22.935   3.442  1.00  0.00     0.113 C 
HETATM    3  C9  UNL     1     -19.519  23.463   3.235  1.00  0.00     0.069 A 
HETATM    4  C10 UNL     1     -20.664  23.019   3.835  1.00  0.00     0.160 A 
HETATM    5  O4  UNL     1     -21.629  23.753   3.328  1.00  0.00    -0.291 OA
HETATM    6  C14 UNL     1     -21.214  24.635   2.457  1.00  0.00     0.126 A 
HETATM    7  C16 UNL     1     -19.853  24.488   2.363  1.00  0.00     0.084 A 
HETATM    8  C17 UNL     1     -18.997  25.220   1.595  1.00  0.00     0.262 C 
HETATM    9  O7  UNL     1     -19.479  25.744   0.596  1.00  0.00    -0.267 OA
HETATM   10  N10 UNL     1     -17.665  25.451   1.794  1.00  0.00    -0.288 N 
ATOM     11  H10 UNL     1     -17.213  26.124   1.174  1.00  0.00     0.172 HD
HETATM   12  C18 UNL     1     -16.878  24.857   2.755  1.00  0.00     0.277 C 
HETATM   13  O8  UNL     1     -15.843  25.536   2.994  1.00  0.00    -0.266 OA
ENDROOT
BRANCH   1  14
HETATM   14  N5  UNL     1     -16.013  23.188   4.231  1.00  0.00    -0.371 N 
ATOM     15  H5  UNL     1     -15.342  22.586   3.753  1.00  0.00     0.160 HD
BRANCH  14  16
HETATM   16  C6  UNL     1     -15.774  23.421   5.619  1.00  0.00     0.174 C 
BRANCH  16  17
HETATM   17  C3  UNL     1     -15.747  22.160   6.411  1.00  0.00     0.229 C 
BRANCH  17  18
HETATM   18  O2  UNL     1     -16.613  21.167   5.885  1.00  0.00    -0.306 OA
BRANCH  18  19
HETATM   19  C2  UNL     1     -17.565  20.492   6.622  1.00  0.00     0.255 C 
HETATM   20  C1  UNL     1     -17.267  19.211   7.329  1.00  0.00     0.126 C 
HETATM   21  O1  UNL     1     -18.726  20.988   6.689  1.00  0.00    -0.266 OA
ENDBRANCH  18  19
ENDBRANCH  17  18
BRANCH  17  22
HETATM   22  C4  UNL     1     -14.410  21.611   6.713  1.00  0.00     0.147 A 
HETATM   23  N1  UNL     1     -13.749  20.691   5.947  1.00  0.00    -0.270 N 
HETATM   24  N2  UNL     1     -12.585  20.416   6.477  1.00  0.00    -0.227 N 
ATOM     25  H1  UNL     1     -14.112  20.279   5.087  1.00  0.00     0.190 HD
HETATM   26  N3  UNL     1     -12.488  21.140   7.559  1.00  0.00    -0.225 N 
ATOM     27  H2  UNL     1     -11.889  19.764   6.114  1.00  0.00     0.210 HD
HETATM   28  N4  UNL     1     -13.571  21.871   7.732  1.00  0.00    -0.266 N 
ATOM     29  H3  UNL     1     -11.683  21.140   8.186  1.00  0.00     0.210 HD
HETATM   30  C5  UNL     1     -13.822  22.802   8.817  1.00  0.00     0.181 C 
ENDBRANCH  17  22
ENDBRANCH  16  17
BRANCH  16  31
HETATM   31  C19 UNL     1     -16.570  24.543   6.212  1.00  0.00     0.279 C 
BRANCH  31  32
HETATM   32  O9  UNL     1     -15.907  25.741   5.845  1.00  0.00    -0.369 OA
ATOM     33  H9  UNL     1     -15.469  26.055   6.627  1.00  0.00     0.212 HD
ENDBRANCH  31  32
BRANCH  31  34
HETATM   34  O10 UNL     1     -16.469  24.494   7.600  1.00  0.00    -0.369 OA
ATOM     35  H10 UNL     1     -17.161  23.941   7.944  1.00  0.00     0.212 HD
ENDBRANCH  31  34
ENDBRANCH  16  31
ENDBRANCH  14  16
ENDBRANCH   1  14
BRANCH   2  36
HETATM   36  O3  UNL     1     -18.194  21.595   3.641  1.00  0.00    -0.357 OA
ATOM     37  H3  UNL     1     -18.369  21.236   4.503  1.00  0.00     0.217 HD
ENDBRANCH   2  36
BRANCH   4  38
HETATM   38  N6  UNL     1     -20.782  21.986   4.816  1.00  0.00    -0.347 N 
ATOM     39  H6  UNL     1     -19.949  21.473   5.106  1.00  0.00     0.163 HD
BRANCH  38  40
HETATM   40  C11 UNL     1     -22.060  21.656   5.404  1.00  0.00     0.203 A 
HETATM   41  C12 UNL     1     -21.870  20.734   6.590  1.00  0.00     0.169 A 
HETATM   42  N7  UNL     1     -22.410  21.479   7.704  1.00  0.00    -0.361 N 
HETATM   43  C13 UNL     1     -22.928  22.684   7.205  1.00  0.00     0.185 A 
ATOM     44  H7  UNL     1     -22.413  21.182   8.680  1.00  0.00     0.162 HD
HETATM   45  N8  UNL     1     -23.592  23.693   7.992  1.00  0.00    -0.064 NA
HETATM   46  N9  UNL     1     -22.741  22.794   5.936  1.00  0.00    -0.342 N 
ATOM     47  H9  UNL     1     -23.042  23.593   5.379  1.00  0.00     0.164 HD
ENDBRANCH  38  40
ENDBRANCH   4  38
BRANCH   6  48
HETATM   48  C15 UNL     1     -22.064  25.617   1.710  1.00  0.00     0.314 C 
BRANCH  48  49
HETATM   49  O5  UNL     1     -23.149  25.874   2.604  1.00  0.00    -0.365 OA
ATOM     50  H5  UNL     1     -22.755  25.793   3.465  1.00  0.00     0.213 HD
ENDBRANCH  48  49
BRANCH  48  51
HETATM   51  O6  UNL     1     -22.656  25.064   0.585  1.00  0.00    -0.365 OA
ATOM     52  H6  UNL     1     -23.389  25.577   0.268  1.00  0.00     0.213 HD
ENDBRANCH  48  51
ENDBRANCH   6  48
TORSDOF 15
ENDMDL
MODEL 5
REMARK VINA RESULT: -7.988236786      4.527      6.911
REMARK  15 active torsions:
REMARK  status: ('A' for Active; 'I' for Inactive)
REMARK    1  A    between atoms: C2_2  and  O2_4 
REMARK    2  A    between atoms: O2_4  and  C3_5 
REMARK    3  A    between atoms: C3_5  and  C4_6 
REMARK    4  A    between atoms: C3_5  and  C6_15 
REMARK    5  A    between atoms: C6_15  and  N5_16 
REMARK    6  A    between atoms: C6_15  and  C19_48 
REMARK    7  A    between atoms: N5_16  and  C7_18 
REMARK    8  A    between atoms: C8_19  and  O3_20 
REMARK    9  A    between atoms: C10_23  and  N6_24 
REMARK   10  A    between atoms: N6_24  and  C11_26 
REMARK   11  A    between atoms: C14_35  and  C15_36 
REMARK   12  A    between atoms: C15_36  and  O5_37 
REMARK   13  A    between atoms: C15_36  and  O6_39 
REMARK   14  A    between atoms: C19_48  and  O9_49 
REMARK   15  A    between atoms: C19_48  and  O10_51 
ROOT
HETATM    1  C7  UNL     1     -17.020  23.705   3.435  1.00  0.00     0.132 C 
HETATM    2  C8  UNL     1     -18.205  22.957   3.399  1.00  0.00     0.113 C 
HETATM    3  C9  UNL     1     -19.481  23.492   3.181  1.00  0.00     0.069 A 
HETATM    4  C10 UNL     1     -20.636  23.046   3.762  1.00  0.00     0.160 A 
HETATM    5  O4  UNL     1     -21.592  23.789   3.250  1.00  0.00    -0.291 OA
HETATM    6  C14 UNL     1     -21.162  24.679   2.394  1.00  0.00     0.126 A 
HETATM    7  C16 UNL     1     -19.800  24.527   2.317  1.00  0.00     0.084 A 
HETATM    8  C17 UNL     1     -18.931  25.265   1.568  1.00  0.00     0.262 C 
HETATM    9  O7  UNL     1     -19.398  25.802   0.569  1.00  0.00    -0.267 OA
HETATM   10  N10 UNL     1     -17.601  25.489   1.787  1.00  0.00    -0.288 N 
ATOM     11  H10 UNL     1     -17.139  26.167   1.181  1.00  0.00     0.172 HD
HETATM   12  C18 UNL     1     -16.829  24.881   2.752  1.00  0.00     0.277 C 
HETATM   13  O8  UNL     1     -15.795  25.554   3.012  1.00  0.00    -0.266 OA
ENDROOT
BRANCH   1  14
HETATM   14  N5  UNL     1     -15.990  23.193   4.221  1.00  0.00    -0.371 N 
ATOM     15  H5  UNL     1     -15.319  22.588   3.747  1.00  0.00     0.160 HD
BRANCH  14  16
HETATM   16  C6  UNL     1     -15.762  23.418   5.612  1.00  0.00     0.174 C 
BRANCH  16  17
HETATM   17  C3  UNL     1     -15.759  22.154   6.399  1.00  0.00     0.229 C 
BRANCH  17  18
HETATM   18  O2  UNL     1     -16.627  21.172   5.858  1.00  0.00    -0.306 OA
BRANCH  18  19
HETATM   19  C2  UNL     1     -17.604  20.512   6.576  1.00  0.00     0.255 C 
HETATM   20  C1  UNL     1     -17.336  19.235   7.302  1.00  0.00     0.126 C 
HETATM   21  O1  UNL     1     -18.762  21.019   6.609  1.00  0.00    -0.266 OA
ENDBRANCH  18  19
ENDBRANCH  17  18
BRANCH  17  22
HETATM   22  C4  UNL     1     -14.433  21.591   6.719  1.00  0.00     0.147 A 
HETATM   23  N1  UNL     1     -13.767  20.673   5.954  1.00  0.00    -0.270 N 
HETATM   24  N2  UNL     1     -12.614  20.383   6.501  1.00  0.00    -0.227 N 
ATOM     25  H1  UNL     1     -14.118  20.273   5.084  1.00  0.00     0.190 HD
HETATM   26  N3  UNL     1     -12.529  21.095   7.592  1.00  0.00    -0.225 N 
ATOM     27  H2  UNL     1     -11.917  19.729   6.143  1.00  0.00     0.210 HD
HETATM   28  N4  UNL     1     -13.609  21.834   7.754  1.00  0.00    -0.266 N 
ATOM     29  H3  UNL     1     -11.735  21.082   8.232  1.00  0.00     0.210 HD
HETATM   30  C5  UNL     1     -13.870  22.756   8.844  1.00  0.00     0.181 C 
ENDBRANCH  17  22
ENDBRANCH  16  17
BRANCH  16  31
HETATM   31  C19 UNL     1     -16.551  24.548   6.201  1.00  0.00     0.279 C 
BRANCH  31  32
HETATM   32  O9  UNL     1     -15.876  25.739   5.835  1.00  0.00    -0.369 OA
ATOM     33  H9  UNL     1     -16.428  26.175   5.196  1.00  0.00     0.212 HD
ENDBRANCH  31  32
BRANCH  31  34
HETATM   34  O10 UNL     1     -16.456  24.499   7.589  1.00  0.00    -0.369 OA
ATOM     35  H10 UNL     1     -16.114  23.652   7.850  1.00  0.00     0.212 HD
ENDBRANCH  31  34
ENDBRANCH  16  31
ENDBRANCH  14  16
ENDBRANCH   1  14
BRANCH   2  36
HETATM   36  O3  UNL     1     -18.168  21.615   3.585  1.00  0.00    -0.357 OA
ATOM     37  H3  UNL     1     -17.358  21.192   3.843  1.00  0.00     0.217 HD
ENDBRANCH   2  36
BRANCH   4  38
HETATM   38  N6  UNL     1     -20.770  22.002   4.729  1.00  0.00    -0.347 N 
ATOM     39  H6  UNL     1     -20.350  22.116   5.651  1.00  0.00     0.163 HD
BRANCH  38  40
HETATM   40  C11 UNL     1     -21.491  20.788   4.423  1.00  0.00     0.203 A 
HETATM   41  C12 UNL     1     -22.782  20.730   5.212  1.00  0.00     0.169 A 
HETATM   42  N7  UNL     1     -23.812  20.692   4.199  1.00  0.00    -0.361 N 
HETATM   43  C13 UNL     1     -23.181  20.657   2.946  1.00  0.00     0.185 A 
ATOM     44  H7  UNL     1     -24.818  20.691   4.365  1.00  0.00     0.162 HD
HETATM   45  N8  UNL     1     -23.858  20.573   1.676  1.00  0.00    -0.064 NA
HETATM   46  N9  UNL     1     -21.900  20.709   3.056  1.00  0.00    -0.342 N 
ATOM     47  H9  UNL     1     -21.256  20.696   2.265  1.00  0.00     0.164 HD
ENDBRANCH  38  40
ENDBRANCH   4  38
BRANCH   6  48
HETATM   48  C15 UNL     1     -21.998  25.672   1.647  1.00  0.00     0.314 C 
BRANCH  48  49
HETATM   49  O5  UNL     1     -23.068  25.959   2.549  1.00  0.00    -0.365 OA
ATOM     50  H5  UNL     1     -22.964  26.885   2.735  1.00  0.00     0.213 HD
ENDBRANCH  48  49
BRANCH  48  51
HETATM   51  O6  UNL     1     -22.613  25.121   0.533  1.00  0.00    -0.365 OA
ATOM     52  H6  UNL     1     -22.037  24.545   0.045  1.00  0.00     0.213 HD
ENDBRANCH  48  51
ENDBRANCH   6  48
TORSDOF 15
ENDMDL
