MODEL 1
REMARK VINA RESULT: -9.545646371      0.000      0.000
REMARK  9 active torsions:
REMARK  status: ('A' for Active; 'I' for Inactive)
REMARK    1  A    between atoms: C2_2  and  C13_39 
REMARK    2  A    between atoms: N1_3  and  N2_5 
REMARK    3  A    between atoms: N2_5  and  O1_6 
REMARK       I    between atoms: N2_5  and  C3_8 
REMARK    4  A    between atoms: C3_8  and  C4_10 
REMARK    5  A    between atoms: C6_12  and  N3_13 
REMARK    6  A    between atoms: N3_13  and  C7_15 
REMARK    7  A    between atoms: C7_15  and  O3_16 
REMARK    8  A    between atoms: C7_15  and  C8_18 
REMARK    9  A    between atoms: C10_30  and  N9_31 
ROOT
HETATM    1  C4  UNL     1      14.043  78.985  -4.015  1.00  0.00     0.108 A 
HETATM    2  C5  UNL     1      14.418  78.582  -2.729  1.00  0.00     0.067 A 
HETATM    3  C6  UNL     1      13.877  79.202  -1.632  1.00  0.00     0.064 A 
HETATM    4  C9  UNL     1      12.959  80.229  -1.845  1.00  0.00     0.120 A 
HETATM    5  N8  UNL     1      12.281  81.002  -0.992  1.00  0.00    -0.186 N 
ATOM      6  H8  UNL     1      12.347  80.942   0.025  1.00  0.00     0.184 HD
HETATM    7  C10 UNL     1      11.490  81.879  -1.668  1.00  0.00     0.680 A 
HETATM    8  N10 UNL     1      11.694  81.633  -2.972  1.00  0.00    -0.170 N 
HETATM    9  C11 UNL     1      11.077  82.310  -4.094  1.00  0.00     0.177 C 
HETATM   10  C12 UNL     1      12.593  80.624  -3.107  1.00  0.00     0.153 A 
HETATM   11  N11 UNL     1      13.145  79.990  -4.148  1.00  0.00    -0.335 N 
ATOM     12  H11 UNL     1      12.876  80.278  -5.090  1.00  0.00     0.168 HD
ENDROOT
BRANCH   1  13
HETATM   13  C3  UNL     1      14.625  78.317  -5.165  1.00  0.00     0.313 C 
HETATM   14  N2  UNL     1      15.654  78.925  -5.922  1.00  0.00    -0.120 N 
HETATM   15  O2  UNL     1      14.217  77.190  -5.500  1.00  0.00    -0.262 OA
BRANCH  14  16
HETATM   16  N1  UNL     1      16.209  78.279  -7.026  1.00  0.00    -0.272 N 
HETATM   17  C2  UNL     1      17.323  77.655  -6.919  1.00  0.00     0.070 C 
HETATM   18  C1  UNL     1      18.006  77.633  -5.607  1.00  0.00     0.074 C 
ATOM     19  H1  UNL     1      15.725  78.303  -7.924  1.00  0.00     0.189 HD
BRANCH  17  20
HETATM   20  C13 UNL     1      17.908  76.978  -8.070  1.00  0.00     0.155 C 
HETATM   21  N12 UNL     1      18.506  77.483  -9.084  1.00  0.00    -0.269 N 
HETATM   22  N13 UNL     1      18.930  76.513  -9.980  1.00  0.00    -0.007 NA
ATOM     23  H12 UNL     1      18.655  78.483  -9.216  1.00  0.00     0.185 HD
HETATM   24  N14 UNL     1      18.814  75.265  -9.346  1.00  0.00    -0.007 NA
HETATM   25  N15 UNL     1      17.924  75.565  -8.291  1.00  0.00    -0.269 N 
ATOM     26  H15 UNL     1      17.378  74.880  -7.768  1.00  0.00     0.185 HD
ENDBRANCH  17  20
ENDBRANCH  14  16
BRANCH  14  27
HETATM   27  O1  UNL     1      16.128  80.162  -5.585  1.00  0.00    -0.265 OA
ATOM     28  H1  UNL     1      15.775  80.587  -4.812  1.00  0.00     0.247 HD
ENDBRANCH  14  27
ENDBRANCH   1  13
BRANCH   3  29
HETATM   29  N3  UNL     1      14.196  78.859  -0.298  1.00  0.00    -0.356 N 
ATOM     30  H3  UNL     1      14.461  77.900  -0.071  1.00  0.00     0.162 HD
BRANCH  29  31
HETATM   31  C7  UNL     1      14.150  79.849   0.738  1.00  0.00     0.290 C 
BRANCH  31  32
HETATM   32  O3  UNL     1      13.204  79.587   1.724  1.00  0.00    -0.369 OA
ATOM     33  H3  UNL     1      13.406  79.981   2.564  1.00  0.00     0.212 HD
ENDBRANCH  31  32
BRANCH  31  34
HETATM   34  C8  UNL     1      15.461  79.992   1.438  1.00  0.00     0.162 A 
HETATM   35  N4  UNL     1      16.541  80.630   0.957  1.00  0.00    -0.269 N 
HETATM   36  N5  UNL     1      17.507  80.556   1.842  1.00  0.00    -0.227 N 
ATOM     37  H4  UNL     1      16.601  81.097   0.051  1.00  0.00     0.190 HD
HETATM   38  N6  UNL     1      17.077  79.884   2.885  1.00  0.00    -0.227 N 
ATOM     39  H5  UNL     1      18.439  80.955   1.736  1.00  0.00     0.210 HD
HETATM   40  N7  UNL     1      15.831  79.538   2.644  1.00  0.00    -0.269 N 
ATOM     41  H6  UNL     1      17.612  79.670   3.727  1.00  0.00     0.210 HD
ATOM     42  H7  UNL     1      15.236  79.005   3.279  1.00  0.00     0.190 HD
ENDBRANCH  31  34
ENDBRANCH  29  31
ENDBRANCH   3  29
BRANCH   7  43
HETATM   43  N9  UNL     1      10.701  82.771  -1.170  1.00  0.00    -0.234 N 
ATOM     44  H92 UNL     1       9.861  82.598  -0.618  1.00  0.00     0.174 HD
ATOM     45  H91 UNL     1      10.784  83.785  -1.244  1.00  0.00     0.174 HD
ENDBRANCH   7  43
TORSDOF 9
ENDMDL
MODEL 2
REMARK VINA RESULT: -9.210539249      0.876      1.359
REMARK  9 active torsions:
REMARK  status: ('A' for Active; 'I' for Inactive)
REMARK    1  A    between atoms: C2_2  and  C13_39 
REMARK    2  A    between atoms: N1_3  and  N2_5 
REMARK    3  A    between atoms: N2_5  and  O1_6 
REMARK       I    between atoms: N2_5  and  C3_8 
REMARK    4  A    between atoms: C3_8  and  C4_10 
REMARK    5  A    between atoms: C6_12  and  N3_13 
REMARK    6  A    between atoms: N3_13  and  C7_15 
REMARK    7  A    between atoms: C7_15  and  O3_16 
REMARK    8  A    between atoms: C7_15  and  C8_18 
REMARK    9  A    between atoms: C10_30  and  N9_31 
ROOT
HETATM    1  C4  UNL     1      14.725  79.493  -3.588  1.00  0.00     0.108 A 
HETATM    2  C5  UNL     1      14.687  78.999  -2.280  1.00  0.00     0.067 A 
HETATM    3  C6  UNL     1      13.757  79.477  -1.393  1.00  0.00     0.064 A 
HETATM    4  C9  UNL     1      12.870  80.456  -1.836  1.00  0.00     0.120 A 
HETATM    5  N8  UNL     1      11.878  81.099  -1.215  1.00  0.00    -0.186 N 
ATOM      6  H8  UNL     1      11.608  80.950  -0.242  1.00  0.00     0.184 HD
HETATM    7  C10 UNL     1      11.277  81.981  -2.060  1.00  0.00     0.680 A 
HETATM    8  N10 UNL     1      11.925  81.871  -3.231  1.00  0.00    -0.170 N 
HETATM    9  C11 UNL     1      11.654  82.607  -4.449  1.00  0.00     0.177 C 
HETATM   10  C12 UNL     1      12.907  80.941  -3.119  1.00  0.00     0.153 A 
HETATM   11  N11 UNL     1      13.831  80.444  -3.952  1.00  0.00    -0.335 N 
ATOM     12  H11 UNL     1      13.864  80.800  -4.908  1.00  0.00     0.168 HD
ENDROOT
BRANCH   1  13
HETATM   13  C3  UNL     1      15.715  78.975  -4.513  1.00  0.00     0.313 C 
HETATM   14  N2  UNL     1      15.544  77.720  -5.142  1.00  0.00    -0.120 N 
HETATM   15  O2  UNL     1      16.737  79.640  -4.764  1.00  0.00    -0.262 OA
BRANCH  14  16
HETATM   16  N1  UNL     1      16.500  77.228  -6.031  1.00  0.00    -0.272 N 
HETATM   17  C2  UNL     1      16.267  77.216  -7.291  1.00  0.00     0.070 C 
HETATM   18  C1  UNL     1      14.972  77.734  -7.783  1.00  0.00     0.074 C 
ATOM     19  H1  UNL     1      17.388  76.874  -5.676  1.00  0.00     0.189 HD
BRANCH  17  20
HETATM   20  C13 UNL     1      17.262  76.703  -8.225  1.00  0.00     0.155 C 
HETATM   21  N12 UNL     1      18.041  77.349  -9.009  1.00  0.00    -0.269 N 
HETATM   22  N13 UNL     1      18.855  76.507  -9.752  1.00  0.00    -0.007 NA
ATOM     23  H12 UNL     1      18.060  78.367  -9.079  1.00  0.00     0.185 HD
HETATM   24  N14 UNL     1      18.759  75.221  -9.197  1.00  0.00    -0.007 NA
HETATM   25  N15 UNL     1      17.565  75.323  -8.449  1.00  0.00    -0.269 N 
ATOM     26  H15 UNL     1      17.007  74.535  -8.120  1.00  0.00     0.185 HD
ENDBRANCH  17  20
ENDBRANCH  14  16
BRANCH  14  27
HETATM   27  O1  UNL     1      14.435  76.961  -4.892  1.00  0.00    -0.265 OA
ATOM     28  H1  UNL     1      14.556  76.054  -4.637  1.00  0.00     0.247 HD
ENDBRANCH  14  27
ENDBRANCH   1  13
BRANCH   3  29
HETATM   29  N3  UNL     1      13.647  79.034  -0.055  1.00  0.00    -0.356 N 
ATOM     30  H3  UNL     1      13.393  78.064   0.139  1.00  0.00     0.162 HD
BRANCH  29  31
HETATM   31  C7  UNL     1      13.888  79.937   1.032  1.00  0.00     0.290 C 
BRANCH  31  32
HETATM   32  O3  UNL     1      13.394  79.490   2.254  1.00  0.00    -0.369 OA
ATOM     33  H3  UNL     1      14.065  79.356   2.913  1.00  0.00     0.212 HD
ENDBRANCH  31  32
BRANCH  31  34
HETATM   34  C8  UNL     1      15.344  80.197   1.236  1.00  0.00     0.162 A 
HETATM   35  N4  UNL     1      16.141  80.888   0.402  1.00  0.00    -0.269 N 
HETATM   36  N5  UNL     1      17.354  80.914   0.900  1.00  0.00    -0.227 N 
ATOM     37  H4  UNL     1      15.849  81.320  -0.475  1.00  0.00     0.190 HD
HETATM   38  N6  UNL     1      17.362  80.257   2.037  1.00  0.00    -0.227 N 
ATOM     39  H5  UNL     1      18.160  81.372   0.474  1.00  0.00     0.210 HD
HETATM   40  N7  UNL     1      16.139  79.818   2.246  1.00  0.00    -0.269 N 
ATOM     41  H6  UNL     1      18.168  80.114   2.646  1.00  0.00     0.210 HD
ATOM     42  H7  UNL     1      15.842  79.272   3.054  1.00  0.00     0.190 HD
ENDBRANCH  31  34
ENDBRANCH  29  31
ENDBRANCH   3  29
BRANCH   7  43
HETATM   43  N9  UNL     1      10.288  82.768  -1.801  1.00  0.00    -0.234 N 
ATOM     44  H92 UNL     1       9.380  82.775  -2.266  1.00  0.00     0.174 HD
ATOM     45  H91 UNL     1      10.248  83.506  -1.099  1.00  0.00     0.174 HD
ENDBRANCH   7  43
TORSDOF 9
ENDMDL
MODEL 3
REMARK VINA RESULT: -9.133245590      1.584      1.761
REMARK  9 active torsions:
REMARK  status: ('A' for Active; 'I' for Inactive)
REMARK    1  A    between atoms: C2_2  and  C13_39 
REMARK    2  A    between atoms: N1_3  and  N2_5 
REMARK    3  A    between atoms: N2_5  and  O1_6 
REMARK       I    between atoms: N2_5  and  C3_8 
REMARK    4  A    between atoms: C3_8  and  C4_10 
REMARK    5  A    between atoms: C6_12  and  N3_13 
REMARK    6  A    between atoms: N3_13  and  C7_15 
REMARK    7  A    between atoms: C7_15  and  O3_16 
REMARK    8  A    between atoms: C7_15  and  C8_18 
REMARK    9  A    between atoms: C10_30  and  N9_31 
ROOT
HETATM    1  C4  UNL     1      15.357  79.369  -4.262  1.00  0.00     0.108 A 
HETATM    2  C5  UNL     1      14.806  78.711  -3.158  1.00  0.00     0.067 A 
HETATM    3  C6  UNL     1      13.911  79.362  -2.348  1.00  0.00     0.064 A 
HETATM    4  C9  UNL     1      13.580  80.678  -2.662  1.00  0.00     0.120 A 
HETATM    5  N8  UNL     1      12.757  81.550  -2.072  1.00  0.00    -0.186 N 
ATOM      6  H8  UNL     1      12.208  81.355  -1.234  1.00  0.00     0.184 HD
HETATM    7  C10 UNL     1      12.752  82.734  -2.743  1.00  0.00     0.680 A 
HETATM    8  N10 UNL     1      13.600  82.578  -3.773  1.00  0.00    -0.170 N 
HETATM    9  C11 UNL     1      13.937  83.562  -4.781  1.00  0.00     0.177 C 
HETATM   10  C12 UNL     1      14.121  81.324  -3.745  1.00  0.00     0.153 A 
HETATM   11  N11 UNL     1      14.989  80.650  -4.509  1.00  0.00    -0.335 N 
ATOM     12  H11 UNL     1      15.394  81.124  -5.317  1.00  0.00     0.168 HD
ENDROOT
BRANCH   1  13
HETATM   13  C3  UNL     1      16.301  78.665  -5.109  1.00  0.00     0.313 C 
HETATM   14  N2  UNL     1      16.714  79.202  -6.351  1.00  0.00    -0.120 N 
HETATM   15  O2  UNL     1      16.763  77.567  -4.745  1.00  0.00    -0.262 OA
BRANCH  14  16
HETATM   16  N1  UNL     1      17.622  78.520  -7.161  1.00  0.00    -0.272 N 
HETATM   17  C2  UNL     1      17.206  77.723  -8.072  1.00  0.00     0.070 C 
HETATM   18  C1  UNL     1      15.749  77.539  -8.250  1.00  0.00     0.074 C 
ATOM     19  H1  UNL     1      18.624  78.658  -7.026  1.00  0.00     0.189 HD
BRANCH  17  20
HETATM   20  C13 UNL     1      18.151  77.008  -8.922  1.00  0.00     0.155 C 
HETATM   21  N12 UNL     1      18.819  77.440  -9.925  1.00  0.00    -0.269 N 
HETATM   22  N13 UNL     1      19.622  76.456 -10.484  1.00  0.00    -0.007 NA
ATOM     23  H12 UNL     1      18.768  78.398 -10.273  1.00  0.00     0.185 HD
HETATM   24  N14 UNL     1      19.655  75.373  -9.592  1.00  0.00    -0.007 NA
HETATM   25  N15 UNL     1      18.523  75.633  -8.788  1.00  0.00    -0.269 N 
ATOM     26  H15 UNL     1      18.045  74.948  -8.203  1.00  0.00     0.185 HD
ENDBRANCH  17  20
ENDBRANCH  14  16
BRANCH  14  27
HETATM   27  O1  UNL     1      16.230  80.404  -6.785  1.00  0.00    -0.265 OA
ATOM     28  H1  UNL     1      16.611  81.199  -6.430  1.00  0.00     0.247 HD
ENDBRANCH  14  27
ENDBRANCH   1  13
BRANCH   3  29
HETATM   29  N3  UNL     1      13.305  78.774  -1.214  1.00  0.00    -0.356 N 
ATOM     30  H3  UNL     1      13.187  77.761  -1.171  1.00  0.00     0.162 HD
BRANCH  29  31
HETATM   31  C7  UNL     1      12.854  79.591  -0.125  1.00  0.00     0.290 C 
BRANCH  31  32
HETATM   32  O3  UNL     1      11.655  79.164   0.438  1.00  0.00    -0.369 OA
ATOM     33  H3  UNL     1      10.907  79.254  -0.141  1.00  0.00     0.212 HD
ENDBRANCH  31  32
BRANCH  31  34
HETATM   34  C8  UNL     1      13.848  79.643   0.988  1.00  0.00     0.162 A 
HETATM   35  N4  UNL     1      15.152  79.945   0.861  1.00  0.00    -0.269 N 
HETATM   36  N5  UNL     1      15.715  79.895   2.045  1.00  0.00    -0.227 N 
ATOM     37  H4  UNL     1      15.625  80.176  -0.013  1.00  0.00     0.190 HD
HETATM   38  N6  UNL     1      14.807  79.567   2.934  1.00  0.00    -0.227 N 
ATOM     39  H5  UNL     1      16.698  80.081   2.241  1.00  0.00     0.210 HD
HETATM   40  N7  UNL     1      13.668  79.413   2.296  1.00  0.00    -0.269 N 
ATOM     41  H6  UNL     1      14.958  79.453   3.937  1.00  0.00     0.210 HD
ATOM     42  H7  UNL     1      12.781  79.156   2.730  1.00  0.00     0.190 HD
ENDBRANCH  31  34
ENDBRANCH  29  31
ENDBRANCH   3  29
BRANCH   7  43
HETATM   43  N9  UNL     1      12.079  83.796  -2.458  1.00  0.00    -0.234 N 
ATOM     44  H92 UNL     1      12.460  84.713  -2.225  1.00  0.00     0.174 HD
ATOM     45  H91 UNL     1      11.064  83.897  -2.419  1.00  0.00     0.174 HD
ENDBRANCH   7  43
TORSDOF 9
ENDMDL
MODEL 4
REMARK VINA RESULT: -8.939082701      1.241      1.399
REMARK  9 active torsions:
REMARK  status: ('A' for Active; 'I' for Inactive)
REMARK    1  A    between atoms: C2_2  and  C13_39 
REMARK    2  A    between atoms: N1_3  and  N2_5 
REMARK    3  A    between atoms: N2_5  and  O1_6 
REMARK       I    between atoms: N2_5  and  C3_8 
REMARK    4  A    between atoms: C3_8  and  C4_10 
REMARK    5  A    between atoms: C6_12  and  N3_13 
REMARK    6  A    between atoms: N3_13  and  C7_15 
REMARK    7  A    between atoms: C7_15  and  O3_16 
REMARK    8  A    between atoms: C7_15  and  C8_18 
REMARK    9  A    between atoms: C10_30  and  N9_31 
ROOT
HETATM    1  C4  UNL     1      14.392  79.552  -4.054  1.00  0.00     0.108 A 
HETATM    2  C5  UNL     1      15.080  79.550  -2.836  1.00  0.00     0.067 A 
HETATM    3  C6  UNL     1      14.590  80.263  -1.771  1.00  0.00     0.064 A 
HETATM    4  C9  UNL     1      13.406  80.975  -1.948  1.00  0.00     0.120 A 
HETATM    5  N8  UNL     1      12.702  81.744  -1.112  1.00  0.00    -0.186 N 
ATOM      6  H8  UNL     1      12.958  81.934  -0.143  1.00  0.00     0.184 HD
HETATM    7  C10 UNL     1      11.597  82.239  -1.734  1.00  0.00     0.680 A 
HETATM    8  N10 UNL     1      11.630  81.756  -2.987  1.00  0.00    -0.170 N 
HETATM    9  C11 UNL     1      10.667  81.999  -4.041  1.00  0.00     0.177 C 
HETATM   10  C12 UNL     1      12.731  80.977  -3.143  1.00  0.00     0.153 A 
HETATM   11  N11 UNL     1      13.245  80.267  -4.154  1.00  0.00    -0.335 N 
ATOM     12  H11 UNL     1      12.748  80.263  -5.046  1.00  0.00     0.168 HD
ENDROOT
BRANCH   1  13
HETATM   13  C3  UNL     1      14.924  78.793  -5.170  1.00  0.00     0.313 C 
HETATM   14  N2  UNL     1      15.914  79.337  -6.021  1.00  0.00    -0.120 N 
HETATM   15  O2  UNL     1      14.507  77.641  -5.391  1.00  0.00    -0.262 OA
BRANCH  14  16
HETATM   16  N1  UNL     1      16.421  78.602  -7.093  1.00  0.00    -0.272 N 
HETATM   17  C2  UNL     1      17.439  77.841  -6.932  1.00  0.00     0.070 C 
HETATM   18  C1  UNL     1      18.063  77.756  -5.594  1.00  0.00     0.074 C 
ATOM     19  H1  UNL     1      15.979  78.672  -8.010  1.00  0.00     0.189 HD
BRANCH  17  20
HETATM   20  C13 UNL     1      17.974  77.071  -8.048  1.00  0.00     0.155 C 
HETATM   21  N12 UNL     1      18.654  77.477  -9.055  1.00  0.00    -0.269 N 
HETATM   22  N13 UNL     1      18.987  76.441  -9.915  1.00  0.00    -0.007 NA
ATOM     23  H12 UNL     1      18.920  78.450  -9.207  1.00  0.00     0.185 HD
HETATM   24  N14 UNL     1      18.711  75.232  -9.256  1.00  0.00    -0.007 NA
HETATM   25  N15 UNL     1      17.833  75.660  -8.235  1.00  0.00    -0.269 N 
ATOM     26  H15 UNL     1      17.198  75.056  -7.713  1.00  0.00     0.185 HD
ENDBRANCH  17  20
ENDBRANCH  14  16
BRANCH  14  27
HETATM   27  O1  UNL     1      16.397  80.598  -5.810  1.00  0.00    -0.265 OA
ATOM     28  H1  UNL     1      16.408  80.935  -4.922  1.00  0.00     0.247 HD
ENDBRANCH  14  27
ENDBRANCH   1  13
BRANCH   3  29
HETATM   29  N3  UNL     1      15.218  80.315  -0.505  1.00  0.00    -0.356 N 
ATOM     30  H3  UNL     1      14.768  79.883   0.302  1.00  0.00     0.162 HD
BRANCH  29  31
HETATM   31  C7  UNL     1      16.484  80.970  -0.349  1.00  0.00     0.290 C 
BRANCH  31  32
HETATM   32  O3  UNL     1      16.447  82.335  -0.620  1.00  0.00    -0.369 OA
ATOM     33  H3  UNL     1      15.975  82.555  -1.415  1.00  0.00     0.212 HD
ENDBRANCH  31  32
BRANCH  31  34
HETATM   34  C8  UNL     1      17.024  80.830   1.036  1.00  0.00     0.162 A 
HETATM   35  N4  UNL     1      16.434  80.163   2.043  1.00  0.00    -0.269 N 
HETATM   36  N5  UNL     1      17.192  80.250   3.110  1.00  0.00    -0.227 N 
ATOM     37  H4  UNL     1      15.543  79.669   1.986  1.00  0.00     0.190 HD
HETATM   38  N6  UNL     1      18.258  80.958   2.818  1.00  0.00    -0.227 N 
ATOM     39  H5  UNL     1      16.986  79.835   4.018  1.00  0.00     0.210 HD
HETATM   40  N7  UNL     1      18.160  81.314   1.555  1.00  0.00    -0.269 N 
ATOM     41  H6  UNL     1      19.022  81.190   3.454  1.00  0.00     0.210 HD
ATOM     42  H7  UNL     1      18.846  81.874   1.048  1.00  0.00     0.190 HD
ENDBRANCH  31  34
ENDBRANCH  29  31
ENDBRANCH   3  29
BRANCH   7  43
HETATM   43  N9  UNL     1      10.695  83.014  -1.235  1.00  0.00    -0.234 N 
ATOM     44  H92 UNL     1      10.613  83.301  -0.260  1.00  0.00     0.174 HD
ATOM     45  H91 UNL     1       9.922  83.464  -1.725  1.00  0.00     0.174 HD
ENDBRANCH   7  43
TORSDOF 9
ENDMDL
MODEL 5
REMARK VINA RESULT: -8.832512515      1.532      2.037
REMARK  9 active torsions:
REMARK  status: ('A' for Active; 'I' for Inactive)
REMARK    1  A    between atoms: C2_2  and  C13_39 
REMARK    2  A    between atoms: N1_3  and  N2_5 
REMARK    3  A    between atoms: N2_5  and  O1_6 
REMARK       I    between atoms: N2_5  and  C3_8 
REMARK    4  A    between atoms: C3_8  and  C4_10 
REMARK    5  A    between atoms: C6_12  and  N3_13 
REMARK    6  A    between atoms: N3_13  and  C7_15 
REMARK    7  A    between atoms: C7_15  and  O3_16 
REMARK    8  A    between atoms: C7_15  and  C8_18 
REMARK    9  A    between atoms: C10_30  and  N9_31 
ROOT
HETATM    1  C4  UNL     1      15.089  80.663  -4.181  1.00  0.00     0.108 A 
HETATM    2  C5  UNL     1      15.843  80.903  -3.028  1.00  0.00     0.067 A 
HETATM    3  C6  UNL     1      15.245  81.445  -1.919  1.00  0.00     0.064 A 
HETATM    4  C9  UNL     1      13.886  81.741  -1.986  1.00  0.00     0.120 A 
HETATM    5  N8  UNL     1      13.048  82.264  -1.086  1.00  0.00    -0.186 N 
ATOM      6  H8  UNL     1      13.312  82.545  -0.141  1.00  0.00     0.184 HD
HETATM    7  C10 UNL     1      11.794  82.371  -1.605  1.00  0.00     0.680 A 
HETATM    8  N10 UNL     1      11.872  81.898  -2.860  1.00  0.00    -0.170 N 
HETATM    9  C11 UNL     1      10.795  81.803  -3.824  1.00  0.00     0.177 C 
HETATM   10  C12 UNL     1      13.146  81.506  -3.117  1.00  0.00     0.153 A 
HETATM   11  N11 UNL     1      13.770  80.975  -4.176  1.00  0.00    -0.335 N 
ATOM     12  H11 UNL     1      13.226  80.796  -5.021  1.00  0.00     0.168 HD
ENDROOT
BRANCH   1  13
HETATM   13  C3  UNL     1      15.737  80.089  -5.346  1.00  0.00     0.313 C 
HETATM   14  N2  UNL     1      15.463  78.764  -5.759  1.00  0.00    -0.120 N 
HETATM   15  O2  UNL     1      16.552  80.767  -5.999  1.00  0.00    -0.262 OA
BRANCH  14  16
HETATM   16  N1  UNL     1      16.090  78.218  -6.879  1.00  0.00    -0.272 N 
HETATM   17  C2  UNL     1      17.222  77.631  -6.766  1.00  0.00     0.070 C 
HETATM   18  C1  UNL     1      17.851  77.543  -5.429  1.00  0.00     0.074 C 
ATOM     19  H1  UNL     1      15.642  78.287  -7.794  1.00  0.00     0.189 HD
BRANCH  17  20
HETATM   20  C13 UNL     1      17.881  77.058  -7.932  1.00  0.00     0.155 C 
HETATM   21  N12 UNL     1      18.619  77.635  -8.806  1.00  0.00    -0.269 N 
HETATM   22  N13 UNL     1      19.070  76.754  -9.778  1.00  0.00    -0.007 NA
ATOM     23  H12 UNL     1      18.848  78.629  -8.790  1.00  0.00     0.185 HD
HETATM   24  N14 UNL     1      18.802  75.450  -9.330  1.00  0.00    -0.007 NA
HETATM   25  N15 UNL     1      17.825  75.687  -8.337  1.00  0.00    -0.269 N 
ATOM     26  H15 UNL     1      17.181  74.988  -7.966  1.00  0.00     0.185 HD
ENDBRANCH  17  20
ENDBRANCH  14  16
BRANCH  14  27
HETATM   27  O1  UNL     1      14.574  77.990  -5.067  1.00  0.00    -0.265 OA
ATOM     28  H1  UNL     1      14.914  77.354  -4.448  1.00  0.00     0.247 HD
ENDBRANCH  14  27
ENDBRANCH   1  13
BRANCH   3  29
HETATM   29  N3  UNL     1      15.930  81.718  -0.712  1.00  0.00    -0.356 N 
ATOM     30  H3  UNL     1      16.042  82.684  -0.401  1.00  0.00     0.162 HD
BRANCH  29  31
HETATM   31  C7  UNL     1      16.466  80.649   0.077  1.00  0.00     0.290 C 
BRANCH  31  32
HETATM   32  O3  UNL     1      17.647  80.975   0.737  1.00  0.00    -0.369 OA
ATOM     33  H3  UNL     1      18.298  80.284   0.722  1.00  0.00     0.212 HD
ENDBRANCH  31  32
BRANCH  31  34
HETATM   34  C8  UNL     1      15.510  80.189   1.127  1.00  0.00     0.162 A 
HETATM   35  N4  UNL     1      15.738  80.195   2.452  1.00  0.00    -0.269 N 
HETATM   36  N5  UNL     1      14.679  79.723   3.066  1.00  0.00    -0.227 N 
ATOM     37  H4  UNL     1      16.594  80.514   2.906  1.00  0.00     0.190 HD
HETATM   38  N6  UNL     1      13.771  79.411   2.171  1.00  0.00    -0.227 N 
ATOM     39  H5  UNL     1      14.578  79.616   4.075  1.00  0.00     0.210 HD
HETATM   40  N7  UNL     1      14.272  79.694   0.988  1.00  0.00    -0.269 N 
ATOM     41  H6  UNL     1      12.847  79.022   2.359  1.00  0.00     0.210 HD
ATOM     42  H7  UNL     1      13.791  79.556   0.098  1.00  0.00     0.190 HD
ENDBRANCH  31  34
ENDBRANCH  29  31
ENDBRANCH   3  29
BRANCH   7  43
HETATM   43  N9  UNL     1      10.739  82.830  -1.023  1.00  0.00    -0.234 N 
ATOM     44  H92 UNL     1      10.710  83.538  -0.289  1.00  0.00     0.174 HD
ATOM     45  H91 UNL     1       9.769  82.567  -1.196  1.00  0.00     0.174 HD
ENDBRANCH   7  43
TORSDOF 9
ENDMDL
