MODEL 1
REMARK VINA RESULT: -8.810907222      0.000      0.000
REMARK  10 active torsions:
REMARK  status: ('A' for Active; 'I' for Inactive)
REMARK    1  A    between atoms: C2_5  and  C3_6 
REMARK    2  A    between atoms: N3_8  and  C5_9 
REMARK    3  A    between atoms: C6_10  and  C7_11 
REMARK    4  A    between atoms: C7_11  and  O1_12 
REMARK    5  A    between atoms: C7_11  and  O2_14 
REMARK    6  A    between atoms: C8_16  and  C9_17 
REMARK       I    between atoms: C9_17  and  N4_19 
REMARK    7  A    between atoms: C12_27  and  N8_28 
REMARK    8  A    between atoms: C14_39  and  C15_40 
REMARK    9  A    between atoms: C15_40  and  N12_41 
REMARK   10  A    between atoms: C15_40  and  O4_45 
ROOT
HETATM    1  C9  UNL     1      10.221  81.843  -3.234  1.00  0.00     0.283 C 
HETATM    2  O3  UNL     1       9.155  81.857  -2.503  1.00  0.00    -0.265 OA
HETATM    3  N4  UNL     1      10.057  82.453  -4.493  1.00  0.00    -0.258 N 
ATOM      4  H4  UNL     1      10.850  82.500  -5.132  1.00  0.00     0.181 HD
HETATM    5  C10 UNL     1       8.823  82.998  -4.884  1.00  0.00     0.184 C 
HETATM    6  N5  UNL     1       7.793  83.449  -5.229  1.00  0.00    -0.172 NA
ENDROOT
BRANCH   1   7
HETATM    7  C8  UNL     1      11.421  81.246  -2.726  1.00  0.00     0.132 A 
HETATM    8  C6  UNL     1      12.245  81.600  -1.713  1.00  0.00     0.076 A 
HETATM    9  C5  UNL     1      13.226  80.613  -1.585  1.00  0.00     0.158 A 
HETATM   10  N7  UNL     1      12.967  79.691  -2.528  1.00  0.00    -0.279 N 
HETATM   11  N6  UNL     1      11.899  80.060  -3.208  1.00  0.00    -0.291 N 
HETATM   12  C11 UNL     1      13.779  78.483  -2.720  1.00  0.00     0.179 C 
ATOM     13  H6  UNL     1      11.490  79.536  -3.982  1.00  0.00     0.187 HD
BRANCH   8  14
HETATM   14  C7  UNL     1      12.217  82.800  -0.853  1.00  0.00     0.294 C 
BRANCH  14  15
HETATM   15  O1  UNL     1      10.952  83.084  -0.330  1.00  0.00    -0.367 OA
ATOM     16  H1  UNL     1      10.629  83.946  -0.563  1.00  0.00     0.213 HD
ENDBRANCH  14  15
BRANCH  14  17
HETATM   17  O2  UNL     1      12.669  83.948  -1.476  1.00  0.00    -0.367 OA
ATOM     18  H2  UNL     1      11.987  84.582  -1.659  1.00  0.00     0.213 HD
ENDBRANCH  14  17
ENDBRANCH   8  14
BRANCH   9  19
HETATM   19  N3  UNL     1      14.296  80.561  -0.653  1.00  0.00    -0.140 N 
HETATM   20  C4  UNL     1      15.434  81.233  -0.815  1.00  0.00     0.136 A 
HETATM   21  C3  UNL     1      16.445  81.151   0.142  1.00  0.00     0.070 A 
HETATM   22  C13 UNL     1      16.246  80.364   1.253  1.00  0.00     0.130 A 
HETATM   23  N9  UNL     1      15.066  79.678   1.403  1.00  0.00    -0.176 N 
HETATM   24  N10 UNL     1      17.097  80.232   2.161  1.00  0.00    -0.384 N 
HETATM   25  C12 UNL     1      14.142  79.797   0.460  1.00  0.00     0.685 A 
ATOM     26  H9  UNL     1      14.903  79.091   2.222  1.00  0.00     0.186 HD
ATOM     27 2H10 UNL     1      17.973  80.742   2.050  1.00  0.00     0.157 HD
ATOM     28 1H10 UNL     1      16.949  79.649   2.985  1.00  0.00     0.157 HD
BRANCH  21  29
HETATM   29  C2  UNL     1      17.672  81.920  -0.106  1.00  0.00     0.137 A 
HETATM   30  N2  UNL     1      18.119  82.356  -1.304  1.00  0.00    -0.281 N 
HETATM   31  N1  UNL     1      19.265  83.020  -1.146  1.00  0.00    -0.279 N 
ATOM     32  H2  UNL     1      17.651  82.202  -2.197  1.00  0.00     0.189 HD
HETATM   33  C1  UNL     1      20.059  83.644  -2.207  1.00  0.00     0.179 C 
HETATM   34  C14 UNL     1      19.560  83.016   0.151  1.00  0.00     0.156 A 
HETATM   35  N11 UNL     1      18.584  82.345   0.764  1.00  0.00    -0.325 N 
ATOM     36  H11 UNL     1      18.542  82.179   1.770  1.00  0.00     0.169 HD
BRANCH  34  37
HETATM   37  C15 UNL     1      20.750  83.636   0.831  1.00  0.00     0.386 C 
BRANCH  37  38
HETATM   38  N12 UNL     1      20.721  83.177   2.228  1.00  0.00    -0.046 N 
ATOM     39 3H12 UNL     1      19.818  83.320   2.681  1.00  0.00     0.277 HD
ATOM     40 2H12 UNL     1      20.749  82.161   2.320  1.00  0.00     0.277 HD
ATOM     41 1H12 UNL     1      21.491  83.646   2.705  1.00  0.00     0.277 HD
ENDBRANCH  37  38
BRANCH  37  42
HETATM   42  O4  UNL     1      20.564  85.010   0.799  1.00  0.00    -0.364 OA
ATOM     43  H4  UNL     1      21.172  85.387   1.426  1.00  0.00     0.212 HD
ENDBRANCH  37  42
ENDBRANCH  34  37
ENDBRANCH  21  29
BRANCH  25  44
HETATM   44  N8  UNL     1      13.010  79.139   0.612  1.00  0.00    -0.234 N 
ATOM     45  H82 UNL     1      12.335  79.160  -0.152  1.00  0.00     0.174 HD
ATOM     46  H81 UNL     1      12.859  78.635   1.487  1.00  0.00     0.174 HD
ENDBRANCH  25  44
ENDBRANCH   9  19
ENDBRANCH   1   7
TORSDOF 10
ENDMDL
MODEL 2
REMARK VINA RESULT: -8.763674176      0.923      1.642
REMARK  10 active torsions:
REMARK  status: ('A' for Active; 'I' for Inactive)
REMARK    1  A    between atoms: C2_5  and  C3_6 
REMARK    2  A    between atoms: N3_8  and  C5_9 
REMARK    3  A    between atoms: C6_10  and  C7_11 
REMARK    4  A    between atoms: C7_11  and  O1_12 
REMARK    5  A    between atoms: C7_11  and  O2_14 
REMARK    6  A    between atoms: C8_16  and  C9_17 
REMARK       I    between atoms: C9_17  and  N4_19 
REMARK    7  A    between atoms: C12_27  and  N8_28 
REMARK    8  A    between atoms: C14_39  and  C15_40 
REMARK    9  A    between atoms: C15_40  and  N12_41 
REMARK   10  A    between atoms: C15_40  and  O4_45 
ROOT
HETATM    1  C9  UNL     1      10.291  81.778  -3.244  1.00  0.00     0.283 C 
HETATM    2  O3  UNL     1       9.209  81.701  -2.540  1.00  0.00    -0.265 OA
HETATM    3  N4  UNL     1      10.126  82.443  -4.474  1.00  0.00    -0.258 N 
ATOM      4  H4  UNL     1      10.931  82.561  -5.089  1.00  0.00     0.181 HD
HETATM    5  C10 UNL     1       8.876  82.945  -4.869  1.00  0.00     0.184 C 
HETATM    6  N5  UNL     1       7.834  83.362  -5.218  1.00  0.00    -0.172 NA
ENDROOT
BRANCH   1   7
HETATM    7  C8  UNL     1      11.508  81.215  -2.735  1.00  0.00     0.132 A 
HETATM    8  C6  UNL     1      12.332  81.603  -1.734  1.00  0.00     0.076 A 
HETATM    9  C5  UNL     1      13.335  80.640  -1.597  1.00  0.00     0.158 A 
HETATM   10  N7  UNL     1      13.089  79.698  -2.523  1.00  0.00    -0.279 N 
HETATM   11  N6  UNL     1      12.009  80.032  -3.201  1.00  0.00    -0.291 N 
HETATM   12  C11 UNL     1      13.925  78.505  -2.701  1.00  0.00     0.179 C 
ATOM     13  H6  UNL     1      11.605  79.486  -3.963  1.00  0.00     0.187 HD
BRANCH   8  14
HETATM   14  C7  UNL     1      12.284  82.817  -0.894  1.00  0.00     0.294 C 
BRANCH  14  15
HETATM   15  O1  UNL     1      11.017  83.083  -0.367  1.00  0.00    -0.367 OA
ATOM     16  H1  UNL     1      10.563  83.791  -0.807  1.00  0.00     0.213 HD
ENDBRANCH  14  15
BRANCH  14  17
HETATM   17  O2  UNL     1      12.708  83.964  -1.539  1.00  0.00    -0.367 OA
ATOM     18  H2  UNL     1      13.264  84.522  -1.008  1.00  0.00     0.213 HD
ENDBRANCH  14  17
ENDBRANCH   8  14
BRANCH   9  19
HETATM   19  N3  UNL     1      14.413  80.627  -0.673  1.00  0.00    -0.140 N 
HETATM   20  C4  UNL     1      15.544  81.302  -0.867  1.00  0.00     0.136 A 
HETATM   21  C3  UNL     1      16.564  81.258   0.084  1.00  0.00     0.070 A 
HETATM   22  C13 UNL     1      16.379  80.508   1.222  1.00  0.00     0.130 A 
HETATM   23  N9  UNL     1      15.205  79.818   1.405  1.00  0.00    -0.176 N 
HETATM   24  N10 UNL     1      17.238  80.412   2.128  1.00  0.00    -0.384 N 
HETATM   25  C12 UNL     1      14.274  79.899   0.466  1.00  0.00     0.685 A 
ATOM     26  H9  UNL     1      15.054  79.258   2.244  1.00  0.00     0.186 HD
ATOM     27 2H10 UNL     1      18.110  80.924   1.992  1.00  0.00     0.157 HD
ATOM     28 1H10 UNL     1      17.101  79.855   2.971  1.00  0.00     0.157 HD
BRANCH  21  29
HETATM   29  C2  UNL     1      17.782  82.027  -0.199  1.00  0.00     0.137 A 
HETATM   30  N2  UNL     1      18.762  82.334   0.681  1.00  0.00    -0.281 N 
HETATM   31  N1  UNL     1      19.713  83.042   0.071  1.00  0.00    -0.279 N 
ATOM     32  H2  UNL     1      18.772  82.064   1.664  1.00  0.00     0.189 HD
HETATM   33  C1  UNL     1      20.937  83.562   0.687  1.00  0.00     0.179 C 
HETATM   34  C14 UNL     1      19.354  83.194  -1.201  1.00  0.00     0.156 A 
HETATM   35  N11 UNL     1      18.182  82.572  -1.344  1.00  0.00    -0.325 N 
ATOM     36  H11 UNL     1      17.660  82.522  -2.219  1.00  0.00     0.169 HD
BRANCH  34  37
HETATM   37  C15 UNL     1      20.095  83.916  -2.292  1.00  0.00     0.386 C 
BRANCH  37  38
HETATM   38  N12 UNL     1      19.157  84.055  -3.416  1.00  0.00    -0.046 N 
ATOM     39 3H12 UNL     1      19.086  83.214  -3.988  1.00  0.00     0.277 HD
ATOM     40 2H12 UNL     1      18.180  84.092  -3.124  1.00  0.00     0.277 HD
ATOM     41 1H12 UNL     1      19.452  84.878  -3.941  1.00  0.00     0.277 HD
ENDBRANCH  37  38
BRANCH  37  42
HETATM   42  O4  UNL     1      21.148  83.097  -2.676  1.00  0.00    -0.364 OA
ATOM     43  H4  UNL     1      21.890  83.325  -2.127  1.00  0.00     0.212 HD
ENDBRANCH  37  42
ENDBRANCH  34  37
ENDBRANCH  21  29
BRANCH  25  44
HETATM   44  N8  UNL     1      13.147  79.239   0.649  1.00  0.00    -0.234 N 
ATOM     45  H82 UNL     1      13.021  78.356   0.153  1.00  0.00     0.174 HD
ATOM     46  H81 UNL     1      12.452  79.637   1.281  1.00  0.00     0.174 HD
ENDBRANCH  25  44
ENDBRANCH   9  19
ENDBRANCH   1   7
TORSDOF 10
ENDMDL
MODEL 3
REMARK VINA RESULT: -8.337149272      1.257      1.526
REMARK  10 active torsions:
REMARK  status: ('A' for Active; 'I' for Inactive)
REMARK    1  A    between atoms: C2_5  and  C3_6 
REMARK    2  A    between atoms: N3_8  and  C5_9 
REMARK    3  A    between atoms: C6_10  and  C7_11 
REMARK    4  A    between atoms: C7_11  and  O1_12 
REMARK    5  A    between atoms: C7_11  and  O2_14 
REMARK    6  A    between atoms: C8_16  and  C9_17 
REMARK       I    between atoms: C9_17  and  N4_19 
REMARK    7  A    between atoms: C12_27  and  N8_28 
REMARK    8  A    between atoms: C14_39  and  C15_40 
REMARK    9  A    between atoms: C15_40  and  N12_41 
REMARK   10  A    between atoms: C15_40  and  O4_45 
ROOT
HETATM    1  C9  UNL     1      10.442  81.793  -3.284  1.00  0.00     0.283 C 
HETATM    2  O3  UNL     1       9.421  81.584  -2.519  1.00  0.00    -0.265 OA
HETATM    3  N4  UNL     1      10.132  82.473  -4.476  1.00  0.00    -0.258 N 
ATOM      4  H4  UNL     1      10.879  82.692  -5.135  1.00  0.00     0.181 HD
HETATM    5  C10 UNL     1       8.815  82.857  -4.776  1.00  0.00     0.184 C 
HETATM    6  N5  UNL     1       7.715  83.174  -5.044  1.00  0.00    -0.172 NA
ENDROOT
BRANCH   1   7
HETATM    7  C8  UNL     1      11.739  81.342  -2.871  1.00  0.00     0.132 A 
HETATM    8  C6  UNL     1      12.596  81.801  -1.930  1.00  0.00     0.076 A 
HETATM    9  C5  UNL     1      13.690  80.935  -1.877  1.00  0.00     0.158 A 
HETATM   10  N7  UNL     1      13.464  79.977  -2.792  1.00  0.00    -0.279 N 
HETATM   11  N6  UNL     1      12.311  80.212  -3.385  1.00  0.00    -0.291 N 
HETATM   12  C11 UNL     1      14.392  78.867  -3.043  1.00  0.00     0.179 C 
ATOM     13  H6  UNL     1      11.904  79.635  -4.122  1.00  0.00     0.187 HD
BRANCH   8  14
HETATM   14  C7  UNL     1      12.499  83.002  -1.075  1.00  0.00     0.294 C 
BRANCH  14  15
HETATM   15  O1  UNL     1      11.270  83.124  -0.419  1.00  0.00    -0.367 OA
ATOM     16  H1  UNL     1      11.316  83.631   0.383  1.00  0.00     0.213 HD
ENDBRANCH  14  15
BRANCH  14  17
HETATM   17  O2  UNL     1      12.724  84.189  -1.746  1.00  0.00    -0.367 OA
ATOM     18  H2  UNL     1      12.052  84.846  -1.606  1.00  0.00     0.213 HD
ENDBRANCH  14  17
ENDBRANCH   8  14
BRANCH   9  19
HETATM   19  N3  UNL     1      14.830  81.018  -1.034  1.00  0.00    -0.140 N 
HETATM   20  C4  UNL     1      15.901  81.751  -1.330  1.00  0.00     0.136 A 
HETATM   21  C3  UNL     1      16.986  81.802  -0.456  1.00  0.00     0.070 A 
HETATM   22  C13 UNL     1      16.930  81.081   0.715  1.00  0.00     0.130 A 
HETATM   23  N9  UNL     1      15.817  80.329   1.004  1.00  0.00    -0.176 N 
HETATM   24  N10 UNL     1      17.856  81.068   1.557  1.00  0.00    -0.384 N 
HETATM   25  C12 UNL     1      14.818  80.322   0.134  1.00  0.00     0.685 A 
ATOM     26  H9  UNL     1      15.761  79.790   1.868  1.00  0.00     0.186 HD
ATOM     27 2H10 UNL     1      18.682  81.626   1.343  1.00  0.00     0.157 HD
ATOM     28 1H10 UNL     1      17.814  80.533   2.425  1.00  0.00     0.157 HD
BRANCH  21  29
HETATM   29  C2  UNL     1      18.132  82.632  -0.850  1.00  0.00     0.137 A 
HETATM   30  N2  UNL     1      18.086  83.907  -1.295  1.00  0.00    -0.281 N 
HETATM   31  N1  UNL     1      19.319  84.341  -1.557  1.00  0.00    -0.279 N 
ATOM     32  H2  UNL     1      17.234  84.456  -1.414  1.00  0.00     0.189 HD
HETATM   33  C1  UNL     1      19.684  85.668  -2.058  1.00  0.00     0.179 C 
HETATM   34  C14 UNL     1      20.164  83.351  -1.282  1.00  0.00     0.156 A 
HETATM   35  N11 UNL     1      19.426  82.325  -0.855  1.00  0.00    -0.325 N 
ATOM     36  H11 UNL     1      19.805  81.422  -0.570  1.00  0.00     0.169 HD
BRANCH  34  37
HETATM   37  C15 UNL     1      21.662  83.350  -1.412  1.00  0.00     0.386 C 
BRANCH  37  38
HETATM   38  N12 UNL     1      21.959  83.178  -2.842  1.00  0.00    -0.046 N 
ATOM     39 3H12 UNL     1      22.468  83.964  -3.246  1.00  0.00     0.277 HD
ATOM     40 2H12 UNL     1      22.664  82.464  -3.025  1.00  0.00     0.277 HD
ATOM     41 1H12 UNL     1      21.069  82.993  -3.304  1.00  0.00     0.277 HD
ENDBRANCH  37  38
BRANCH  37  42
HETATM   42  O4  UNL     1      22.129  82.246  -0.713  1.00  0.00    -0.364 OA
ATOM     43  H4  UNL     1      22.179  82.498   0.202  1.00  0.00     0.212 HD
ENDBRANCH  37  42
ENDBRANCH  34  37
ENDBRANCH  21  29
BRANCH  25  44
HETATM   44  N8  UNL     1      13.751  79.602   0.419  1.00  0.00    -0.234 N 
ATOM     45  H82 UNL     1      13.788  78.988   1.232  1.00  0.00     0.174 HD
ATOM     46  H81 UNL     1      12.933  79.692  -0.185  1.00  0.00     0.174 HD
ENDBRANCH  25  44
ENDBRANCH   9  19
ENDBRANCH   1   7
TORSDOF 10
ENDMDL
MODEL 4
REMARK VINA RESULT: -8.239811645      1.135      1.717
REMARK  10 active torsions:
REMARK  status: ('A' for Active; 'I' for Inactive)
REMARK    1  A    between atoms: C2_5  and  C3_6 
REMARK    2  A    between atoms: N3_8  and  C5_9 
REMARK    3  A    between atoms: C6_10  and  C7_11 
REMARK    4  A    between atoms: C7_11  and  O1_12 
REMARK    5  A    between atoms: C7_11  and  O2_14 
REMARK    6  A    between atoms: C8_16  and  C9_17 
REMARK       I    between atoms: C9_17  and  N4_19 
REMARK    7  A    between atoms: C12_27  and  N8_28 
REMARK    8  A    between atoms: C14_39  and  C15_40 
REMARK    9  A    between atoms: C15_40  and  N12_41 
REMARK   10  A    between atoms: C15_40  and  O4_45 
ROOT
HETATM    1  C9  UNL     1      11.000  82.133  -3.896  1.00  0.00     0.283 C 
HETATM    2  O3  UNL     1      11.322  82.915  -4.874  1.00  0.00    -0.265 OA
HETATM    3  N4  UNL     1       9.615  82.060  -3.657  1.00  0.00    -0.258 N 
ATOM      4  H4  UNL     1       9.268  81.457  -2.911  1.00  0.00     0.181 HD
HETATM    5  C10 UNL     1       8.702  82.801  -4.424  1.00  0.00     0.184 C 
HETATM    6  N5  UNL     1       7.926  83.423  -5.052  1.00  0.00    -0.172 NA
ENDROOT
BRANCH   1   7
HETATM    7  C8  UNL     1      12.028  81.437  -3.179  1.00  0.00     0.132 A 
HETATM    8  C6  UNL     1      12.665  81.717  -2.018  1.00  0.00     0.076 A 
HETATM    9  C5  UNL     1      13.522  80.653  -1.725  1.00  0.00     0.158 A 
HETATM   10  N7  UNL     1      13.381  79.762  -2.721  1.00  0.00    -0.279 N 
HETATM   11  N6  UNL     1      12.498  80.220  -3.586  1.00  0.00    -0.291 N 
HETATM   12  C11 UNL     1      14.118  78.494  -2.778  1.00  0.00     0.179 C 
ATOM     13  H6  UNL     1      12.207  79.736  -4.436  1.00  0.00     0.187 HD
BRANCH   8  14
HETATM   14  C7  UNL     1      12.563  82.909  -1.154  1.00  0.00     0.294 C 
BRANCH  14  15
HETATM   15  O1  UNL     1      11.325  83.036  -0.519  1.00  0.00    -0.367 OA
ATOM     16  H1  UNL     1      10.731  83.633  -0.959  1.00  0.00     0.213 HD
ENDBRANCH  14  15
BRANCH  14  17
HETATM   17  O2  UNL     1      12.812  84.101  -1.809  1.00  0.00    -0.367 OA
ATOM     18  H2  UNL     1      12.077  84.703  -1.807  1.00  0.00     0.213 HD
ENDBRANCH  14  17
ENDBRANCH   8  14
BRANCH   9  19
HETATM   19  N3  UNL     1      14.384  80.509  -0.605  1.00  0.00    -0.140 N 
HETATM   20  C4  UNL     1      15.580  81.087  -0.530  1.00  0.00     0.136 A 
HETATM   21  C3  UNL     1      16.377  80.917   0.602  1.00  0.00     0.070 A 
HETATM   22  C13 UNL     1      15.904  80.143   1.637  1.00  0.00     0.130 A 
HETATM   23  N9  UNL     1      14.666  79.554   1.542  1.00  0.00    -0.176 N 
HETATM   24  N10 UNL     1      16.549  79.936   2.690  1.00  0.00    -0.384 N 
HETATM   25  C12 UNL     1      13.956  79.753   0.441  1.00  0.00     0.685 A 
ATOM     26  H9  UNL     1      14.302  78.978   2.301  1.00  0.00     0.186 HD
ATOM     27 2H10 UNL     1      17.468  80.374   2.761  1.00  0.00     0.157 HD
ATOM     28 1H10 UNL     1      16.198  79.363   3.456  1.00  0.00     0.157 HD
BRANCH  21  29
HETATM   29  C2  UNL     1      17.685  81.584   0.613  1.00  0.00     0.137 A 
HETATM   30  N2  UNL     1      18.469  81.800   1.693  1.00  0.00    -0.281 N 
HETATM   31  N1  UNL     1      19.584  82.432   1.325  1.00  0.00    -0.279 N 
ATOM     32  H2  UNL     1      18.242  81.520   2.647  1.00  0.00     0.189 HD
HETATM   33  C1  UNL     1      20.680  82.842   2.206  1.00  0.00     0.179 C 
HETATM   34  C14 UNL     1      19.525  82.625   0.010  1.00  0.00     0.156 A 
HETATM   35  N11 UNL     1      18.367  82.105  -0.402  1.00  0.00    -0.325 N 
ATOM     36  H11 UNL     1      18.048  82.108  -1.371  1.00  0.00     0.169 HD
BRANCH  34  37
HETATM   37  C15 UNL     1      20.542  83.294  -0.873  1.00  0.00     0.386 C 
BRANCH  37  38
HETATM   38  N12 UNL     1      19.883  83.531  -2.167  1.00  0.00    -0.046 N 
ATOM     39 3H12 UNL     1      20.450  83.247  -2.965  1.00  0.00     0.277 HD
ATOM     40 2H12 UNL     1      19.097  82.905  -2.340  1.00  0.00     0.277 HD
ATOM     41 1H12 UNL     1      19.625  84.518  -2.185  1.00  0.00     0.277 HD
ENDBRANCH  37  38
BRANCH  37  42
HETATM   42  O4  UNL     1      21.581  82.391  -1.049  1.00  0.00    -0.364 OA
ATOM     43  H4  UNL     1      22.018  82.305  -0.210  1.00  0.00     0.212 HD
ENDBRANCH  37  42
ENDBRANCH  34  37
ENDBRANCH  21  29
BRANCH  25  44
HETATM   44  N8  UNL     1      12.768  79.189   0.357  1.00  0.00    -0.234 N 
ATOM     45  H82 UNL     1      12.267  78.991   1.224  1.00  0.00     0.174 HD
ATOM     46  H81 UNL     1      12.398  78.978  -0.570  1.00  0.00     0.174 HD
ENDBRANCH  25  44
ENDBRANCH   9  19
ENDBRANCH   1   7
TORSDOF 10
ENDMDL
MODEL 5
REMARK VINA RESULT: -7.993150131      4.224      8.376
REMARK  10 active torsions:
REMARK  status: ('A' for Active; 'I' for Inactive)
REMARK    1  A    between atoms: C2_5  and  C3_6 
REMARK    2  A    between atoms: N3_8  and  C5_9 
REMARK    3  A    between atoms: C6_10  and  C7_11 
REMARK    4  A    between atoms: C7_11  and  O1_12 
REMARK    5  A    between atoms: C7_11  and  O2_14 
REMARK    6  A    between atoms: C8_16  and  C9_17 
REMARK       I    between atoms: C9_17  and  N4_19 
REMARK    7  A    between atoms: C12_27  and  N8_28 
REMARK    8  A    between atoms: C14_39  and  C15_40 
REMARK    9  A    between atoms: C15_40  and  N12_41 
REMARK   10  A    between atoms: C15_40  and  O4_45 
ROOT
HETATM    1  C9  UNL     1      16.683  78.186  -6.222  1.00  0.00     0.283 C 
HETATM    2  O3  UNL     1      17.628  77.525  -5.638  1.00  0.00    -0.265 OA
HETATM    3  N4  UNL     1      16.400  77.743  -7.528  1.00  0.00    -0.258 N 
ATOM      4  H4  UNL     1      15.659  78.200  -8.060  1.00  0.00     0.181 HD
HETATM    5  C10 UNL     1      17.116  76.687  -8.111  1.00  0.00     0.184 C 
HETATM    6  N5  UNL     1      17.715  75.810  -8.616  1.00  0.00    -0.172 NA
ENDROOT
BRANCH   1   7
HETATM    7  C8  UNL     1      16.032  79.256  -5.524  1.00  0.00     0.132 A 
HETATM    8  C6  UNL     1      14.835  79.326  -4.896  1.00  0.00     0.076 A 
HETATM    9  C5  UNL     1      14.729  80.585  -4.300  1.00  0.00     0.158 A 
HETATM   10  N7  UNL     1      15.866  81.241  -4.587  1.00  0.00    -0.279 N 
HETATM   11  N6  UNL     1      16.642  80.461  -5.312  1.00  0.00    -0.291 N 
HETATM   12  C11 UNL     1      16.144  82.610  -4.134  1.00  0.00     0.179 C 
ATOM     13  H6  UNL     1      17.565  80.718  -5.665  1.00  0.00     0.187 HD
BRANCH   8  14
HETATM   14  C7  UNL     1      13.754  78.323  -4.816  1.00  0.00     0.294 C 
BRANCH  14  15
HETATM   15  O1  UNL     1      13.938  77.383  -3.798  1.00  0.00    -0.367 OA
ATOM     16  H1  UNL     1      13.173  76.845  -3.635  1.00  0.00     0.213 HD
ENDBRANCH  14  15
BRANCH  14  17
HETATM   17  O2  UNL     1      13.552  77.621  -5.990  1.00  0.00    -0.367 OA
ATOM     18  H2  UNL     1      12.736  77.134  -6.013  1.00  0.00     0.213 HD
ENDBRANCH  14  17
ENDBRANCH   8  14
BRANCH   9  19
HETATM   19  N3  UNL     1      13.651  81.101  -3.533  1.00  0.00    -0.140 N 
HETATM   20  C4  UNL     1      12.694  81.868  -4.050  1.00  0.00     0.136 A 
HETATM   21  C3  UNL     1      11.653  82.335  -3.247  1.00  0.00     0.070 A 
HETATM   22  C13 UNL     1      11.634  81.989  -1.915  1.00  0.00     0.130 A 
HETATM   23  N9  UNL     1      12.630  81.196  -1.400  1.00  0.00    -0.176 N 
HETATM   24  N10 UNL     1      10.740  82.361  -1.122  1.00  0.00    -0.384 N 
HETATM   25  C12 UNL     1      13.592  80.783  -2.213  1.00  0.00     0.685 A 
ATOM     26  H9  UNL     1      12.629  80.931  -0.415  1.00  0.00     0.186 HD
ATOM     27 2H10 UNL     1      10.000  82.950  -1.505  1.00  0.00     0.157 HD
ATOM     28 1H10 UNL     1      10.726  82.105  -0.136  1.00  0.00     0.157 HD
BRANCH  21  29
HETATM   29  C2  UNL     1      10.634  83.177  -3.887  1.00  0.00     0.137 A 
HETATM   30  N2  UNL     1       9.541  82.749  -4.557  1.00  0.00    -0.281 N 
HETATM   31  N1  UNL     1       8.842  83.794  -5.000  1.00  0.00    -0.279 N 
ATOM     32  H2  UNL     1       9.288  81.771  -4.702  1.00  0.00     0.189 HD
HETATM   33  C1  UNL     1       7.596  83.741  -5.770  1.00  0.00     0.179 C 
HETATM   34  C14 UNL     1       9.478  84.898  -4.619  1.00  0.00     0.156 A 
HETATM   35  N11 UNL     1      10.560  84.504  -3.946  1.00  0.00    -0.325 N 
ATOM     36  H11 UNL     1      11.243  85.138  -3.531  1.00  0.00     0.169 HD
BRANCH  34  37
HETATM   37  C15 UNL     1       9.086  86.327  -4.875  1.00  0.00     0.386 C 
BRANCH  37  38
HETATM   38  N12 UNL     1      10.101  86.886  -5.780  1.00  0.00    -0.046 N 
ATOM     39 3H12 UNL     1      11.013  86.437  -5.689  1.00  0.00     0.277 HD
ATOM     40 2H12 UNL     1       9.942  86.651  -6.760  1.00  0.00     0.277 HD
ATOM     41 1H12 UNL     1      10.126  87.890  -5.606  1.00  0.00     0.277 HD
ENDBRANCH  37  38
BRANCH  37  42
HETATM   42  O4  UNL     1       9.148  86.989  -3.656  1.00  0.00    -0.364 OA
ATOM     43  H4  UNL     1       8.659  87.797  -3.755  1.00  0.00     0.212 HD
ENDBRANCH  37  42
ENDBRANCH  34  37
ENDBRANCH  21  29
BRANCH  25  44
HETATM   44  N8  UNL     1      14.543  80.019  -1.713  1.00  0.00    -0.234 N 
ATOM     45  H82 UNL     1      15.325  79.768  -2.317  1.00  0.00     0.174 HD
ATOM     46  H81 UNL     1      14.456  79.714  -0.743  1.00  0.00     0.174 HD
ENDBRANCH  25  44
ENDBRANCH   9  19
ENDBRANCH   1   7
TORSDOF 10
ENDMDL
