MODEL 1
REMARK VINA RESULT: -7.400097053      0.000      0.000
REMARK  13 active torsions:
REMARK  status: ('A' for Active; 'I' for Inactive)
REMARK       I    between atoms: N1_2  and  C2_4 
REMARK    1  A    between atoms: C2_4  and  C3_6 
REMARK    2  A    between atoms: C4_9  and  C5_10 
REMARK    3  A    between atoms: C8_15  and  N4_16 
REMARK    4  A    between atoms: N6_21  and  N7_22 
REMARK    5  A    between atoms: N7_22  and  O2_24 
REMARK    6  A    between atoms: N8_26  and  C10_27 
REMARK    7  A    between atoms: C10_27  and  C11_28 
REMARK    8  A    between atoms: C10_27  and  C12_31 
REMARK    9  A    between atoms: C11_28  and  O3_29 
REMARK   10  A    between atoms: C12_31  and  O4_32 
REMARK   11  A    between atoms: C12_31  and  O5_34 
REMARK   12  A    between atoms: C13_36  and  O6_37 
REMARK   13  A    between atoms: C14_41  and  N10_42 
ROOT
HETATM    1  C5  UNL     1      16.171  79.127  -5.964  1.00  0.00     0.142 A 
HETATM    2  N3  UNL     1      17.494  79.055  -6.429  1.00  0.00    -0.323 N 
ATOM      3  H3  UNL     1      18.126  79.817  -6.183  1.00  0.00     0.169 HD
HETATM    4  C6  UNL     1      17.975  78.076  -7.159  1.00  0.00     0.161 A 
HETATM    5  C7  UNL     1      17.155  77.053  -7.500  1.00  0.00     0.166 A 
HETATM    6  C8  UNL     1      15.829  77.096  -7.043  1.00  0.00     0.137 A 
HETATM    7  N5  UNL     1      15.370  78.140  -6.273  1.00  0.00    -0.320 N 
HETATM    8  C9  UNL     1      14.095  77.891  -5.617  1.00  0.00     0.159 C 
HETATM    9  N6  UNL     1      18.179  76.511  -8.153  1.00  0.00    -0.165 N 
HETATM   10  N8  UNL     1      18.993  77.484  -7.840  1.00  0.00    -0.239 N 
ENDROOT
BRANCH   1  11
HETATM   11  C4  UNL     1      15.922  80.293  -5.137  1.00  0.00     0.129 A 
HETATM   12  N2  UNL     1      15.708  80.002  -3.812  1.00  0.00    -0.342 N 
HETATM   13  C3  UNL     1      15.594  80.866  -2.806  1.00  0.00     0.145 A 
ATOM     14  H2  UNL     1      15.627  79.014  -3.572  1.00  0.00     0.166 HD
HETATM   15  C14 UNL     1      15.709  82.193  -3.147  1.00  0.00     0.133 A 
HETATM   16  N9  UNL     1      15.922  82.536  -4.431  1.00  0.00    -0.320 N 
HETATM   17  C13 UNL     1      16.031  81.604  -5.426  1.00  0.00     0.173 A 
ATOM     18  H9  UNL     1      16.004  83.524  -4.669  1.00  0.00     0.169 HD
BRANCH  13  19
HETATM   19  C2  UNL     1      15.365  80.349  -1.461  1.00  0.00     0.271 C 
HETATM   20  N1  UNL     1      14.397  79.419  -1.107  1.00  0.00    -0.360 N 
HETATM   21  C1  UNL     1      14.311  79.015   0.313  1.00  0.00     0.149 C 
ATOM     22  H1  UNL     1      13.764  79.027  -1.804  1.00  0.00     0.162 HD
HETATM   23  O1  UNL     1      16.142  80.804  -0.565  1.00  0.00    -0.266 OA
ENDBRANCH  13  19
BRANCH  15  24
HETATM   24  N10 UNL     1      15.696  83.104  -2.249  1.00  0.00    -0.383 N 
ATOM     25 2H10 UNL     1      15.308  82.894  -1.329  1.00  0.00     0.157 HD
ATOM     26 1H10 UNL     1      16.010  84.051  -2.460  1.00  0.00     0.157 HD
ENDBRANCH  15  24
BRANCH  17  27
HETATM   27  O6  UNL     1      16.275  82.117  -6.677  1.00  0.00    -0.344 OA
ATOM     28  H6  UNL     1      16.877  82.828  -6.867  1.00  0.00     0.219 HD
ENDBRANCH  17  27
ENDBRANCH   1  11
BRANCH   6  29
HETATM   29  N4  UNL     1      15.077  76.149  -7.409  1.00  0.00    -0.383 N 
ATOM     30  H42 UNL     1      14.737  76.064  -8.367  1.00  0.00     0.157 HD
ATOM     31  H41 UNL     1      14.849  75.449  -6.702  1.00  0.00     0.157 HD
ENDBRANCH   6  29
BRANCH  10  32
HETATM   32  C10 UNL     1      20.373  77.884  -8.055  1.00  0.00     0.190 C 
BRANCH  32  33
HETATM   33  C11 UNL     1      21.331  76.884  -7.476  1.00  0.00     0.196 C 
BRANCH  33  34
HETATM   34  O3  UNL     1      22.651  77.259  -7.521  1.00  0.00    -0.399 OA
ATOM     35  H3  UNL     1      23.157  77.030  -6.750  1.00  0.00     0.209 HD
ENDBRANCH  33  34
ENDBRANCH  32  33
BRANCH  32  36
HETATM   36  C12 UNL     1      20.671  78.175  -9.509  1.00  0.00     0.280 C 
BRANCH  36  37
HETATM   37  O4  UNL     1      21.048  76.953 -10.104  1.00  0.00    -0.369 OA
ATOM     38  H4  UNL     1      20.251  76.538 -10.412  1.00  0.00     0.212 HD
ENDBRANCH  36  37
BRANCH  36  39
HETATM   39  O5  UNL     1      21.763  79.005  -9.608  1.00  0.00    -0.369 OA
ATOM     40  H5  UNL     1      21.830  79.350 -10.490  1.00  0.00     0.212 HD
ENDBRANCH  36  39
ENDBRANCH  32  36
ENDBRANCH  10  32
BRANCH   9  41
HETATM   41  N7  UNL     1      18.284  75.327  -8.888  1.00  0.00    -0.188 N 
ATOM     42  H7  UNL     1      17.458  74.736  -8.988  1.00  0.00     0.218 HD
BRANCH  41  43
HETATM   43  O2  UNL     1      19.352  74.965  -9.429  1.00  0.00    -0.273 OA
ATOM     44  H2  UNL     1      19.537  75.120 -10.348  1.00  0.00     0.246 HD
ENDBRANCH  41  43
ENDBRANCH   9  41
TORSDOF 13
ENDMDL
MODEL 2
REMARK VINA RESULT: -7.355081069      2.675      8.799
REMARK  13 active torsions:
REMARK  status: ('A' for Active; 'I' for Inactive)
REMARK       I    between atoms: N1_2  and  C2_4 
REMARK    1  A    between atoms: C2_4  and  C3_6 
REMARK    2  A    between atoms: C4_9  and  C5_10 
REMARK    3  A    between atoms: C8_15  and  N4_16 
REMARK    4  A    between atoms: N6_21  and  N7_22 
REMARK    5  A    between atoms: N7_22  and  O2_24 
REMARK    6  A    between atoms: N8_26  and  C10_27 
REMARK    7  A    between atoms: C10_27  and  C11_28 
REMARK    8  A    between atoms: C10_27  and  C12_31 
REMARK    9  A    between atoms: C11_28  and  O3_29 
REMARK   10  A    between atoms: C12_31  and  O4_32 
REMARK   11  A    between atoms: C12_31  and  O5_34 
REMARK   12  A    between atoms: C13_36  and  O6_37 
REMARK   13  A    between atoms: C14_41  and  N10_42 
ROOT
HETATM    1  C5  UNL     1      15.202  79.859  -5.376  1.00  0.00     0.142 A 
HETATM    2  N3  UNL     1      14.237  79.679  -4.371  1.00  0.00    -0.323 N 
ATOM      3  H3  UNL     1      13.742  78.787  -4.343  1.00  0.00     0.169 HD
HETATM    4  C6  UNL     1      13.928  80.577  -3.466  1.00  0.00     0.161 A 
HETATM    5  C7  UNL     1      14.571  81.769  -3.483  1.00  0.00     0.166 A 
HETATM    6  C8  UNL     1      15.545  81.974  -4.473  1.00  0.00     0.137 A 
HETATM    7  N5  UNL     1      15.842  81.000  -5.399  1.00  0.00    -0.320 N 
HETATM    8  C9  UNL     1      17.073  81.228  -6.141  1.00  0.00     0.159 C 
HETATM    9  N6  UNL     1      13.841  82.126  -2.431  1.00  0.00    -0.165 N 
HETATM   10  N8  UNL     1      13.204  80.986  -2.389  1.00  0.00    -0.239 N 
ENDROOT
BRANCH   1  11
HETATM   11  C4  UNL     1      15.378  78.686  -6.212  1.00  0.00     0.129 A 
HETATM   12  N2  UNL     1      16.606  78.617  -6.825  1.00  0.00    -0.342 N 
HETATM   13  C3  UNL     1      17.098  77.601  -7.529  1.00  0.00     0.145 A 
ATOM     14  H2  UNL     1      17.207  79.436  -6.729  1.00  0.00     0.166 HD
HETATM   15  C14 UNL     1      16.276  76.504  -7.645  1.00  0.00     0.133 A 
HETATM   16  N9  UNL     1      15.063  76.516  -7.062  1.00  0.00    -0.320 N 
HETATM   17  C13 UNL     1      14.607  77.590  -6.347  1.00  0.00     0.173 A 
ATOM     18  H9  UNL     1      14.463  75.697  -7.156  1.00  0.00     0.169 HD
BRANCH  13  19
HETATM   19  C2  UNL     1      18.433  77.728  -8.104  1.00  0.00     0.271 C 
HETATM   20  N1  UNL     1      19.608  77.910  -7.387  1.00  0.00    -0.360 N 
HETATM   21  C1  UNL     1      20.872  78.022  -8.145  1.00  0.00     0.149 C 
ATOM     22  H1  UNL     1      19.599  77.964  -6.369  1.00  0.00     0.162 HD
HETATM   23  O1  UNL     1      18.488  77.653  -9.371  1.00  0.00    -0.266 OA
ENDBRANCH  13  19
BRANCH  15  24
HETATM   24  N10 UNL     1      16.679  75.442  -8.230  1.00  0.00    -0.383 N 
ATOM     25 2H10 UNL     1      17.674  75.217  -8.229  1.00  0.00     0.157 HD
ATOM     26 1H10 UNL     1      16.029  74.853  -8.751  1.00  0.00     0.157 HD
ENDBRANCH  15  24
BRANCH  17  27
HETATM   27  O6  UNL     1      13.360  77.432  -5.794  1.00  0.00    -0.344 OA
ATOM     28  H6  UNL     1      12.804  76.671  -5.912  1.00  0.00     0.219 HD
ENDBRANCH  17  27
ENDBRANCH   1  11
BRANCH   6  29
HETATM   29  N4  UNL     1      16.100  83.109  -4.489  1.00  0.00    -0.383 N 
ATOM     30  H42 UNL     1      15.664  83.933  -4.078  1.00  0.00     0.157 HD
ATOM     31  H41 UNL     1      17.029  83.155  -4.909  1.00  0.00     0.157 HD
ENDBRANCH   6  29
BRANCH  10  32
HETATM   32  C10 UNL     1      12.171  80.323  -1.612  1.00  0.00     0.190 C 
BRANCH  32  33
HETATM   33  C11 UNL     1      12.722  79.761  -0.334  1.00  0.00     0.196 C 
BRANCH  33  34
HETATM   34  O3  UNL     1      11.831  79.011   0.395  1.00  0.00    -0.399 OA
ATOM     35  H3  UNL     1      12.192  78.213   0.764  1.00  0.00     0.209 HD
ENDBRANCH  33  34
ENDBRANCH  32  33
BRANCH  32  36
HETATM   36  C12 UNL     1      10.971  81.212  -1.367  1.00  0.00     0.280 C 
BRANCH  36  37
HETATM   37  O4  UNL     1      10.832  82.036  -2.502  1.00  0.00    -0.369 OA
ATOM     38  H4  UNL     1      10.345  82.804  -2.229  1.00  0.00     0.212 HD
ENDBRANCH  36  37
BRANCH  36  39
HETATM   39  O5  UNL     1      11.219  82.053  -0.307  1.00  0.00    -0.369 OA
ATOM     40  H5  UNL     1      10.416  82.486  -0.042  1.00  0.00     0.212 HD
ENDBRANCH  36  39
ENDBRANCH  32  36
ENDBRANCH  10  32
BRANCH   9  41
HETATM   41  N7  UNL     1      13.812  83.307  -1.683  1.00  0.00    -0.188 N 
ATOM     42  H7  UNL     1      14.606  83.528  -1.084  1.00  0.00     0.218 HD
BRANCH  41  43
HETATM   43  O2  UNL     1      12.847  84.102  -1.722  1.00  0.00    -0.273 OA
ATOM     44  H2  UNL     1      12.242  84.207  -0.997  1.00  0.00     0.246 HD
ENDBRANCH  41  43
ENDBRANCH   9  41
TORSDOF 13
ENDMDL
MODEL 3
REMARK VINA RESULT: -7.185484967      1.880      2.193
REMARK  13 active torsions:
REMARK  status: ('A' for Active; 'I' for Inactive)
REMARK       I    between atoms: N1_2  and  C2_4 
REMARK    1  A    between atoms: C2_4  and  C3_6 
REMARK    2  A    between atoms: C4_9  and  C5_10 
REMARK    3  A    between atoms: C8_15  and  N4_16 
REMARK    4  A    between atoms: N6_21  and  N7_22 
REMARK    5  A    between atoms: N7_22  and  O2_24 
REMARK    6  A    between atoms: N8_26  and  C10_27 
REMARK    7  A    between atoms: C10_27  and  C11_28 
REMARK    8  A    between atoms: C10_27  and  C12_31 
REMARK    9  A    between atoms: C11_28  and  O3_29 
REMARK   10  A    between atoms: C12_31  and  O4_32 
REMARK   11  A    between atoms: C12_31  and  O5_34 
REMARK   12  A    between atoms: C13_36  and  O6_37 
REMARK   13  A    between atoms: C14_41  and  N10_42 
ROOT
HETATM    1  C5  UNL     1      15.610  79.942  -4.883  1.00  0.00     0.142 A 
HETATM    2  N3  UNL     1      16.653  79.572  -5.747  1.00  0.00    -0.323 N 
ATOM      3  H3  UNL     1      17.446  80.208  -5.834  1.00  0.00     0.169 HD
HETATM    4  C6  UNL     1      16.679  78.464  -6.450  1.00  0.00     0.161 A 
HETATM    5  C7  UNL     1      15.639  77.604  -6.351  1.00  0.00     0.166 A 
HETATM    6  C8  UNL     1      14.584  77.946  -5.490  1.00  0.00     0.137 A 
HETATM    7  N5  UNL     1      14.603  79.117  -4.766  1.00  0.00    -0.320 N 
HETATM    8  C9  UNL     1      13.619  79.178  -3.695  1.00  0.00     0.159 C 
HETATM    9  N6  UNL     1      16.263  76.819  -7.225  1.00  0.00    -0.165 N 
HETATM   10  N8  UNL     1      17.281  77.630  -7.340  1.00  0.00    -0.239 N 
ENDROOT
BRANCH   1  11
HETATM   11  C4  UNL     1      15.861  81.194  -4.193  1.00  0.00     0.129 A 
HETATM   12  N2  UNL     1      16.238  81.042  -2.881  1.00  0.00    -0.342 N 
HETATM   13  C3  UNL     1      16.663  81.990  -2.050  1.00  0.00     0.145 A 
ATOM     14  H2  UNL     1      16.186  80.096  -2.501  1.00  0.00     0.166 HD
HETATM   15  C14 UNL     1      16.730  83.258  -2.579  1.00  0.00     0.133 A 
HETATM   16  N9  UNL     1      16.376  83.465  -3.861  1.00  0.00    -0.320 N 
HETATM   17  C13 UNL     1      15.945  82.450  -4.672  1.00  0.00     0.173 A 
ATOM     18  H9  UNL     1      16.430  84.410  -4.240  1.00  0.00     0.169 HD
BRANCH  13  19
HETATM   19  C2  UNL     1      17.016  81.618  -0.683  1.00  0.00     0.271 C 
HETATM   20  N1  UNL     1      16.222  80.880   0.183  1.00  0.00    -0.360 N 
HETATM   21  C1  UNL     1      16.746  80.603   1.537  1.00  0.00     0.149 C 
ATOM     22  H1  UNL     1      15.305  80.540  -0.105  1.00  0.00     0.162 HD
HETATM   23  O1  UNL     1      18.157  82.013  -0.290  1.00  0.00    -0.266 OA
ENDBRANCH  13  19
BRANCH  15  24
HETATM   24  N10 UNL     1      17.201  84.230  -1.895  1.00  0.00    -0.383 N 
ATOM     25 2H10 UNL     1      18.195  84.451  -1.958  1.00  0.00     0.157 HD
ATOM     26 1H10 UNL     1      16.611  84.743  -1.240  1.00  0.00     0.157 HD
ENDBRANCH  15  24
BRANCH  17  27
HETATM   27  O6  UNL     1      15.648  82.823  -5.960  1.00  0.00    -0.344 OA
ATOM     28  H6  UNL     1      15.151  82.300  -6.577  1.00  0.00     0.219 HD
ENDBRANCH  17  27
ENDBRANCH   1  11
BRANCH   6  29
HETATM   29  N4  UNL     1      13.609  77.144  -5.448  1.00  0.00    -0.383 N 
ATOM     30  H42 UNL     1      13.582  76.355  -4.803  1.00  0.00     0.157 HD
ATOM     31  H41 UNL     1      12.828  77.345  -6.073  1.00  0.00     0.157 HD
ENDBRANCH   6  29
BRANCH  10  32
HETATM   32  C10 UNL     1      18.542  77.728  -8.056  1.00  0.00     0.190 C 
BRANCH  32  33
HETATM   33  C11 UNL     1      19.679  77.184  -7.241  1.00  0.00     0.196 C 
BRANCH  33  34
HETATM   34  O3  UNL     1      20.928  77.551  -7.679  1.00  0.00    -0.399 OA
ATOM     35  H3  UNL     1      21.165  77.210  -8.534  1.00  0.00     0.209 HD
ENDBRANCH  33  34
ENDBRANCH  32  33
BRANCH  32  36
HETATM   36  C12 UNL     1      18.479  77.094  -9.428  1.00  0.00     0.280 C 
BRANCH  36  37
HETATM   37  O4  UNL     1      18.840  75.740  -9.273  1.00  0.00    -0.369 OA
ATOM     38  H4  UNL     1      19.788  75.700  -9.320  1.00  0.00     0.212 HD
ENDBRANCH  36  37
BRANCH  36  39
HETATM   39  O5  UNL     1      19.429  77.656 -10.249  1.00  0.00    -0.369 OA
ATOM     40  H5  UNL     1      19.303  77.359 -11.142  1.00  0.00     0.212 HD
ENDBRANCH  36  39
ENDBRANCH  32  36
ENDBRANCH  10  32
BRANCH   9  41
HETATM   41  N7  UNL     1      15.908  75.586  -7.779  1.00  0.00    -0.188 N 
ATOM     42  H7  UNL     1      16.479  75.205  -8.533  1.00  0.00     0.218 HD
BRANCH  41  43
HETATM   43  O2  UNL     1      14.916  74.933  -7.386  1.00  0.00    -0.273 OA
ATOM     44  H2  UNL     1      14.814  74.005  -7.563  1.00  0.00     0.246 HD
ENDBRANCH  41  43
ENDBRANCH   9  41
TORSDOF 13
ENDMDL
MODEL 4
REMARK VINA RESULT: -7.059637304      2.374      3.093
REMARK  13 active torsions:
REMARK  status: ('A' for Active; 'I' for Inactive)
REMARK       I    between atoms: N1_2  and  C2_4 
REMARK    1  A    between atoms: C2_4  and  C3_6 
REMARK    2  A    between atoms: C4_9  and  C5_10 
REMARK    3  A    between atoms: C8_15  and  N4_16 
REMARK    4  A    between atoms: N6_21  and  N7_22 
REMARK    5  A    between atoms: N7_22  and  O2_24 
REMARK    6  A    between atoms: N8_26  and  C10_27 
REMARK    7  A    between atoms: C10_27  and  C11_28 
REMARK    8  A    between atoms: C10_27  and  C12_31 
REMARK    9  A    between atoms: C11_28  and  O3_29 
REMARK   10  A    between atoms: C12_31  and  O4_32 
REMARK   11  A    between atoms: C12_31  and  O5_34 
REMARK   12  A    between atoms: C13_36  and  O6_37 
REMARK   13  A    between atoms: C14_41  and  N10_42 
ROOT
HETATM    1  C5  UNL     1      15.546  80.499  -4.441  1.00  0.00     0.142 A 
HETATM    2  N3  UNL     1      16.536  79.981  -5.292  1.00  0.00    -0.323 N 
ATOM      3  H3  UNL     1      17.374  80.542  -5.441  1.00  0.00     0.169 HD
HETATM    4  C6  UNL     1      16.457  78.826  -5.909  1.00  0.00     0.161 A 
HETATM    5  C7  UNL     1      15.353  78.063  -5.728  1.00  0.00     0.166 A 
HETATM    6  C8  UNL     1      14.350  78.553  -4.878  1.00  0.00     0.137 A 
HETATM    7  N5  UNL     1      14.478  79.769  -4.245  1.00  0.00    -0.320 N 
HETATM    8  C9  UNL     1      13.528  79.990  -3.165  1.00  0.00     0.159 C 
HETATM    9  N6  UNL     1      15.892  77.168  -6.550  1.00  0.00    -0.165 N 
HETATM   10  N8  UNL     1      16.969  77.882  -6.744  1.00  0.00    -0.239 N 
ENDROOT
BRANCH   1  11
HETATM   11  C4  UNL     1      15.913  81.773  -3.852  1.00  0.00     0.129 A 
HETATM   12  N2  UNL     1      16.604  81.664  -2.670  1.00  0.00    -0.342 N 
HETATM   13  C3  UNL     1      17.185  82.644  -1.983  1.00  0.00     0.145 A 
ATOM     14  H2  UNL     1      16.681  80.726  -2.275  1.00  0.00     0.166 HD
HETATM   15  C14 UNL     1      17.074  83.901  -2.531  1.00  0.00     0.133 A 
HETATM   16  N9  UNL     1      16.410  84.066  -3.690  1.00  0.00    -0.320 N 
HETATM   17  C13 UNL     1      15.831  83.020  -4.355  1.00  0.00     0.173 A 
ATOM     18  H9  UNL     1      16.335  85.003  -4.085  1.00  0.00     0.169 HD
BRANCH  13  19
HETATM   19  C2  UNL     1      17.873  82.315  -0.739  1.00  0.00     0.271 C 
HETATM   20  N1  UNL     1      17.314  81.650   0.343  1.00  0.00    -0.360 N 
HETATM   21  C1  UNL     1      18.168  81.408   1.525  1.00  0.00     0.149 C 
ATOM     22  H1  UNL     1      16.343  81.338   0.324  1.00  0.00     0.162 HD
HETATM   23  O1  UNL     1      19.090  82.676  -0.680  1.00  0.00    -0.266 OA
ENDBRANCH  13  19
BRANCH  15  24
HETATM   24  N10 UNL     1      17.662  84.903  -1.997  1.00  0.00    -0.383 N 
ATOM     25 2H10 UNL     1      17.574  85.058  -0.993  1.00  0.00     0.157 HD
ATOM     26 1H10 UNL     1      18.164  85.581  -2.570  1.00  0.00     0.157 HD
ENDBRANCH  15  24
BRANCH  17  27
HETATM   27  O6  UNL     1      15.215  83.354  -5.537  1.00  0.00    -0.344 OA
ATOM     28  H6  UNL     1      14.900  84.222  -5.761  1.00  0.00     0.219 HD
ENDBRANCH  17  27
ENDBRANCH   1  11
BRANCH   6  29
HETATM   29  N4  UNL     1      13.314  77.839  -4.758  1.00  0.00    -0.383 N 
ATOM     30  H42 UNL     1      13.290  77.013  -4.162  1.00  0.00     0.157 HD
ATOM     31  H41 UNL     1      12.486  78.151  -5.267  1.00  0.00     0.157 HD
ENDBRANCH   6  29
BRANCH  10  32
HETATM   32  C10 UNL     1      18.217  77.823  -7.487  1.00  0.00     0.190 C 
BRANCH  32  33
HETATM   33  C11 UNL     1      19.323  77.244  -6.654  1.00  0.00     0.196 C 
BRANCH  33  34
HETATM   34  O3  UNL     1      19.067  77.203  -5.305  1.00  0.00    -0.399 OA
ATOM     35  H3  UNL     1      18.165  77.004  -5.078  1.00  0.00     0.209 HD
ENDBRANCH  33  34
ENDBRANCH  32  33
BRANCH  32  36
HETATM   36  C12 UNL     1      18.070  77.103  -8.809  1.00  0.00     0.280 C 
BRANCH  36  37
HETATM   37  O4  UNL     1      16.834  77.500  -9.358  1.00  0.00    -0.369 OA
ATOM     38  H4  UNL     1      16.792  77.140 -10.236  1.00  0.00     0.212 HD
ENDBRANCH  36  37
BRANCH  36  39
HETATM   39  O5  UNL     1      17.981  75.746  -8.597  1.00  0.00    -0.369 OA
ATOM     40  H5  UNL     1      17.142  75.424  -8.906  1.00  0.00     0.212 HD
ENDBRANCH  36  39
ENDBRANCH  32  36
ENDBRANCH  10  32
BRANCH   9  41
HETATM   41  N7  UNL     1      15.427  75.930  -7.004  1.00  0.00    -0.188 N 
ATOM     42  H7  UNL     1      15.564  75.109  -6.415  1.00  0.00     0.218 HD
BRANCH  41  43
HETATM   43  O2  UNL     1      14.847  75.793  -8.104  1.00  0.00    -0.273 OA
ATOM     44  H2  UNL     1      15.308  75.537  -8.895  1.00  0.00     0.246 HD
ENDBRANCH  41  43
ENDBRANCH   9  41
TORSDOF 13
ENDMDL
MODEL 5
REMARK VINA RESULT: -6.968859037      1.653      3.411
REMARK  13 active torsions:
REMARK  status: ('A' for Active; 'I' for Inactive)
REMARK       I    between atoms: N1_2  and  C2_4 
REMARK    1  A    between atoms: C2_4  and  C3_6 
REMARK    2  A    between atoms: C4_9  and  C5_10 
REMARK    3  A    between atoms: C8_15  and  N4_16 
REMARK    4  A    between atoms: N6_21  and  N7_22 
REMARK    5  A    between atoms: N7_22  and  O2_24 
REMARK    6  A    between atoms: N8_26  and  C10_27 
REMARK    7  A    between atoms: C10_27  and  C11_28 
REMARK    8  A    between atoms: C10_27  and  C12_31 
REMARK    9  A    between atoms: C11_28  and  O3_29 
REMARK   10  A    between atoms: C12_31  and  O4_32 
REMARK   11  A    between atoms: C12_31  and  O5_34 
REMARK   12  A    between atoms: C13_36  and  O6_37 
REMARK   13  A    between atoms: C14_41  and  N10_42 
ROOT
HETATM    1  C5  UNL     1      16.434  79.183  -6.184  1.00  0.00     0.142 A 
HETATM    2  N3  UNL     1      17.740  79.096  -6.691  1.00  0.00    -0.323 N 
ATOM      3  H3  UNL     1      18.368  79.882  -6.523  1.00  0.00     0.169 HD
HETATM    4  C6  UNL     1      18.210  78.073  -7.366  1.00  0.00     0.161 A 
HETATM    5  C7  UNL     1      17.395  77.018  -7.603  1.00  0.00     0.166 A 
HETATM    6  C8  UNL     1      16.085  77.076  -7.102  1.00  0.00     0.137 A 
HETATM    7  N5  UNL     1      15.638  78.167  -6.392  1.00  0.00    -0.320 N 
HETATM    8  C9  UNL     1      14.391  77.949  -5.673  1.00  0.00     0.159 C 
HETATM    9  N6  UNL     1      18.403  76.443  -8.252  1.00  0.00    -0.165 N 
HETATM   10  N8  UNL     1      19.212  77.447  -8.040  1.00  0.00    -0.239 N 
ENDROOT
BRANCH   1  11
HETATM   11  C4  UNL     1      16.196  80.403  -5.434  1.00  0.00     0.129 A 
HETATM   12  N2  UNL     1      16.135  81.534  -6.212  1.00  0.00    -0.342 N 
HETATM   13  C3  UNL     1      15.795  82.760  -5.825  1.00  0.00     0.145 A 
ATOM     14  H2  UNL     1      16.378  81.420  -7.197  1.00  0.00     0.166 HD
HETATM   15  C14 UNL     1      15.467  82.894  -4.496  1.00  0.00     0.133 A 
HETATM   16  N9  UNL     1      15.507  81.819  -3.688  1.00  0.00    -0.320 N 
HETATM   17  C13 UNL     1      15.864  80.578  -4.141  1.00  0.00     0.173 A 
ATOM     18  H9  UNL     1      15.262  81.933  -2.704  1.00  0.00     0.169 HD
BRANCH  13  19
HETATM   19  C2  UNL     1      15.795  83.833  -6.814  1.00  0.00     0.271 C 
HETATM   20  N1  UNL     1      16.924  84.415  -7.375  1.00  0.00    -0.360 N 
HETATM   21  C1  UNL     1      16.727  85.497  -8.363  1.00  0.00     0.149 C 
ATOM     22  H1  UNL     1      17.859  84.105  -7.114  1.00  0.00     0.162 HD
HETATM   23  O1  UNL     1      14.647  84.238  -7.176  1.00  0.00    -0.266 OA
ENDBRANCH  13  19
BRANCH  15  24
HETATM   24  N10 UNL     1      15.048  84.010  -4.034  1.00  0.00    -0.383 N 
ATOM     25 2H10 UNL     1      15.703  84.635  -3.564  1.00  0.00     0.157 HD
ATOM     26 1H10 UNL     1      14.058  84.253  -4.072  1.00  0.00     0.157 HD
ENDBRANCH  15  24
BRANCH  17  27
HETATM   27  O6  UNL     1      15.828  79.582  -3.196  1.00  0.00    -0.344 OA
ATOM     28  H6  UNL     1      16.543  79.360  -2.610  1.00  0.00     0.219 HD
ENDBRANCH  17  27
ENDBRANCH   1  11
BRANCH   6  29
HETATM   29  N4  UNL     1      15.335  76.095  -7.371  1.00  0.00    -0.383 N 
ATOM     30  H42 UNL     1      15.189  75.770  -8.327  1.00  0.00     0.157 HD
ATOM     31  H41 UNL     1      14.905  75.620  -6.578  1.00  0.00     0.157 HD
ENDBRANCH   6  29
BRANCH  10  32
HETATM   32  C10 UNL     1      20.578  77.849  -8.333  1.00  0.00     0.190 C 
BRANCH  32  33
HETATM   33  C11 UNL     1      21.570  76.881  -7.758  1.00  0.00     0.196 C 
BRANCH  33  34
HETATM   34  O3  UNL     1      22.850  77.016  -8.238  1.00  0.00    -0.399 OA
ATOM     35  H3  UNL     1      23.172  76.269  -8.729  1.00  0.00     0.209 HD
ENDBRANCH  33  34
ENDBRANCH  32  33
BRANCH  32  36
HETATM   36  C12 UNL     1      20.807  78.082  -9.810  1.00  0.00     0.280 C 
BRANCH  36  37
HETATM   37  O4  UNL     1      21.080  76.825 -10.387  1.00  0.00    -0.369 OA
ATOM     38  H4  UNL     1      21.577  76.986 -11.180  1.00  0.00     0.212 HD
ENDBRANCH  36  37
BRANCH  36  39
HETATM   39  O5  UNL     1      21.936  78.845  -9.995  1.00  0.00    -0.369 OA
ATOM     40  H5  UNL     1      22.574  78.650  -9.319  1.00  0.00     0.212 HD
ENDBRANCH  36  39
ENDBRANCH  32  36
ENDBRANCH  10  32
BRANCH   9  41
HETATM   41  N7  UNL     1      18.500  75.211  -8.905  1.00  0.00    -0.188 N 
ATOM     42  H7  UNL     1      19.216  75.090  -9.621  1.00  0.00     0.218 HD
BRANCH  41  43
HETATM   43  O2  UNL     1      17.742  74.251  -8.644  1.00  0.00    -0.273 OA
ATOM     44  H2  UNL     1      17.468  73.623  -9.302  1.00  0.00     0.246 HD
ENDBRANCH  41  43
ENDBRANCH   9  41
TORSDOF 13
ENDMDL
