MODEL 1
REMARK VINA RESULT: -5.644290803      0.000      0.000
REMARK  4 active torsions:
REMARK  status: ('A' for Active; 'I' for Inactive)
REMARK    1  A    between atoms: C2_2  and  C3_4 
REMARK    2  A    between atoms: C3_4  and  S2_6 
REMARK    3  A    between atoms: S2_6  and  C4_7 
REMARK    4  A    between atoms: C4_7  and  C5_8 
ROOT
HETATM    1  C5  UNL     1      90.848   9.500  33.459  1.00  0.00     0.151 A 
HETATM    2  N1  UNL     1      89.920   8.616  33.115  1.00  0.00    -0.279 N 
ATOM      3  H1  UNL     1      89.793   8.260  32.168  1.00  0.00     0.189 HD
HETATM    4  N2  UNL     1      89.182   8.253  34.144  1.00  0.00    -0.263 N 
ATOM      5  H2  UNL     1      88.406   7.590  34.143  1.00  0.00     0.190 HD
HETATM    6  C6  UNL     1      89.662   8.936  35.195  1.00  0.00     0.238 A 
HETATM    7  N3  UNL     1      89.229   8.885  36.429  1.00  0.00    -0.364 N 
ATOM      8  H31 UNL     1      89.594   9.404  37.227  1.00  0.00     0.159 HD
ATOM      9  H32 UNL     1      88.456   8.310  36.763  1.00  0.00     0.159 HD
HETATM   10  O1  UNL     1      90.656   9.674  34.764  1.00  0.00    -0.263 OA
ENDROOT
BRANCH   1  11
HETATM   11  C4  UNL     1      91.921  10.227  32.724  1.00  0.00     0.166 C 
BRANCH  11  12
HETATM   12  S2  UNL     1      92.060  11.928  33.077  1.00  0.00    -0.109 SA
BRANCH  12  13
HETATM   13  C3  UNL     1      90.703  12.963  32.810  1.00  0.00     0.088 C 
HETATM   14  S1  UNL     1      90.830  14.468  33.600  1.00  0.00    -0.071 SA
BRANCH  13  15
HETATM   15  C2  UNL     1      89.494  12.768  32.071  1.00  0.00     0.052 C 
HETATM   16  C1  UNL     1      88.421  12.101  32.403  1.00  0.00     0.039 C 
HETATM   17 CL1  UNL     1      89.432  13.548  30.447  1.00  0.00    -0.083 Cl
ENDBRANCH  13  15
ENDBRANCH  12  13
ENDBRANCH  11  12
ENDBRANCH   1  11
TORSDOF 4
ENDMDL
MODEL 2
REMARK VINA RESULT: -5.616630697      1.651      1.681
REMARK  4 active torsions:
REMARK  status: ('A' for Active; 'I' for Inactive)
REMARK    1  A    between atoms: C2_2  and  C3_4 
REMARK    2  A    between atoms: C3_4  and  S2_6 
REMARK    3  A    between atoms: S2_6  and  C4_7 
REMARK    4  A    between atoms: C4_7  and  C5_8 
ROOT
HETATM    1  C5  UNL     1      90.792   9.389  33.495  1.00  0.00     0.151 A 
HETATM    2  N1  UNL     1      89.878   8.488  33.159  1.00  0.00    -0.279 N 
ATOM      3  H1  UNL     1      89.763   8.115  32.217  1.00  0.00     0.189 HD
HETATM    4  N2  UNL     1      89.138   8.130  34.189  1.00  0.00    -0.263 N 
ATOM      5  H2  UNL     1      88.372   7.457  34.192  1.00  0.00     0.190 HD
HETATM    6  C6  UNL     1      89.602   8.836  35.232  1.00  0.00     0.238 A 
HETATM    7  N3  UNL     1      89.162   8.798  36.463  1.00  0.00    -0.364 N 
ATOM      8  H31 UNL     1      89.515   9.334  37.256  1.00  0.00     0.159 HD
ATOM      9  H32 UNL     1      88.394   8.217  36.802  1.00  0.00     0.159 HD
HETATM   10  O1  UNL     1      90.589   9.581  34.796  1.00  0.00    -0.263 OA
ENDROOT
BRANCH   1  11
HETATM   11  C4  UNL     1      91.860  10.120  32.756  1.00  0.00     0.166 C 
BRANCH  11  12
HETATM   12  S2  UNL     1      91.913  11.843  33.011  1.00  0.00    -0.109 SA
BRANCH  12  13
HETATM   13  C3  UNL     1      90.442  12.749  32.996  1.00  0.00     0.088 C 
HETATM   14  S1  UNL     1      89.954  13.225  31.435  1.00  0.00    -0.071 SA
BRANCH  13  15
HETATM   15  C2  UNL     1      89.588  13.186  34.057  1.00  0.00     0.052 C 
HETATM   16  C1  UNL     1      88.582  12.568  34.616  1.00  0.00     0.039 C 
HETATM   17 CL1  UNL     1      89.940  14.824  34.723  1.00  0.00    -0.083 Cl
ENDBRANCH  13  15
ENDBRANCH  12  13
ENDBRANCH  11  12
ENDBRANCH   1  11
TORSDOF 4
ENDMDL
MODEL 3
REMARK VINA RESULT: -5.592600658      1.691      1.888
REMARK  4 active torsions:
REMARK  status: ('A' for Active; 'I' for Inactive)
REMARK    1  A    between atoms: C2_2  and  C3_4 
REMARK    2  A    between atoms: C3_4  and  S2_6 
REMARK    3  A    between atoms: S2_6  and  C4_7 
REMARK    4  A    between atoms: C4_7  and  C5_8 
ROOT
HETATM    1  C5  UNL     1      90.787   9.490  33.455  1.00  0.00     0.151 A 
HETATM    2  N1  UNL     1      89.867   8.594  33.121  1.00  0.00    -0.279 N 
ATOM      3  H1  UNL     1      89.740   8.230  32.176  1.00  0.00     0.189 HD
HETATM    4  N2  UNL     1      89.136   8.230  34.155  1.00  0.00    -0.263 N 
ATOM      5  H2  UNL     1      88.367   7.559  34.160  1.00  0.00     0.190 HD
HETATM    6  C6  UNL     1      89.613   8.925  35.199  1.00  0.00     0.238 A 
HETATM    7  N3  UNL     1      89.185   8.878  36.435  1.00  0.00    -0.364 N 
ATOM      8  H31 UNL     1      89.548   9.406  37.229  1.00  0.00     0.159 HD
ATOM      9  H32 UNL     1      88.419   8.297  36.776  1.00  0.00     0.159 HD
HETATM   10  O1  UNL     1      90.597   9.671  34.760  1.00  0.00    -0.263 OA
ENDROOT
BRANCH   1  11
HETATM   11  C4  UNL     1      91.850  10.223  32.711  1.00  0.00     0.166 C 
BRANCH  11  12
HETATM   12  S2  UNL     1      91.969  11.929  33.049  1.00  0.00    -0.109 SA
BRANCH  12  13
HETATM   13  C3  UNL     1      90.539  12.899  33.032  1.00  0.00     0.088 C 
HETATM   14  S1  UNL     1      89.945  13.206  31.465  1.00  0.00    -0.071 SA
BRANCH  13  15
HETATM   15  C2  UNL     1      89.793  13.503  34.092  1.00  0.00     0.052 C 
HETATM   16  C1  UNL     1      89.962  14.665  34.664  1.00  0.00     0.039 C 
HETATM   17 CL1  UNL     1      88.422  12.529  34.741  1.00  0.00    -0.083 Cl
ENDBRANCH  13  15
ENDBRANCH  12  13
ENDBRANCH  11  12
ENDBRANCH   1  11
TORSDOF 4
ENDMDL
MODEL 4
REMARK VINA RESULT: -5.579817053      2.725      3.342
REMARK  4 active torsions:
REMARK  status: ('A' for Active; 'I' for Inactive)
REMARK    1  A    between atoms: C2_2  and  C3_4 
REMARK    2  A    between atoms: C3_4  and  S2_6 
REMARK    3  A    between atoms: S2_6  and  C4_7 
REMARK    4  A    between atoms: C4_7  and  C5_8 
ROOT
HETATM    1  C5  UNL     1      89.761  11.093  32.565  1.00  0.00     0.151 A 
HETATM    2  N1  UNL     1      89.141   9.997  32.982  1.00  0.00    -0.279 N 
ATOM      3  H1  UNL     1      88.145   9.950  33.194  1.00  0.00     0.189 HD
HETATM    4  N2  UNL     1      89.966   8.975  33.091  1.00  0.00    -0.263 N 
ATOM      5  H2  UNL     1      89.738   8.028  33.392  1.00  0.00     0.190 HD
HETATM    6  C6  UNL     1      91.170   9.441  32.724  1.00  0.00     0.238 A 
HETATM    7  N3  UNL     1      92.291   8.768  32.678  1.00  0.00    -0.364 N 
ATOM      8  H31 UNL     1      93.207   9.121  32.399  1.00  0.00     0.159 HD
ATOM      9  H32 UNL     1      92.403   7.783  32.919  1.00  0.00     0.159 HD
HETATM   10  O1  UNL     1      91.026  10.706  32.414  1.00  0.00    -0.263 OA
ENDROOT
BRANCH   1  11
HETATM   11  C4  UNL     1      89.333  12.490  32.277  1.00  0.00     0.166 C 
BRANCH  11  12
HETATM   12  S2  UNL     1      90.289  13.743  33.022  1.00  0.00    -0.109 SA
BRANCH  12  13
HETATM   13  C3  UNL     1      89.848  14.331  34.585  1.00  0.00     0.088 C 
HETATM   14  S1  UNL     1      90.717  15.717  35.060  1.00  0.00    -0.071 SA
BRANCH  13  15
HETATM   15  C2  UNL     1      88.911  13.844  35.550  1.00  0.00     0.052 C 
HETATM   16  C1  UNL     1      88.206  12.745  35.537  1.00  0.00     0.039 C 
HETATM   17 CL1  UNL     1      88.655  14.894  36.993  1.00  0.00    -0.083 Cl
ENDBRANCH  13  15
ENDBRANCH  12  13
ENDBRANCH  11  12
ENDBRANCH   1  11
TORSDOF 4
ENDMDL
MODEL 5
REMARK VINA RESULT: -5.573432140      4.310      5.695
REMARK  4 active torsions:
REMARK  status: ('A' for Active; 'I' for Inactive)
REMARK    1  A    between atoms: C2_2  and  C3_4 
REMARK    2  A    between atoms: C3_4  and  S2_6 
REMARK    3  A    between atoms: S2_6  and  C4_7 
REMARK    4  A    between atoms: C4_7  and  C5_8 
ROOT
HETATM    1  C5  UNL     1      89.297  12.706  31.977  1.00  0.00     0.151 A 
HETATM    2  N1  UNL     1      90.212  13.661  32.085  1.00  0.00    -0.279 N 
ATOM      3  H1  UNL     1      90.747  13.846  32.933  1.00  0.00     0.189 HD
HETATM    4  N2  UNL     1      90.347  14.341  30.965  1.00  0.00    -0.263 N 
ATOM      5  H2  UNL     1      90.981  15.122  30.790  1.00  0.00     0.190 HD
HETATM    6  C6  UNL     1      89.478  13.793  30.100  1.00  0.00     0.238 A 
HETATM    7  N3  UNL     1      89.274  14.154  28.859  1.00  0.00    -0.364 N 
ATOM      8  H31 UNL     1      88.613  13.738  28.202  1.00  0.00     0.159 HD
ATOM      9  H32 UNL     1      89.754  14.912  28.374  1.00  0.00     0.159 HD
HETATM   10  O1  UNL     1      88.862  12.820  30.725  1.00  0.00    -0.263 OA
ENDROOT
BRANCH   1  11
HETATM   11  C4  UNL     1      88.754  11.671  32.901  1.00  0.00     0.166 C 
BRANCH  11  12
HETATM   12  S2  UNL     1      89.602  11.487  34.413  1.00  0.00    -0.109 SA
BRANCH  12  13
HETATM   13  C3  UNL     1      90.281   9.952  34.823  1.00  0.00     0.088 C 
HETATM   14  S1  UNL     1      89.885   9.432  36.396  1.00  0.00    -0.071 SA
BRANCH  13  15
HETATM   15  C2  UNL     1      91.131   9.067  34.089  1.00  0.00     0.052 C 
HETATM   16  C1  UNL     1      91.798   9.285  32.987  1.00  0.00     0.039 C 
HETATM   17 CL1  UNL     1      91.311   7.408  34.771  1.00  0.00    -0.083 Cl
ENDBRANCH  13  15
ENDBRANCH  12  13
ENDBRANCH  11  12
ENDBRANCH   1  11
TORSDOF 4
ENDMDL
