MODEL 1
REMARK VINA RESULT: -5.347815073      0.000      0.000
REMARK  3 active torsions:
REMARK  status: ('A' for Active; 'I' for Inactive)
REMARK       I    between atoms: C1_2  and  N2_4 
REMARK    1  A    between atoms: N2_4  and  N3_6 
REMARK    2  A    between atoms: C2_8  and  C3_9 
REMARK    3  A    between atoms: C5_12  and  S2_13 
ROOT
HETATM    1  N3  UNL     1      89.468   9.342  33.956  1.00  0.00    -0.307 N 
ATOM      2  H3  UNL     1      89.567   8.483  33.413  1.00  0.00     0.186 HD
HETATM    3  C2  UNL     1      89.978   9.363  35.126  1.00  0.00     0.126 C 
ENDROOT
BRANCH   3   4
HETATM    4  C3  UNL     1      90.682   8.188  35.664  1.00  0.00     0.025 A 
HETATM    5  C4  UNL     1      90.863   6.986  35.014  1.00  0.00     0.067 A 
HETATM    6  S1  UNL     1      91.733   5.880  35.982  1.00  0.00    -0.112 SA
HETATM    7  C5  UNL     1      92.114   6.612  37.467  1.00  0.00     0.195 A 
HETATM    8  S3  UNL     1      91.400   8.135  37.212  1.00  0.00    -0.100 SA
BRANCH   7   9
HETATM    9  S2  UNL     1      92.907   6.069  38.755  1.00  0.00    -0.032 SA
HETATM   10 CL1  UNL     1      91.804   6.522  40.464  1.00  0.00    -0.042 Cl
ENDBRANCH   7   9
ENDBRANCH   3   4
BRANCH   1  11
HETATM   11  N2  UNL     1      88.791  10.396  33.369  1.00  0.00    -0.254 N 
HETATM   12  C1  UNL     1      89.501  11.249  32.482  1.00  0.00     0.347 C 
HETATM   13  N1  UNL     1      88.826  12.340  31.866  1.00  0.00    -0.038 NA
HETATM   14  O1  UNL     1      90.709  11.099  32.201  1.00  0.00    -0.249 OA
ATOM     15  H2  UNL     1      87.803  10.557  33.570  1.00  0.00     0.191 HD
ENDBRANCH   1  11
TORSDOF 3
ENDMDL
MODEL 2
REMARK VINA RESULT: -5.320867333      4.965      6.499
REMARK  3 active torsions:
REMARK  status: ('A' for Active; 'I' for Inactive)
REMARK       I    between atoms: C1_2  and  N2_4 
REMARK    1  A    between atoms: N2_4  and  N3_6 
REMARK    2  A    between atoms: C2_8  and  C3_9 
REMARK    3  A    between atoms: C5_12  and  S2_13 
ROOT
HETATM    1  N3  UNL     1      90.639   7.487  37.224  1.00  0.00    -0.307 N 
ATOM      2  H3  UNL     1      89.821   8.090  37.322  1.00  0.00     0.186 HD
HETATM    3  C2  UNL     1      91.338   7.607  36.162  1.00  0.00     0.126 C 
ENDROOT
BRANCH   3   4
HETATM    4  C3  UNL     1      90.970   8.583  35.123  1.00  0.00     0.025 A 
HETATM    5  C4  UNL     1      91.261   8.481  33.779  1.00  0.00     0.067 A 
HETATM    6  S1  UNL     1      90.658   9.822  32.910  1.00  0.00    -0.112 SA
HETATM    7  C5  UNL     1      89.874  10.881  33.982  1.00  0.00     0.195 A 
HETATM    8  S3  UNL     1      90.105  10.021  35.431  1.00  0.00    -0.100 SA
BRANCH   7   9
HETATM    9  S2  UNL     1      89.126  12.283  33.745  1.00  0.00    -0.032 SA
HETATM   10 CL1  UNL     1      88.042  12.765  35.458  1.00  0.00    -0.042 Cl
ENDBRANCH   7   9
ENDBRANCH   3   4
BRANCH   1  11
HETATM   11  N2  UNL     1      90.908   6.600  38.251  1.00  0.00    -0.254 N 
HETATM   12  C1  UNL     1      91.572   7.086  39.410  1.00  0.00     0.347 C 
HETATM   13  N1  UNL     1      91.860   6.193  40.480  1.00  0.00    -0.038 NA
HETATM   14  O1  UNL     1      91.928   8.275  39.553  1.00  0.00    -0.249 OA
ATOM     15  H2  UNL     1      90.637   5.619  38.178  1.00  0.00     0.191 HD
ENDBRANCH   1  11
TORSDOF 3
ENDMDL
MODEL 3
REMARK VINA RESULT: -5.292625639      5.727      7.212
REMARK  3 active torsions:
REMARK  status: ('A' for Active; 'I' for Inactive)
REMARK       I    between atoms: C1_2  and  N2_4 
REMARK    1  A    between atoms: N2_4  and  N3_6 
REMARK    2  A    between atoms: C2_8  and  C3_9 
REMARK    3  A    between atoms: C5_12  and  S2_13 
ROOT
HETATM    1  N3  UNL     1      91.440   8.248  39.201  1.00  0.00    -0.307 N 
ATOM      2  H3  UNL     1      90.703   8.836  39.591  1.00  0.00     0.186 HD
HETATM    3  C2  UNL     1      91.679   8.352  37.950  1.00  0.00     0.126 C 
ENDROOT
BRANCH   3   4
HETATM    4  C3  UNL     1      90.914   9.288  37.111  1.00  0.00     0.025 A 
HETATM    5  C4  UNL     1      90.856   9.276  35.733  1.00  0.00     0.067 A 
HETATM    6  S1  UNL     1      89.858  10.530  35.143  1.00  0.00    -0.112 SA
HETATM    7  C5  UNL     1      89.235  11.416  36.451  1.00  0.00     0.195 A 
HETATM    8  S3  UNL     1      89.960  10.559  37.730  1.00  0.00    -0.100 SA
BRANCH   7   9
HETATM    9  S2  UNL     1      88.255  12.688  36.513  1.00  0.00    -0.032 SA
HETATM   10 CL1  UNL     1      89.093  14.238  35.402  1.00  0.00    -0.042 Cl
ENDBRANCH   7   9
ENDBRANCH   3   4
BRANCH   1  11
HETATM   11  N2  UNL     1      92.107   7.398  40.065  1.00  0.00    -0.254 N 
HETATM   12  C1  UNL     1      91.547   6.116  40.321  1.00  0.00     0.347 C 
HETATM   13  N1  UNL     1      92.214   5.223  41.206  1.00  0.00    -0.038 NA
HETATM   14  O1  UNL     1      90.482   5.714  39.807  1.00  0.00    -0.249 OA
ATOM     15  H2  UNL     1      92.980   7.684  40.508  1.00  0.00     0.191 HD
ENDBRANCH   1  11
TORSDOF 3
ENDMDL
MODEL 4
REMARK VINA RESULT: -5.260578619      4.915      6.506
REMARK  3 active torsions:
REMARK  status: ('A' for Active; 'I' for Inactive)
REMARK       I    between atoms: C1_2  and  N2_4 
REMARK    1  A    between atoms: N2_4  and  N3_6 
REMARK    2  A    between atoms: C2_8  and  C3_9 
REMARK    3  A    between atoms: C5_12  and  S2_13 
ROOT
HETATM    1  N3  UNL     1      92.309   7.602  35.879  1.00  0.00    -0.307 N 
ATOM      2  H3  UNL     1      92.805   8.476  36.056  1.00  0.00     0.186 HD
HETATM    3  C2  UNL     1      91.330   7.634  35.059  1.00  0.00     0.126 C 
ENDROOT
BRANCH   3   4
HETATM    4  C3  UNL     1      90.939   8.889  34.399  1.00  0.00     0.025 A 
HETATM    5  C4  UNL     1      91.040   9.159  33.050  1.00  0.00     0.067 A 
HETATM    6  S1  UNL     1      90.479  10.731  32.688  1.00  0.00    -0.112 SA
HETATM    7  C5  UNL     1      89.962  11.488  34.118  1.00  0.00     0.195 A 
HETATM    8  S3  UNL     1      90.284  10.234  35.222  1.00  0.00    -0.100 SA
BRANCH   7   9
HETATM    9  S2  UNL     1      89.347  12.946  34.396  1.00  0.00    -0.032 SA
HETATM   10 CL1  UNL     1      87.848  12.783  35.833  1.00  0.00    -0.042 Cl
ENDBRANCH   7   9
ENDBRANCH   3   4
BRANCH   1  11
HETATM   11  N2  UNL     1      92.747   6.471  36.544  1.00  0.00    -0.254 N 
HETATM   12  C1  UNL     1      93.328   6.623  37.831  1.00  0.00     0.347 C 
HETATM   13  N1  UNL     1      93.786   5.474  38.536  1.00  0.00    -0.038 NA
HETATM   14  O1  UNL     1      93.468   7.728  38.398  1.00  0.00    -0.249 OA
ATOM     15  H2  UNL     1      92.654   5.548  36.119  1.00  0.00     0.191 HD
ENDBRANCH   1  11
TORSDOF 3
ENDMDL
MODEL 5
REMARK VINA RESULT: -5.215566889      5.293      6.757
REMARK  3 active torsions:
REMARK  status: ('A' for Active; 'I' for Inactive)
REMARK       I    between atoms: C1_2  and  N2_4 
REMARK    1  A    between atoms: N2_4  and  N3_6 
REMARK    2  A    between atoms: C2_8  and  C3_9 
REMARK    3  A    between atoms: C5_12  and  S2_13 
ROOT
HETATM    1  N3  UNL     1      90.683   7.403  37.227  1.00  0.00    -0.307 N 
ATOM      2  H3  UNL     1      89.879   8.021  37.337  1.00  0.00     0.186 HD
HETATM    3  C2  UNL     1      91.376   7.518  36.160  1.00  0.00     0.126 C 
ENDROOT
BRANCH   3   4
HETATM    4  C3  UNL     1      91.019   8.509  35.132  1.00  0.00     0.025 A 
HETATM    5  C4  UNL     1      91.344   8.439  33.794  1.00  0.00     0.067 A 
HETATM    6  S1  UNL     1      90.743   9.788  32.937  1.00  0.00    -0.112 SA
HETATM    7  C5  UNL     1      89.918  10.814  34.010  1.00  0.00     0.195 A 
HETATM    8  S3  UNL     1      90.126   9.929  35.448  1.00  0.00    -0.100 SA
BRANCH   7   9
HETATM    9  S2  UNL     1      89.156  12.211  33.784  1.00  0.00    -0.032 SA
HETATM   10 CL1  UNL     1      88.962  12.547  31.737  1.00  0.00    -0.042 Cl
ENDBRANCH   7   9
ENDBRANCH   3   4
BRANCH   1  11
HETATM   11  N2  UNL     1      90.944   6.502  38.245  1.00  0.00    -0.254 N 
HETATM   12  C1  UNL     1      91.566   6.979  39.430  1.00  0.00     0.347 C 
HETATM   13  N1  UNL     1      91.844   6.072  40.491  1.00  0.00    -0.038 NA
HETATM   14  O1  UNL     1      91.894   8.172  39.604  1.00  0.00    -0.249 OA
ATOM     15  H2  UNL     1      90.694   5.518  38.146  1.00  0.00     0.191 HD
ENDBRANCH   1  11
TORSDOF 3
ENDMDL
