MODEL 1
REMARK VINA RESULT: -6.776528492      0.000      0.000
REMARK  2 active torsions:
REMARK  status: ('A' for Active; 'I' for Inactive)
REMARK    1  A    between atoms: C7_8  and  S1_9 
REMARK    2  A    between atoms: S1_9  and  C8_10 
ROOT
HETATM    1  C8  UNL     1      90.418   8.792  33.973  1.00  0.00     0.130 A 
HETATM    2  N1  UNL     1      91.689   8.468  34.235  1.00  0.00    -0.286 N 
ATOM      3  H1  UNL     1      92.443   9.090  33.945  1.00  0.00     0.188 HD
HETATM    4  N2  UNL     1      91.956   7.398  34.836  1.00  0.00    -0.279 N 
ATOM      5  H2  UNL     1      92.926   7.153  35.035  1.00  0.00     0.189 HD
HETATM    6  C9  UNL     1      90.967   6.580  35.215  1.00  0.00     0.159 A 
HETATM    7  N3  UNL     1      91.035   5.436  35.843  1.00  0.00    -0.379 N 
ATOM      8  H31 UNL     1      90.281   4.813  36.132  1.00  0.00     0.158 HD
ATOM      9  H32 UNL     1      91.845   4.916  36.180  1.00  0.00     0.158 HD
HETATM   10  S2  UNL     1      89.609   7.451  34.651  1.00  0.00    -0.027 SA
ENDROOT
BRANCH   1  11
HETATM   11  S1  UNL     1      89.986  10.293  33.189  1.00  0.00    -0.098 SA
BRANCH  11  12
HETATM   12  C7  UNL     1      90.170  11.797  34.026  1.00  0.00     0.065 C 
HETATM   13  C2  UNL     1      90.743  12.878  33.174  1.00  0.00    -0.004 C 
HETATM   14  C1  UNL     1      89.976  13.115  31.936  1.00  0.00     0.019 C 
HETATM   15  C3  UNL     1      92.195  12.500  32.897  1.00  0.00     0.019 C 
HETATM   16  C4  UNL     1      90.659  14.068  34.108  1.00  0.00     0.179 C 
HETATM   17  F1  UNL     1      90.716  15.249  33.390  1.00  0.00    -0.249 F 
HETATM   18  C5  UNL     1      89.299  13.891  34.730  1.00  0.00     0.039 C 
HETATM   19  C6  UNL     1      88.883  12.458  34.491  1.00  0.00     0.019 C 
ENDBRANCH  11  12
ENDBRANCH   1  11
TORSDOF 2
ENDMDL
MODEL 2
REMARK VINA RESULT: -6.691828228      1.547      2.112
REMARK  2 active torsions:
REMARK  status: ('A' for Active; 'I' for Inactive)
REMARK    1  A    between atoms: C7_8  and  S1_9 
REMARK    2  A    between atoms: S1_9  and  C8_10 
ROOT
HETATM    1  C8  UNL     1      90.130   9.010  34.271  1.00  0.00     0.130 A 
HETATM    2  N1  UNL     1      89.221   9.076  35.250  1.00  0.00    -0.286 N 
ATOM      3  H1  UNL     1      88.440   9.727  35.176  1.00  0.00     0.188 HD
HETATM    4  N2  UNL     1      89.327   8.338  36.261  1.00  0.00    -0.279 N 
ATOM      5  H2  UNL     1      88.632   8.390  37.006  1.00  0.00     0.189 HD
HETATM    6  C9  UNL     1      90.353   7.485  36.359  1.00  0.00     0.159 A 
HETATM    7  N3  UNL     1      90.639   6.643  37.318  1.00  0.00    -0.379 N 
ATOM      8  H31 UNL     1      91.421   5.993  37.393  1.00  0.00     0.158 HD
ATOM      9  H32 UNL     1      90.153   6.451  38.194  1.00  0.00     0.158 HD
HETATM   10  S2  UNL     1      91.168   7.806  34.893  1.00  0.00    -0.027 SA
ENDROOT
BRANCH   1  11
HETATM   11  S1  UNL     1      90.001   9.972  32.818  1.00  0.00    -0.098 SA
BRANCH  11  12
HETATM   12  C7  UNL     1      90.745  11.533  32.740  1.00  0.00     0.065 C 
HETATM   13  C2  UNL     1      89.777  12.655  32.909  1.00  0.00    -0.004 C 
HETATM   14  C1  UNL     1      88.992  12.566  34.155  1.00  0.00     0.019 C 
HETATM   15  C3  UNL     1      88.896  12.671  31.663  1.00  0.00     0.019 C 
HETATM   16  C4  UNL     1      90.709  13.850  32.932  1.00  0.00     0.179 C 
HETATM   17  F1  UNL     1      90.085  14.935  33.519  1.00  0.00    -0.249 F 
HETATM   18  C5  UNL     1      91.840  13.357  33.795  1.00  0.00     0.039 C 
HETATM   19  C6  UNL     1      91.739  11.850  33.845  1.00  0.00     0.019 C 
ENDBRANCH  11  12
ENDBRANCH   1  11
TORSDOF 2
ENDMDL
MODEL 3
REMARK VINA RESULT: -6.576643054      1.222      2.019
REMARK  2 active torsions:
REMARK  status: ('A' for Active; 'I' for Inactive)
REMARK    1  A    between atoms: C7_8  and  S1_9 
REMARK    2  A    between atoms: S1_9  and  C8_10 
ROOT
HETATM    1  C8  UNL     1      90.597   8.823  34.257  1.00  0.00     0.130 A 
HETATM    2  N1  UNL     1      91.687   8.047  34.255  1.00  0.00    -0.286 N 
ATOM      3  H1  UNL     1      92.234   7.942  33.401  1.00  0.00     0.188 HD
HETATM    4  N2  UNL     1      92.037   7.447  35.301  1.00  0.00    -0.279 N 
ATOM      5  H2  UNL     1      92.868   6.857  35.297  1.00  0.00     0.189 HD
HETATM    6  C9  UNL     1      91.317   7.583  36.421  1.00  0.00     0.159 A 
HETATM    7  N3  UNL     1      91.512   7.050  37.599  1.00  0.00    -0.379 N 
ATOM      8  H31 UNL     1      90.964   7.154  38.452  1.00  0.00     0.158 HD
ATOM      9  H32 UNL     1      92.244   6.418  37.923  1.00  0.00     0.158 HD
HETATM   10  S2  UNL     1      90.091   8.641  35.877  1.00  0.00    -0.027 SA
ENDROOT
BRANCH   1  11
HETATM   11  S1  UNL     1      90.095   9.724  32.846  1.00  0.00    -0.098 SA
BRANCH  11  12
HETATM   12  C7  UNL     1      90.701  11.322  32.574  1.00  0.00     0.065 C 
HETATM   13  C2  UNL     1      89.763  12.391  33.021  1.00  0.00    -0.004 C 
HETATM   14  C1  UNL     1      89.370  12.268  34.438  1.00  0.00     0.019 C 
HETATM   15  C3  UNL     1      88.563  12.351  32.078  1.00  0.00     0.019 C 
HETATM   16  C4  UNL     1      90.597  13.635  32.788  1.00  0.00     0.179 C 
HETATM   17  F1  UNL     1      90.108  14.689  33.539  1.00  0.00    -0.249 F 
HETATM   18  C5  UNL     1      91.952  13.210  33.290  1.00  0.00     0.039 C 
HETATM   19  C6  UNL     1      91.950  11.699  33.353  1.00  0.00     0.019 C 
ENDBRANCH  11  12
ENDBRANCH   1  11
TORSDOF 2
ENDMDL
MODEL 4
REMARK VINA RESULT: -6.488845825      0.825      1.403
REMARK  2 active torsions:
REMARK  status: ('A' for Active; 'I' for Inactive)
REMARK    1  A    between atoms: C7_8  and  S1_9 
REMARK    2  A    between atoms: S1_9  and  C8_10 
ROOT
HETATM    1  C8  UNL     1      90.623   8.713  33.893  1.00  0.00     0.130 A 
HETATM    2  N1  UNL     1      91.847   8.254  34.174  1.00  0.00    -0.286 N 
ATOM      3  H1  UNL     1      92.665   8.702  33.761  1.00  0.00     0.188 HD
HETATM    4  N2  UNL     1      91.992   7.272  34.943  1.00  0.00    -0.279 N 
ATOM      5  H2  UNL     1      92.927   6.924  35.156  1.00  0.00     0.189 HD
HETATM    6  C9  UNL     1      90.919   6.683  35.482  1.00  0.00     0.159 A 
HETATM    7  N3  UNL     1      90.858   5.661  36.295  1.00  0.00    -0.379 N 
ATOM      8  H31 UNL     1      90.040   5.212  36.707  1.00  0.00     0.158 HD
ATOM      9  H32 UNL     1      91.604   5.091  36.695  1.00  0.00     0.158 HD
HETATM   10  S2  UNL     1      89.669   7.636  34.812  1.00  0.00    -0.027 SA
ENDROOT
BRANCH   1  11
HETATM   11  S1  UNL     1      90.365  10.110  32.874  1.00  0.00    -0.098 SA
BRANCH  11  12
HETATM   12  C7  UNL     1      90.910  11.672  33.384  1.00  0.00     0.065 C 
HETATM   13  C2  UNL     1      89.871  12.732  33.248  1.00  0.00    -0.004 C 
HETATM   14  C1  UNL     1      88.616  12.413  33.956  1.00  0.00     0.019 C 
HETATM   15  C3  UNL     1      89.657  12.952  31.753  1.00  0.00     0.019 C 
HETATM   16  C4  UNL     1      90.571  13.918  33.879  1.00  0.00     0.179 C 
HETATM   17  F1  UNL     1      89.648  14.873  34.262  1.00  0.00    -0.249 F 
HETATM   18  C5  UNL     1      91.225  13.298  35.086  1.00  0.00     0.039 C 
HETATM   19  C6  UNL     1      91.256  11.804  34.858  1.00  0.00     0.019 C 
ENDBRANCH  11  12
ENDBRANCH   1  11
TORSDOF 2
ENDMDL
MODEL 5
REMARK VINA RESULT: -6.395650356      2.706      2.756
REMARK  2 active torsions:
REMARK  status: ('A' for Active; 'I' for Inactive)
REMARK    1  A    between atoms: C7_8  and  S1_9 
REMARK    2  A    between atoms: S1_9  and  C8_10 
ROOT
HETATM    1  C8  UNL     1      90.865   9.020  36.793  1.00  0.00     0.130 A 
HETATM    2  N1  UNL     1      90.506   9.412  38.020  1.00  0.00    -0.286 N 
ATOM      3  H1  UNL     1      89.834  10.170  38.135  1.00  0.00     0.188 HD
HETATM    4  N2  UNL     1      90.996   8.850  39.030  1.00  0.00    -0.279 N 
ATOM      5  H2  UNL     1      90.720   9.150  39.965  1.00  0.00     0.189 HD
HETATM    6  C9  UNL     1      91.880   7.857  38.879  1.00  0.00     0.159 A 
HETATM    7  N3  UNL     1      92.497   7.153  39.792  1.00  0.00    -0.379 N 
ATOM      8  H31 UNL     1      93.170   6.395  39.676  1.00  0.00     0.158 HD
ATOM      9  H32 UNL     1      92.445   7.202  40.809  1.00  0.00     0.158 HD
HETATM   10  S2  UNL     1      91.967   7.774  37.175  1.00  0.00    -0.027 SA
ENDROOT
BRANCH   1  11
HETATM   11  S1  UNL     1      90.175   9.729  35.352  1.00  0.00    -0.098 SA
BRANCH  11  12
HETATM   12  C7  UNL     1      90.294  11.434  35.078  1.00  0.00     0.065 C 
HETATM   13  C2  UNL     1      90.356  11.795  33.633  1.00  0.00    -0.004 C 
HETATM   14  C1  UNL     1      89.222  11.267  32.850  1.00  0.00     0.019 C 
HETATM   15  C3  UNL     1      91.704  11.304  33.112  1.00  0.00     0.019 C 
HETATM   16  C4  UNL     1      90.318  13.308  33.703  1.00  0.00     0.179 C 
HETATM   17  F1  UNL     1      89.918  13.836  32.489  1.00  0.00    -0.249 F 
HETATM   18  C5  UNL     1      89.271  13.554  34.758  1.00  0.00     0.039 C 
HETATM   19  C6  UNL     1      89.100  12.262  35.525  1.00  0.00     0.019 C 
ENDBRANCH  11  12
ENDBRANCH   1  11
TORSDOF 2
ENDMDL
