MODEL 1
REMARK VINA RESULT: -6.627318774      0.000      0.000
REMARK  7 active torsions:
REMARK  status: ('A' for Active; 'I' for Inactive)
REMARK       I    between atoms: C1_2  and  N1_3 
REMARK    1  A    between atoms: C1_2  and  C10_18 
REMARK    2  A    between atoms: N1_3  and  C2_5 
REMARK    3  A    between atoms: C2_5  and  C3_6 
REMARK    4  A    between atoms: C3_6  and  C4_7 
REMARK    5  A    between atoms: C4_7  and  C5_8 
REMARK    6  A    between atoms: C5_8  and  C6_9 
REMARK    7  A    between atoms: C6_9  and  N2_10 
ROOT
HETATM    1  O1  UNL     1      78.058  37.565  59.846  1.00  0.00    -0.271 OA
HETATM    2  C1  UNL     1      77.087  36.762  59.753  1.00  0.00     0.248 C 
HETATM    3  N1  UNL     1      75.855  37.114  60.284  1.00  0.00    -0.359 N 
ATOM      4  H1  UNL     1      75.133  36.418  60.102  1.00  0.00     0.162 HD
ENDROOT
BRANCH   3   5
HETATM    5  C2  UNL     1      75.373  38.221  61.022  1.00  0.00     0.122 C 
BRANCH   5   6
HETATM    6  C3  UNL     1      74.991  37.950  62.466  1.00  0.00     0.020 C 
BRANCH   6   7
HETATM    7  C4  UNL     1      74.958  36.488  62.657  1.00  0.00     0.003 C 
BRANCH   7   8
HETATM    8  C5  UNL     1      75.367  35.871  63.943  1.00  0.00     0.022 C 
BRANCH   8   9
HETATM    9  C6  UNL     1      76.105  34.570  63.576  1.00  0.00     0.147 C 
BRANCH   9  10
HETATM   10  N2  UNL     1      75.556  33.458  64.217  1.00  0.00    -0.275 N 
HETATM   11  C7  UNL     1      75.524  32.188  63.646  1.00  0.00     0.193 C 
HETATM   12  N3  UNL     1      76.782  31.608  63.308  1.00  0.00    -0.384 N 
HETATM   13  C8  UNL     1      77.789  31.621  64.321  1.00  0.00     0.138 C 
ATOM     14  H3  UNL     1      76.954  31.204  62.387  1.00  0.00     0.160 HD
HETATM   15  C9  UNL     1      77.259  31.832  65.725  1.00  0.00     0.151 C 
HETATM   16  N4  UNL     1      76.980  33.223  65.979  1.00  0.00    -0.124 NA
HETATM   17  N5  UNL     1      75.656  33.494  65.614  1.00  0.00    -0.028 NA
ENDBRANCH   9  10
ENDBRANCH   8   9
ENDBRANCH   7   8
ENDBRANCH   6   7
ENDBRANCH   5   6
ENDBRANCH   3   5
BRANCH   2  18
HETATM   18  C10 UNL     1      77.192  35.430  59.089  1.00  0.00     0.277 C 
HETATM   19  C11 UNL     1      76.394  35.485  57.765  1.00  0.00     0.044 C 
HETATM   20  C12 UNL     1      75.797  34.121  57.436  1.00  0.00     0.030 C 
HETATM   21  C13 UNL     1      76.850  33.039  57.495  1.00  0.00     0.232 C 
HETATM   22  N6  UNL     1      76.486  32.161  58.596  1.00  0.00    -0.074 N 
HETATM   23  C14 UNL     1      77.396  32.192  59.697  1.00  0.00     0.259 C 
ATOM     24  H62 UNL     1      75.537  32.359  58.911  1.00  0.00     0.277 HD
ATOM     25  H61 UNL     1      76.363  31.205  58.263  1.00  0.00     0.277 HD
HETATM   26  C15 UNL     1      77.433  33.507  60.441  1.00  0.00     0.260 C 
HETATM   27  N7  UNL     1      76.443  34.405  59.843  1.00  0.00    -0.061 N 
ATOM     28  H72 UNL     1      75.797  34.802  60.526  1.00  0.00     0.278 HD
ATOM     29  H71 UNL     1      75.749  33.918  59.277  1.00  0.00     0.278 HD
ENDBRANCH   2  18
TORSDOF 7
ENDMDL
MODEL 2
REMARK VINA RESULT: -6.427887836      2.754      6.240
REMARK  7 active torsions:
REMARK  status: ('A' for Active; 'I' for Inactive)
REMARK       I    between atoms: C1_2  and  N1_3 
REMARK    1  A    between atoms: C1_2  and  C10_18 
REMARK    2  A    between atoms: N1_3  and  C2_5 
REMARK    3  A    between atoms: C2_5  and  C3_6 
REMARK    4  A    between atoms: C3_6  and  C4_7 
REMARK    5  A    between atoms: C4_7  and  C5_8 
REMARK    6  A    between atoms: C5_8  and  C6_9 
REMARK    7  A    between atoms: C6_9  and  N2_10 
ROOT
HETATM    1  O1  UNL     1      75.253  33.657  64.895  1.00  0.00    -0.271 OA
HETATM    2  C1  UNL     1      75.870  33.954  63.833  1.00  0.00     0.248 C 
HETATM    3  N1  UNL     1      75.868  35.267  63.385  1.00  0.00    -0.359 N 
ATOM      4  H1  UNL     1      76.442  35.401  62.553  1.00  0.00     0.162 HD
ENDROOT
BRANCH   3   5
HETATM    5  C2  UNL     1      75.249  36.462  63.820  1.00  0.00     0.122 C 
BRANCH   5   6
HETATM    6  C3  UNL     1      75.091  37.554  62.779  1.00  0.00     0.020 C 
BRANCH   6   7
HETATM    7  C4  UNL     1      75.896  37.176  61.602  1.00  0.00     0.003 C 
BRANCH   7   8
HETATM    8  C5  UNL     1      75.993  38.064  60.418  1.00  0.00     0.022 C 
BRANCH   8   9
HETATM    9  C6  UNL     1      77.079  37.453  59.513  1.00  0.00     0.147 C 
BRANCH   9  10
HETATM   10  N2  UNL     1      77.899  38.429  58.946  1.00  0.00    -0.275 N 
HETATM   11  C7  UNL     1      79.265  38.249  58.734  1.00  0.00     0.193 C 
HETATM   12  N3  UNL     1      79.640  37.169  57.882  1.00  0.00    -0.384 N 
HETATM   13  C8  UNL     1      78.973  37.083  56.621  1.00  0.00     0.138 C 
ATOM     14  H3  UNL     1      80.351  36.491  58.159  1.00  0.00     0.160 HD
HETATM   15  C9  UNL     1      78.304  38.369  56.180  1.00  0.00     0.151 C 
HETATM   16  N4  UNL     1      77.037  38.557  56.842  1.00  0.00    -0.124 NA
HETATM   17  N5  UNL     1      77.248  39.266  58.031  1.00  0.00    -0.028 NA
ENDBRANCH   9  10
ENDBRANCH   8   9
ENDBRANCH   7   8
ENDBRANCH   6   7
ENDBRANCH   5   6
ENDBRANCH   3   5
BRANCH   2  18
HETATM   18  C10 UNL     1      76.617  32.952  63.017  1.00  0.00     0.277 C 
HETATM   19  C11 UNL     1      77.486  33.716  61.990  1.00  0.00     0.044 C 
HETATM   20  C12 UNL     1      77.642  32.908  60.707  1.00  0.00     0.030 C 
HETATM   21  C13 UNL     1      78.105  31.501  61.004  1.00  0.00     0.232 C 
HETATM   22  N6  UNL     1      77.022  30.612  60.611  1.00  0.00    -0.074 N 
HETATM   23  C14 UNL     1      76.395  29.934  61.701  1.00  0.00     0.259 C 
ATOM     24  H62 UNL     1      76.330  31.118  60.059  1.00  0.00     0.277 HD
ATOM     25  H61 UNL     1      77.346  29.943  59.913  1.00  0.00     0.277 HD
HETATM   26  C15 UNL     1      75.635  30.836  62.645  1.00  0.00     0.260 C 
HETATM   27  N7  UNL     1      75.702  32.205  62.133  1.00  0.00    -0.061 N 
ATOM     28  H72 UNL     1      74.785  32.644  62.041  1.00  0.00     0.278 HD
ATOM     29  H71 UNL     1      75.966  32.253  61.149  1.00  0.00     0.278 HD
ENDBRANCH   2  18
TORSDOF 7
ENDMDL
MODEL 3
REMARK VINA RESULT: -6.378201857      2.277      4.799
REMARK  7 active torsions:
REMARK  status: ('A' for Active; 'I' for Inactive)
REMARK       I    between atoms: C1_2  and  N1_3 
REMARK    1  A    between atoms: C1_2  and  C10_18 
REMARK    2  A    between atoms: N1_3  and  C2_5 
REMARK    3  A    between atoms: C2_5  and  C3_6 
REMARK    4  A    between atoms: C3_6  and  C4_7 
REMARK    5  A    between atoms: C4_7  and  C5_8 
REMARK    6  A    between atoms: C5_8  and  C6_9 
REMARK    7  A    between atoms: C6_9  and  N2_10 
ROOT
HETATM    1  O1  UNL     1      78.727  34.192  61.504  1.00  0.00    -0.271 OA
HETATM    2  C1  UNL     1      77.485  34.346  61.673  1.00  0.00     0.248 C 
HETATM    3  N1  UNL     1      76.623  33.286  61.427  1.00  0.00    -0.359 N 
ATOM      4  H1  UNL     1      75.653  33.506  61.650  1.00  0.00     0.162 HD
ENDROOT
BRANCH   3   5
HETATM    5  C2  UNL     1      76.787  31.971  60.935  1.00  0.00     0.122 C 
BRANCH   5   6
HETATM    6  C3  UNL     1      76.409  30.848  61.883  1.00  0.00     0.020 C 
BRANCH   6   7
HETATM    7  C4  UNL     1      75.571  31.423  62.952  1.00  0.00     0.003 C 
BRANCH   7   8
HETATM    8  C5  UNL     1      75.834  31.122  64.381  1.00  0.00     0.022 C 
BRANCH   8   9
HETATM    9  C6  UNL     1      76.933  32.105  64.829  1.00  0.00     0.147 C 
BRANCH   9  10
HETATM   10  N2  UNL     1      78.155  31.464  65.036  1.00  0.00    -0.275 N 
HETATM   11  C7  UNL     1      79.273  31.676  64.232  1.00  0.00     0.193 C 
HETATM   12  N3  UNL     1      79.769  33.011  64.168  1.00  0.00    -0.384 N 
HETATM   13  C8  UNL     1      79.976  33.680  65.413  1.00  0.00     0.138 C 
ATOM     14  H3  UNL     1      79.966  33.466  63.276  1.00  0.00     0.160 HD
HETATM   15  C9  UNL     1      80.071  32.756  66.610  1.00  0.00     0.151 C 
HETATM   16  N4  UNL     1      78.767  32.331  67.052  1.00  0.00    -0.124 NA
HETATM   17  N5  UNL     1      78.421  31.154  66.376  1.00  0.00    -0.028 NA
ENDBRANCH   9  10
ENDBRANCH   8   9
ENDBRANCH   7   8
ENDBRANCH   6   7
ENDBRANCH   5   6
ENDBRANCH   3   5
BRANCH   2  18
HETATM   18  C10 UNL     1      76.877  35.630  62.134  1.00  0.00     0.277 C 
HETATM   19  C11 UNL     1      76.153  35.368  63.476  1.00  0.00     0.044 C 
HETATM   20  C12 UNL     1      74.939  36.278  63.622  1.00  0.00     0.030 C 
HETATM   21  C13 UNL     1      75.311  37.722  63.375  1.00  0.00     0.232 C 
HETATM   22  N6  UNL     1      74.609  38.136  62.171  1.00  0.00    -0.074 N 
HETATM   23  C14 UNL     1      75.462  38.410  61.059  1.00  0.00     0.259 C 
ATOM     24  H62 UNL     1      73.902  37.446  61.916  1.00  0.00     0.277 HD
ATOM     25  H61 UNL     1      74.008  38.936  62.366  1.00  0.00     0.277 HD
HETATM   26  C15 UNL     1      76.187  37.203  60.512  1.00  0.00     0.260 C 
HETATM   27  N7  UNL     1      75.753  36.023  61.263  1.00  0.00    -0.061 N 
ATOM     28  H72 UNL     1      75.425  35.265  60.664  1.00  0.00     0.278 HD
ATOM     29  H71 UNL     1      74.882  36.170  61.773  1.00  0.00     0.278 HD
ENDBRANCH   2  18
TORSDOF 7
ENDMDL
MODEL 4
REMARK VINA RESULT: -6.229835145      1.879      4.490
REMARK  7 active torsions:
REMARK  status: ('A' for Active; 'I' for Inactive)
REMARK       I    between atoms: C1_2  and  N1_3 
REMARK    1  A    between atoms: C1_2  and  C10_18 
REMARK    2  A    between atoms: N1_3  and  C2_5 
REMARK    3  A    between atoms: C2_5  and  C3_6 
REMARK    4  A    between atoms: C3_6  and  C4_7 
REMARK    5  A    between atoms: C4_7  and  C5_8 
REMARK    6  A    between atoms: C5_8  and  C6_9 
REMARK    7  A    between atoms: C6_9  and  N2_10 
ROOT
HETATM    1  O1  UNL     1      78.064  34.353  60.057  1.00  0.00    -0.271 OA
HETATM    2  C1  UNL     1      76.933  34.252  60.610  1.00  0.00     0.248 C 
HETATM    3  N1  UNL     1      76.431  32.996  60.919  1.00  0.00    -0.359 N 
ATOM      4  H1  UNL     1      75.540  33.037  61.412  1.00  0.00     0.162 HD
ENDROOT
BRANCH   3   5
HETATM    5  C2  UNL     1      76.876  31.671  60.703  1.00  0.00     0.122 C 
BRANCH   5   6
HETATM    6  C3  UNL     1      76.986  30.791  61.935  1.00  0.00     0.020 C 
BRANCH   6   7
HETATM    7  C4  UNL     1      75.651  30.716  62.556  1.00  0.00     0.003 C 
BRANCH   7   8
HETATM    8  C5  UNL     1      75.304  31.547  63.736  1.00  0.00     0.022 C 
BRANCH   8   9
HETATM    9  C6  UNL     1      76.582  31.631  64.590  1.00  0.00     0.147 C 
BRANCH   9  10
HETATM   10  N2  UNL     1      76.957  32.951  64.844  1.00  0.00    -0.275 N 
HETATM   11  C7  UNL     1      76.929  33.521  66.115  1.00  0.00     0.193 C 
HETATM   12  N3  UNL     1      77.741  32.901  67.110  1.00  0.00    -0.384 N 
HETATM   13  C8  UNL     1      79.102  32.644  66.760  1.00  0.00     0.138 C 
ATOM     14  H3  UNL     1      77.367  32.653  68.026  1.00  0.00     0.160 HD
HETATM   15  C9  UNL     1      79.607  33.451  65.582  1.00  0.00     0.151 C 
HETATM   16  N4  UNL     1      79.175  32.882  64.329  1.00  0.00    -0.124 NA
HETATM   17  N5  UNL     1      77.942  33.445  63.978  1.00  0.00    -0.028 NA
ENDBRANCH   9  10
ENDBRANCH   8   9
ENDBRANCH   7   8
ENDBRANCH   6   7
ENDBRANCH   5   6
ENDBRANCH   3   5
BRANCH   2  18
HETATM   18  C10 UNL     1      76.088  35.432  60.959  1.00  0.00     0.277 C 
HETATM   19  C11 UNL     1      76.377  36.555  59.934  1.00  0.00     0.044 C 
HETATM   20  C12 UNL     1      76.225  37.928  60.579  1.00  0.00     0.030 C 
HETATM   21  C13 UNL     1      74.899  38.049  61.293  1.00  0.00     0.232 C 
HETATM   22  N6  UNL     1      75.196  38.183  62.710  1.00  0.00    -0.074 N 
HETATM   23  C14 UNL     1      74.778  37.073  63.505  1.00  0.00     0.259 C 
ATOM     24  H62 UNL     1      76.190  38.368  62.849  1.00  0.00     0.277 HD
ATOM     25  H61 UNL     1      74.805  39.051  63.075  1.00  0.00     0.277 HD
HETATM   26  C15 UNL     1      75.519  35.787  63.225  1.00  0.00     0.260 C 
HETATM   27  N7  UNL     1      76.546  36.054  62.217  1.00  0.00    -0.061 N 
ATOM     28  H72 UNL     1      77.477  35.747  62.500  1.00  0.00     0.278 HD
ATOM     29  H71 UNL     1      76.762  37.046  62.118  1.00  0.00     0.278 HD
ENDBRANCH   2  18
TORSDOF 7
ENDMDL
MODEL 5
REMARK VINA RESULT: -6.210030943      2.843      6.394
REMARK  7 active torsions:
REMARK  status: ('A' for Active; 'I' for Inactive)
REMARK       I    between atoms: C1_2  and  N1_3 
REMARK    1  A    between atoms: C1_2  and  C10_18 
REMARK    2  A    between atoms: N1_3  and  C2_5 
REMARK    3  A    between atoms: C2_5  and  C3_6 
REMARK    4  A    between atoms: C3_6  and  C4_7 
REMARK    5  A    between atoms: C4_7  and  C5_8 
REMARK    6  A    between atoms: C5_8  and  C6_9 
REMARK    7  A    between atoms: C6_9  and  N2_10 
ROOT
HETATM    1  O1  UNL     1      75.246  33.415  64.839  1.00  0.00    -0.271 OA
HETATM    2  C1  UNL     1      75.654  33.698  63.677  1.00  0.00     0.248 C 
HETATM    3  N1  UNL     1      75.687  35.023  63.267  1.00  0.00    -0.359 N 
ATOM      4  H1  UNL     1      76.086  35.138  62.336  1.00  0.00     0.162 HD
ENDROOT
BRANCH   3   5
HETATM    5  C2  UNL     1      75.292  36.250  63.849  1.00  0.00     0.122 C 
BRANCH   5   6
HETATM    6  C3  UNL     1      75.270  37.455  62.926  1.00  0.00     0.020 C 
BRANCH   6   7
HETATM    7  C4  UNL     1      75.859  37.045  61.637  1.00  0.00     0.003 C 
BRANCH   7   8
HETATM    8  C5  UNL     1      75.953  37.993  60.499  1.00  0.00     0.022 C 
BRANCH   8   9
HETATM    9  C6  UNL     1      77.010  37.408  59.543  1.00  0.00     0.147 C 
BRANCH   9  10
HETATM   10  N2  UNL     1      77.832  38.398  59.002  1.00  0.00    -0.275 N 
HETATM   11  C7  UNL     1      79.204  38.235  58.822  1.00  0.00     0.193 C 
HETATM   12  N3  UNL     1      79.612  37.166  57.971  1.00  0.00    -0.384 N 
HETATM   13  C8  UNL     1      78.975  37.081  56.694  1.00  0.00     0.138 C 
ATOM     14  H3  UNL     1      80.324  36.494  58.260  1.00  0.00     0.160 HD
HETATM   15  C9  UNL     1      78.302  38.361  56.246  1.00  0.00     0.151 C 
HETATM   16  N4  UNL     1      77.017  38.531  56.880  1.00  0.00    -0.124 NA
HETATM   17  N5  UNL     1      77.193  39.234  58.078  1.00  0.00    -0.028 NA
ENDBRANCH   9  10
ENDBRANCH   8   9
ENDBRANCH   7   8
ENDBRANCH   6   7
ENDBRANCH   5   6
ENDBRANCH   3   5
BRANCH   2  18
HETATM   18  C10 UNL     1      76.114  32.667  62.700  1.00  0.00     0.277 C 
HETATM   19  C11 UNL     1      75.209  31.421  62.850  1.00  0.00     0.044 C 
HETATM   20  C12 UNL     1      75.987  30.147  62.541  1.00  0.00     0.030 C 
HETATM   21  C13 UNL     1      76.700  30.255  61.212  1.00  0.00     0.232 C 
HETATM   22  N6  UNL     1      78.126  30.230  61.499  1.00  0.00    -0.074 N 
HETATM   23  C14 UNL     1      78.802  31.456  61.218  1.00  0.00     0.259 C 
ATOM     24  H62 UNL     1      78.290  29.945  62.464  1.00  0.00     0.277 HD
ATOM     25  H61 UNL     1      78.574  29.455  61.010  1.00  0.00     0.277 HD
HETATM   26  C15 UNL     1      78.400  32.611  62.105  1.00  0.00     0.260 C 
HETATM   27  N7  UNL     1      77.431  32.125  63.088  1.00  0.00    -0.061 N 
ATOM     28  H72 UNL     1      77.689  32.347  64.050  1.00  0.00     0.278 HD
ATOM     29  H71 UNL     1      77.433  31.109  63.186  1.00  0.00     0.278 HD
ENDBRANCH   2  18
TORSDOF 7
ENDMDL
