MODEL 1
REMARK VINA RESULT: -5.397980483      0.000      0.000
REMARK  13 active torsions:
REMARK  status: ('A' for Active; 'I' for Inactive)
REMARK    1  A    between atoms: N1_1  and  C1_5 
REMARK    2  A    between atoms: C1_5  and  C2_6 
REMARK    3  A    between atoms: C2_6  and  C3_7 
REMARK    4  A    between atoms: C3_7  and  C4_8 
REMARK    5  A    between atoms: C4_8  and  S1_9 
REMARK    6  A    between atoms: S1_9  and  C5_10 
REMARK    7  A    between atoms: C5_10  and  C6_11 
REMARK    8  A    between atoms: C6_11  and  N2_13 
REMARK    9  A    between atoms: N2_13  and  C7_15 
REMARK   10  A    between atoms: C9_17  and  N3_18 
REMARK   11  A    between atoms: C10_22  and  O1_23 
REMARK   12  A    between atoms: C11_25  and  O2_26 
REMARK   13  A    between atoms: C12_28  and  O3_29 
ROOT
HETATM    1  C7  UNL     1      76.509  34.085  61.968  1.00  0.00     0.115 C 
HETATM    2  C8  UNL     1      75.474  34.813  62.717  1.00  0.00     0.063 C 
HETATM    3  C9  UNL     1      75.219  36.234  62.290  1.00  0.00     0.216 C 
HETATM    4  C10 UNL     1      76.484  36.826  61.695  1.00  0.00     0.179 C 
HETATM    5  C11 UNL     1      76.689  36.055  60.385  1.00  0.00     0.179 C 
HETATM    6  C12 UNL     1      76.853  34.602  60.615  1.00  0.00     0.172 C 
ENDROOT
BRANCH   1   7
HETATM    7  N2  UNL     1      76.105  32.692  61.829  1.00  0.00    -0.376 N 
ATOM      8  H2  UNL     1      75.755  32.378  60.924  1.00  0.00     0.160 HD
BRANCH   7   9
HETATM    9  C6  UNL     1      76.172  31.757  62.878  1.00  0.00     0.083 C 
HETATM   10  S2  UNL     1      74.984  30.691  63.222  1.00  0.00    -0.065 SA
BRANCH   9  11
HETATM   11  C5  UNL     1      77.380  31.700  63.755  1.00  0.00     0.143 C 
BRANCH  11  12
HETATM   12  S1  UNL     1      76.841  31.710  65.477  1.00  0.00    -0.162 SA
BRANCH  12  13
HETATM   13  C4  UNL     1      76.855  33.340  66.207  1.00  0.00     0.074 C 
BRANCH  13  14
HETATM   14  C3  UNL     1      77.887  33.542  67.268  1.00  0.00     0.012 C 
BRANCH  14  15
HETATM   15  C2  UNL     1      77.287  34.385  68.376  1.00  0.00     0.028 C 
BRANCH  15  16
HETATM   16  C1  UNL     1      76.000  33.740  68.893  1.00  0.00     0.229 C 
BRANCH  16  17
HETATM   17  N1  UNL     1      75.320  34.762  69.676  1.00  0.00    -0.079 N 
ATOM     18  H13 UNL     1      75.544  35.713  69.384  1.00  0.00     0.274 HD
ATOM     19  H12 UNL     1      74.317  34.810  69.498  1.00  0.00     0.274 HD
ATOM     20  H11 UNL     1      75.550  34.573  70.652  1.00  0.00     0.274 HD
ENDBRANCH  16  17
ENDBRANCH  15  16
ENDBRANCH  14  15
ENDBRANCH  13  14
ENDBRANCH  12  13
ENDBRANCH  11  12
ENDBRANCH   9  11
ENDBRANCH   7   9
ENDBRANCH   1   7
BRANCH   6  21
HETATM   21  O3  UNL     1      76.119  33.891  59.636  1.00  0.00    -0.391 OA
ATOM     22  H3  UNL     1      76.708  33.586  58.957  1.00  0.00     0.210 HD
ENDBRANCH   6  21
BRANCH   3  23
HETATM   23  N3  UNL     1      74.851  37.066  63.439  1.00  0.00    -0.072 N 
ATOM     24  H33 UNL     1      75.637  37.202  64.074  1.00  0.00     0.274 HD
ATOM     25  H32 UNL     1      74.702  38.039  63.168  1.00  0.00     0.274 HD
ATOM     26  H31 UNL     1      74.039  36.681  63.921  1.00  0.00     0.274 HD
ENDBRANCH   3  23
BRANCH   5  27
HETATM   27  O2  UNL     1      77.674  36.636  59.603  1.00  0.00    -0.390 OA
ATOM     28  H2  UNL     1      78.531  36.275  59.797  1.00  0.00     0.210 HD
ENDBRANCH   5  27
BRANCH   4  29
HETATM   29  O1  UNL     1      77.589  36.657  62.513  1.00  0.00    -0.391 OA
ATOM     30  H1  UNL     1      77.837  37.456  62.964  1.00  0.00     0.210 HD
ENDBRANCH   4  29
TORSDOF 13
ENDMDL
MODEL 2
REMARK VINA RESULT: -5.397349905      3.276      5.554
REMARK  13 active torsions:
REMARK  status: ('A' for Active; 'I' for Inactive)
REMARK    1  A    between atoms: N1_1  and  C1_5 
REMARK    2  A    between atoms: C1_5  and  C2_6 
REMARK    3  A    between atoms: C2_6  and  C3_7 
REMARK    4  A    between atoms: C3_7  and  C4_8 
REMARK    5  A    between atoms: C4_8  and  S1_9 
REMARK    6  A    between atoms: S1_9  and  C5_10 
REMARK    7  A    between atoms: C5_10  and  C6_11 
REMARK    8  A    between atoms: C6_11  and  N2_13 
REMARK    9  A    between atoms: N2_13  and  C7_15 
REMARK   10  A    between atoms: C9_17  and  N3_18 
REMARK   11  A    between atoms: C10_22  and  O1_23 
REMARK   12  A    between atoms: C11_25  and  O2_26 
REMARK   13  A    between atoms: C12_28  and  O3_29 
ROOT
HETATM    1  C7  UNL     1      77.406  33.307  64.048  1.00  0.00     0.115 C 
HETATM    2  C8  UNL     1      78.209  32.094  64.270  1.00  0.00     0.063 C 
HETATM    3  C9  UNL     1      78.277  31.593  65.688  1.00  0.00     0.216 C 
HETATM    4  C10 UNL     1      78.117  32.754  66.652  1.00  0.00     0.179 C 
HETATM    5  C11 UNL     1      76.663  33.206  66.468  1.00  0.00     0.179 C 
HETATM    6  C12 UNL     1      76.387  33.641  65.080  1.00  0.00     0.172 C 
ENDROOT
BRANCH   1   7
HETATM    7  N2  UNL     1      76.730  33.202  62.762  1.00  0.00    -0.376 N 
ATOM      8  H2  UNL     1      75.726  33.021  62.758  1.00  0.00     0.160 HD
BRANCH   7   9
HETATM    9  C6  UNL     1      77.388  33.338  61.526  1.00  0.00     0.083 C 
HETATM   10  S2  UNL     1      77.319  32.225  60.334  1.00  0.00    -0.065 SA
BRANCH   9  11
HETATM   11  C5  UNL     1      78.210  34.552  61.244  1.00  0.00     0.143 C 
BRANCH  11  12
HETATM   12  S1  UNL     1      77.099  35.942  60.942  1.00  0.00    -0.162 SA
BRANCH  12  13
HETATM   13  C4  UNL     1      76.492  36.694  62.444  1.00  0.00     0.074 C 
BRANCH  13  14
HETATM   14  C3  UNL     1      75.070  36.377  62.774  1.00  0.00     0.012 C 
BRANCH  14  15
HETATM   15  C2  UNL     1      74.403  37.629  63.307  1.00  0.00     0.028 C 
BRANCH  15  16
HETATM   16  C1  UNL     1      74.500  37.670  64.834  1.00  0.00     0.229 C 
BRANCH  16  17
HETATM   17  N1  UNL     1      73.331  38.406  65.295  1.00  0.00    -0.079 N 
ATOM     18  H13 UNL     1      73.030  39.136  64.648  1.00  0.00     0.274 HD
ATOM     19  H12 UNL     1      72.471  37.858  65.273  1.00  0.00     0.274 HD
ATOM     20  H11 UNL     1      73.565  38.759  66.223  1.00  0.00     0.274 HD
ENDBRANCH  16  17
ENDBRANCH  15  16
ENDBRANCH  14  15
ENDBRANCH  13  14
ENDBRANCH  12  13
ENDBRANCH  11  12
ENDBRANCH   9  11
ENDBRANCH   7   9
ENDBRANCH   1   7
BRANCH   6  21
HETATM   21  O3  UNL     1      75.126  33.139  64.678  1.00  0.00    -0.391 OA
ATOM     22  H3  UNL     1      74.441  33.568  65.176  1.00  0.00     0.210 HD
ENDBRANCH   6  21
BRANCH   3  23
HETATM   23  N3  UNL     1      79.581  30.980  65.962  1.00  0.00    -0.072 N 
ATOM     24  H33 UNL     1      79.619  30.578  66.899  1.00  0.00     0.274 HD
ATOM     25  H32 UNL     1      79.718  30.126  65.422  1.00  0.00     0.274 HD
ATOM     26  H31 UNL     1      80.335  31.649  65.809  1.00  0.00     0.274 HD
ENDBRANCH   3  23
BRANCH   5  27
HETATM   27  O2  UNL     1      76.284  34.111  67.447  1.00  0.00    -0.390 OA
ATOM     28  H2  UNL     1      76.811  34.015  68.232  1.00  0.00     0.210 HD
ENDBRANCH   5  27
BRANCH   4  29
HETATM   29  O1  UNL     1      78.971  33.806  66.368  1.00  0.00    -0.391 OA
ATOM     30  H1  UNL     1      78.785  34.580  66.889  1.00  0.00     0.210 HD
ENDBRANCH   4  29
TORSDOF 13
ENDMDL
MODEL 3
REMARK VINA RESULT: -5.288970210      3.593      5.310
REMARK  13 active torsions:
REMARK  status: ('A' for Active; 'I' for Inactive)
REMARK    1  A    between atoms: N1_1  and  C1_5 
REMARK    2  A    between atoms: C1_5  and  C2_6 
REMARK    3  A    between atoms: C2_6  and  C3_7 
REMARK    4  A    between atoms: C3_7  and  C4_8 
REMARK    5  A    between atoms: C4_8  and  S1_9 
REMARK    6  A    between atoms: S1_9  and  C5_10 
REMARK    7  A    between atoms: C5_10  and  C6_11 
REMARK    8  A    between atoms: C6_11  and  N2_13 
REMARK    9  A    between atoms: N2_13  and  C7_15 
REMARK   10  A    between atoms: C9_17  and  N3_18 
REMARK   11  A    between atoms: C10_22  and  O1_23 
REMARK   12  A    between atoms: C11_25  and  O2_26 
REMARK   13  A    between atoms: C12_28  and  O3_29 
ROOT
HETATM    1  C7  UNL     1      77.032  33.078  62.512  1.00  0.00     0.115 C 
HETATM    2  C8  UNL     1      77.973  32.960  63.636  1.00  0.00     0.063 C 
HETATM    3  C9  UNL     1      77.567  32.028  64.747  1.00  0.00     0.216 C 
HETATM    4  C10 UNL     1      76.054  31.953  64.828  1.00  0.00     0.179 C 
HETATM    5  C11 UNL     1      75.636  31.232  63.540  1.00  0.00     0.179 C 
HETATM    6  C12 UNL     1      76.056  31.970  62.328  1.00  0.00     0.172 C 
ENDROOT
BRANCH   1   7
HETATM    7  N2  UNL     1      77.787  33.225  61.274  1.00  0.00    -0.376 N 
ATOM      8  H2  UNL     1      78.356  32.439  60.959  1.00  0.00     0.160 HD
BRANCH   7   9
HETATM    9  C6  UNL     1      77.771  34.393  60.489  1.00  0.00     0.083 C 
HETATM   10  S2  UNL     1      79.115  35.199  60.034  1.00  0.00    -0.065 SA
BRANCH   9  11
HETATM   11  C5  UNL     1      76.472  34.966  60.025  1.00  0.00     0.143 C 
BRANCH  11  12
HETATM   12  S1  UNL     1      76.367  36.679  60.584  1.00  0.00    -0.162 SA
BRANCH  12  13
HETATM   13  C4  UNL     1      76.436  36.843  62.361  1.00  0.00     0.074 C 
BRANCH  13  14
HETATM   14  C3  UNL     1      75.236  36.324  63.085  1.00  0.00     0.012 C 
BRANCH  14  15
HETATM   15  C2  UNL     1      74.364  37.499  63.483  1.00  0.00     0.028 C 
BRANCH  15  16
HETATM   16  C1  UNL     1      74.488  37.764  64.984  1.00  0.00     0.229 C 
BRANCH  16  17
HETATM   17  N1  UNL     1      73.297  38.512  65.363  1.00  0.00    -0.079 N 
ATOM     18  H13 UNL     1      73.322  38.854  66.325  1.00  0.00     0.274 HD
ATOM     19  H12 UNL     1      73.228  39.423  64.909  1.00  0.00     0.274 HD
ATOM     20  H11 UNL     1      72.504  37.901  65.171  1.00  0.00     0.274 HD
ENDBRANCH  16  17
ENDBRANCH  15  16
ENDBRANCH  14  15
ENDBRANCH  13  14
ENDBRANCH  12  13
ENDBRANCH  11  12
ENDBRANCH   9  11
ENDBRANCH   7   9
ENDBRANCH   1   7
BRANCH   6  21
HETATM   21  O3  UNL     1      76.557  31.051  61.375  1.00  0.00    -0.391 OA
ATOM     22  H3  UNL     1      75.971  30.307  61.313  1.00  0.00     0.210 HD
ENDBRANCH   6  21
BRANCH   3  23
HETATM   23  N3  UNL     1      78.045  32.519  66.042  1.00  0.00    -0.072 N 
ATOM     24  H33 UNL     1      77.428  33.235  66.426  1.00  0.00     0.274 HD
ATOM     25  H32 UNL     1      77.941  31.816  66.775  1.00  0.00     0.274 HD
ATOM     26  H31 UNL     1      79.007  32.850  65.973  1.00  0.00     0.274 HD
ENDBRANCH   3  23
BRANCH   5  27
HETATM   27  O2  UNL     1      74.298  30.874  63.570  1.00  0.00    -0.390 OA
ATOM     28  H2  UNL     1      74.170  29.979  63.277  1.00  0.00     0.210 HD
ENDBRANCH   5  27
BRANCH   4  29
HETATM   29  O1  UNL     1      75.458  33.203  64.875  1.00  0.00    -0.391 OA
ATOM     30  H1  UNL     1      76.086  33.911  64.794  1.00  0.00     0.210 HD
ENDBRANCH   4  29
TORSDOF 13
ENDMDL
MODEL 4
REMARK VINA RESULT: -5.230719662      1.415      1.778
REMARK  13 active torsions:
REMARK  status: ('A' for Active; 'I' for Inactive)
REMARK    1  A    between atoms: N1_1  and  C1_5 
REMARK    2  A    between atoms: C1_5  and  C2_6 
REMARK    3  A    between atoms: C2_6  and  C3_7 
REMARK    4  A    between atoms: C3_7  and  C4_8 
REMARK    5  A    between atoms: C4_8  and  S1_9 
REMARK    6  A    between atoms: S1_9  and  C5_10 
REMARK    7  A    between atoms: C5_10  and  C6_11 
REMARK    8  A    between atoms: C6_11  and  N2_13 
REMARK    9  A    between atoms: N2_13  and  C7_15 
REMARK   10  A    between atoms: C9_17  and  N3_18 
REMARK   11  A    between atoms: C10_22  and  O1_23 
REMARK   12  A    between atoms: C11_25  and  O2_26 
REMARK   13  A    between atoms: C12_28  and  O3_29 
ROOT
HETATM    1  C7  UNL     1      76.496  34.104  62.046  1.00  0.00     0.115 C 
HETATM    2  C8  UNL     1      75.483  34.816  62.841  1.00  0.00     0.063 C 
HETATM    3  C9  UNL     1      75.224  36.249  62.457  1.00  0.00     0.216 C 
HETATM    4  C10 UNL     1      76.477  36.851  61.847  1.00  0.00     0.179 C 
HETATM    5  C11 UNL     1      76.645  36.114  60.513  1.00  0.00     0.179 C 
HETATM    6  C12 UNL     1      76.808  34.655  60.700  1.00  0.00     0.172 C 
ENDROOT
BRANCH   1   7
HETATM    7  N2  UNL     1      76.082  32.717  61.881  1.00  0.00    -0.376 N 
ATOM      8  H2  UNL     1      75.709  32.428  60.977  1.00  0.00     0.160 HD
BRANCH   7   9
HETATM    9  C6  UNL     1      76.169  31.754  62.904  1.00  0.00     0.083 C 
HETATM   10  S2  UNL     1      74.990  30.676  63.239  1.00  0.00    -0.065 SA
BRANCH   9  11
HETATM   11  C5  UNL     1      77.391  31.678  63.759  1.00  0.00     0.143 C 
BRANCH  11  12
HETATM   12  S1  UNL     1      76.886  31.729  65.491  1.00  0.00    -0.162 SA
BRANCH  12  13
HETATM   13  C4  UNL     1      77.052  33.349  66.223  1.00  0.00     0.074 C 
BRANCH  13  14
HETATM   14  C3  UNL     1      78.210  33.499  67.156  1.00  0.00     0.012 C 
BRANCH  14  15
HETATM   15  C2  UNL     1      79.490  33.247  66.385  1.00  0.00     0.028 C 
BRANCH  15  16
HETATM   16  C1  UNL     1      80.484  32.469  67.251  1.00  0.00     0.229 C 
BRANCH  16  17
HETATM   17  N1  UNL     1      79.760  32.088  68.456  1.00  0.00    -0.079 N 
ATOM     18  H13 UNL     1      78.825  32.491  68.512  1.00  0.00     0.274 HD
ATOM     19  H12 UNL     1      79.475  31.109  68.466  1.00  0.00     0.274 HD
ATOM     20  H11 UNL     1      80.359  32.344  69.240  1.00  0.00     0.274 HD
ENDBRANCH  16  17
ENDBRANCH  15  16
ENDBRANCH  14  15
ENDBRANCH  13  14
ENDBRANCH  12  13
ENDBRANCH  11  12
ENDBRANCH   9  11
ENDBRANCH   7   9
ENDBRANCH   1   7
BRANCH   6  21
HETATM   21  O3  UNL     1      76.047  33.973  59.721  1.00  0.00    -0.391 OA
ATOM     22  H3  UNL     1      75.202  34.395  59.626  1.00  0.00     0.210 HD
ENDBRANCH   6  21
BRANCH   3  23
HETATM   23  N3  UNL     1      74.889  37.052  63.636  1.00  0.00    -0.072 N 
ATOM     24  H33 UNL     1      74.009  37.553  63.514  1.00  0.00     0.274 HD
ATOM     25  H32 UNL     1      74.624  36.467  64.429  1.00  0.00     0.274 HD
ATOM     26  H31 UNL     1      75.653  37.685  63.874  1.00  0.00     0.274 HD
ENDBRANCH   3  23
BRANCH   5  27
HETATM   27  O2  UNL     1      77.613  36.711  59.721  1.00  0.00    -0.390 OA
ATOM     28  H2  UNL     1      77.455  37.643  59.621  1.00  0.00     0.210 HD
ENDBRANCH   5  27
BRANCH   4  29
HETATM   29  O1  UNL     1      77.601  36.656  62.632  1.00  0.00    -0.391 OA
ATOM     30  H1  UNL     1      78.405  36.906  62.190  1.00  0.00     0.210 HD
ENDBRANCH   4  29
TORSDOF 13
ENDMDL
MODEL 5
REMARK VINA RESULT: -5.225206349      3.209      6.638
REMARK  13 active torsions:
REMARK  status: ('A' for Active; 'I' for Inactive)
REMARK    1  A    between atoms: N1_1  and  C1_5 
REMARK    2  A    between atoms: C1_5  and  C2_6 
REMARK    3  A    between atoms: C2_6  and  C3_7 
REMARK    4  A    between atoms: C3_7  and  C4_8 
REMARK    5  A    between atoms: C4_8  and  S1_9 
REMARK    6  A    between atoms: S1_9  and  C5_10 
REMARK    7  A    between atoms: C5_10  and  C6_11 
REMARK    8  A    between atoms: C6_11  and  N2_13 
REMARK    9  A    between atoms: N2_13  and  C7_15 
REMARK   10  A    between atoms: C9_17  and  N3_18 
REMARK   11  A    between atoms: C10_22  and  O1_23 
REMARK   12  A    between atoms: C11_25  and  O2_26 
REMARK   13  A    between atoms: C12_28  and  O3_29 
ROOT
HETATM    1  C7  UNL     1      76.092  34.351  63.179  1.00  0.00     0.115 C 
HETATM    2  C8  UNL     1      76.646  34.053  64.508  1.00  0.00     0.063 C 
HETATM    3  C9  UNL     1      77.010  32.615  64.770  1.00  0.00     0.216 C 
HETATM    4  C10 UNL     1      76.129  31.703  63.937  1.00  0.00     0.179 C 
HETATM    5  C11 UNL     1      76.569  31.960  62.490  1.00  0.00     0.179 C 
HETATM    6  C12 UNL     1      76.377  33.373  62.093  1.00  0.00     0.172 C 
ENDROOT
BRANCH   1   7
HETATM    7  N2  UNL     1      76.570  35.657  62.746  1.00  0.00    -0.376 N 
ATOM      8  H2  UNL     1      77.565  35.767  62.550  1.00  0.00     0.160 HD
BRANCH   7   9
HETATM    9  C6  UNL     1      75.731  36.776  62.585  1.00  0.00     0.083 C 
HETATM   10  S2  UNL     1      74.844  37.426  63.791  1.00  0.00    -0.065 SA
BRANCH   9  11
HETATM   11  C5  UNL     1      75.613  37.438  61.251  1.00  0.00     0.143 C 
BRANCH  11  12
HETATM   12  S1  UNL     1      77.079  37.036  60.278  1.00  0.00    -0.162 SA
BRANCH  12  13
HETATM   13  C4  UNL     1      76.702  36.140  58.779  1.00  0.00     0.074 C 
BRANCH  13  14
HETATM   14  C3  UNL     1      75.496  35.261  58.862  1.00  0.00     0.012 C 
BRANCH  14  15
HETATM   15  C2  UNL     1      75.532  34.278  57.708  1.00  0.00     0.028 C 
BRANCH  15  16
HETATM   16  C1  UNL     1      76.744  33.353  57.840  1.00  0.00     0.229 C 
BRANCH  16  17
HETATM   17  N1  UNL     1      76.370  32.331  58.807  1.00  0.00    -0.079 N 
ATOM     18  H13 UNL     1      75.701  31.653  58.444  1.00  0.00     0.274 HD
ATOM     19  H12 UNL     1      77.120  31.670  59.010  1.00  0.00     0.274 HD
ATOM     20  H11 UNL     1      76.035  32.829  59.632  1.00  0.00     0.274 HD
ENDBRANCH  16  17
ENDBRANCH  15  16
ENDBRANCH  14  15
ENDBRANCH  13  14
ENDBRANCH  12  13
ENDBRANCH  11  12
ENDBRANCH   9  11
ENDBRANCH   7   9
ENDBRANCH   1   7
BRANCH   6  21
HETATM   21  O3  UNL     1      77.502  33.805  61.351  1.00  0.00    -0.391 OA
ATOM     22  H3  UNL     1      78.277  33.765  61.898  1.00  0.00     0.210 HD
ENDBRANCH   6  21
BRANCH   3  23
HETATM   23  N3  UNL     1      76.786  32.267  66.176  1.00  0.00    -0.072 N 
ATOM     24  H33 UNL     1      77.416  32.775  66.796  1.00  0.00     0.274 HD
ATOM     25  H32 UNL     1      75.899  32.638  66.519  1.00  0.00     0.274 HD
ATOM     26  H31 UNL     1      76.852  31.259  66.315  1.00  0.00     0.274 HD
ENDBRANCH   3  23
BRANCH   5  27
HETATM   27  O2  UNL     1      76.023  31.031  61.620  1.00  0.00    -0.390 OA
ATOM     28  H2  UNL     1      75.457  30.418  62.074  1.00  0.00     0.210 HD
ENDBRANCH   5  27
BRANCH   4  29
HETATM   29  O1  UNL     1      74.781  31.992  64.071  1.00  0.00    -0.391 OA
ATOM     30  H1  UNL     1      74.248  31.575  63.403  1.00  0.00     0.210 HD
ENDBRANCH   4  29
TORSDOF 13
ENDMDL
