MODEL 1
REMARK VINA RESULT: -5.984868509      0.000      0.000
REMARK  11 active torsions:
REMARK  status: ('A' for Active; 'I' for Inactive)
REMARK    1  A    between atoms: N1_1  and  C1_5 
REMARK    2  A    between atoms: C1_5  and  C2_6 
REMARK    3  A    between atoms: C2_6  and  C3_7 
REMARK    4  A    between atoms: C3_7  and  C4_8 
REMARK    5  A    between atoms: C4_8  and  C5_9 
REMARK    6  A    between atoms: C5_9  and  C6_10 
REMARK    7  A    between atoms: C6_10  and  N2_11 
REMARK    8  A    between atoms: N2_11  and  N3_13 
REMARK    9  A    between atoms: N3_13  and  N4_14 
REMARK   10  A    between atoms: N3_13  and  C7_17 
REMARK   11  A    between atoms: C13_28  and  N7_29 
ROOT
HETATM    1  C7  UNL     1      77.849  32.569  63.039  1.00  0.00     0.105 C 
HETATM    2  C8  UNL     1      77.754  32.017  64.208  1.00  0.00     0.061 C 
HETATM    3  C9  UNL     1      76.499  31.552  64.855  1.00  0.00     0.267 C 
HETATM    4  O1  UNL     1      75.466  31.176  64.293  1.00  0.00    -0.266 OA
HETATM    5  N5  UNL     1      76.787  31.648  66.266  1.00  0.00    -0.269 N 
ATOM      6  H5  UNL     1      76.132  31.430  67.017  1.00  0.00     0.185 HD
HETATM    7  N6  UNL     1      78.111  32.089  66.447  1.00  0.00    -0.128 NA
HETATM    8  C10 UNL     1      78.763  31.685  65.214  1.00  0.00     0.141 C 
HETATM    9  C11 UNL     1      80.133  32.167  65.057  1.00  0.00     0.038 C 
HETATM   10  C12 UNL     1      80.308  33.663  65.018  1.00  0.00     0.078 C 
HETATM   11  S1  UNL     1      80.042  34.225  63.319  1.00  0.00    -0.130 SA
HETATM   12  C13 UNL     1      79.095  33.044  62.355  1.00  0.00     0.298 C 
ENDROOT
BRANCH   1  13
HETATM   13  N3  UNL     1      76.655  32.751  62.297  1.00  0.00    -0.208 N 
BRANCH  13  14
HETATM   14  N2  UNL     1      75.900  33.894  62.406  1.00  0.00    -0.316 N 
ATOM     15  H2  UNL     1      75.296  34.061  63.211  1.00  0.00     0.182 HD
BRANCH  14  16
HETATM   16  C6  UNL     1      76.000  34.837  61.339  1.00  0.00     0.141 C 
BRANCH  16  17
HETATM   17  C5  UNL     1      76.960  35.979  61.695  1.00  0.00     0.021 C 
BRANCH  17  18
HETATM   18  C4  UNL     1      76.385  36.713  62.893  1.00  0.00     0.002 C 
BRANCH  18  19
HETATM   19  C3  UNL     1      75.294  37.668  62.495  1.00  0.00     0.002 C 
BRANCH  19  20
HETATM   20  C2  UNL     1      74.098  37.506  63.404  1.00  0.00     0.027 C 
BRANCH  20  21
HETATM   21  C1  UNL     1      74.465  37.778  64.851  1.00  0.00     0.229 C 
BRANCH  21  22
HETATM   22  N1  UNL     1      73.413  38.531  65.513  1.00  0.00    -0.079 N 
ATOM     23  H13 UNL     1      73.453  39.522  65.278  1.00  0.00     0.274 HD
ATOM     24  H12 UNL     1      72.493  38.319  65.125  1.00  0.00     0.274 HD
ATOM     25  H11 UNL     1      73.442  38.379  66.521  1.00  0.00     0.274 HD
ENDBRANCH  21  22
ENDBRANCH  20  21
ENDBRANCH  19  20
ENDBRANCH  18  19
ENDBRANCH  17  18
ENDBRANCH  16  17
ENDBRANCH  14  16
ENDBRANCH  13  14
BRANCH  13  26
HETATM   26  N4  UNL     1      76.275  31.771  61.382  1.00  0.00    -0.324 N 
ATOM     27  H42 UNL     1      75.282  31.631  61.195  1.00  0.00     0.178 HD
ATOM     28  H41 UNL     1      76.992  31.184  60.956  1.00  0.00     0.178 HD
ENDBRANCH  13  26
ENDBRANCH   1  13
BRANCH  12  29
HETATM   29  N7  UNL     1      79.872  31.973  61.786  1.00  0.00    -0.061 N 
ATOM     30  H73 UNL     1      79.736  31.109  62.309  1.00  0.00     0.276 HD
ATOM     31  H72 UNL     1      79.488  31.686  60.885  1.00  0.00     0.276 HD
ATOM     32  H71 UNL     1      80.863  32.197  61.704  1.00  0.00     0.276 HD
ENDBRANCH  12  29
TORSDOF 11
ENDMDL
MODEL 2
REMARK VINA RESULT: -5.860890116      1.174      1.229
REMARK  11 active torsions:
REMARK  status: ('A' for Active; 'I' for Inactive)
REMARK    1  A    between atoms: N1_1  and  C1_5 
REMARK    2  A    between atoms: C1_5  and  C2_6 
REMARK    3  A    between atoms: C2_6  and  C3_7 
REMARK    4  A    between atoms: C3_7  and  C4_8 
REMARK    5  A    between atoms: C4_8  and  C5_9 
REMARK    6  A    between atoms: C5_9  and  C6_10 
REMARK    7  A    between atoms: C6_10  and  N2_11 
REMARK    8  A    between atoms: N2_11  and  N3_13 
REMARK    9  A    between atoms: N3_13  and  N4_14 
REMARK   10  A    between atoms: N3_13  and  C7_17 
REMARK   11  A    between atoms: C13_28  and  N7_29 
ROOT
HETATM    1  C7  UNL     1      77.880  32.680  63.581  1.00  0.00     0.105 C 
HETATM    2  C8  UNL     1      77.607  32.470  64.831  1.00  0.00     0.061 C 
HETATM    3  C9  UNL     1      76.415  32.974  65.561  1.00  0.00     0.267 C 
HETATM    4  O1  UNL     1      75.309  33.247  65.084  1.00  0.00    -0.266 OA
HETATM    5  N5  UNL     1      76.865  33.061  66.930  1.00  0.00    -0.269 N 
ATOM      6  H5  UNL     1      76.305  33.400  67.713  1.00  0.00     0.185 HD
HETATM    7  N6  UNL     1      78.194  32.607  67.017  1.00  0.00    -0.128 NA
HETATM    8  C10 UNL     1      78.316  31.725  65.872  1.00  0.00     0.141 C 
HETATM    9  C11 UNL     1      79.666  31.228  65.619  1.00  0.00     0.038 C 
HETATM   10  C12 UNL     1      80.709  32.271  65.312  1.00  0.00     0.078 C 
HETATM   11  S1  UNL     1      80.642  32.641  63.543  1.00  0.00    -0.130 SA
HETATM   12  C13 UNL     1      79.068  32.183  62.813  1.00  0.00     0.298 C 
ENDROOT
BRANCH   1  13
HETATM   13  N3  UNL     1      76.967  33.460  62.829  1.00  0.00    -0.208 N 
BRANCH  13  14
HETATM   14  N2  UNL     1      77.058  34.830  62.770  1.00  0.00    -0.316 N 
ATOM     15  H2  UNL     1      76.718  35.421  63.528  1.00  0.00     0.182 HD
BRANCH  14  16
HETATM   16  C6  UNL     1      77.652  35.386  61.597  1.00  0.00     0.141 C 
BRANCH  16  17
HETATM   17  C5  UNL     1      76.935  36.671  61.168  1.00  0.00     0.021 C 
BRANCH  17  18
HETATM   18  C4  UNL     1      75.509  36.602  61.682  1.00  0.00     0.002 C 
BRANCH  18  19
HETATM   19  C3  UNL     1      75.168  37.783  62.548  1.00  0.00     0.002 C 
BRANCH  19  20
HETATM   20  C2  UNL     1      74.083  37.414  63.534  1.00  0.00     0.027 C 
BRANCH  20  21
HETATM   21  C1  UNL     1      74.455  37.833  64.944  1.00  0.00     0.229 C 
BRANCH  21  22
HETATM   22  N1  UNL     1      73.369  38.575  65.561  1.00  0.00    -0.079 N 
ATOM     23  H13 UNL     1      73.392  38.503  66.578  1.00  0.00     0.274 HD
ATOM     24  H12 UNL     1      73.501  39.583  65.476  1.00  0.00     0.274 HD
ATOM     25  H11 UNL     1      72.470  38.278  65.181  1.00  0.00     0.274 HD
ENDBRANCH  21  22
ENDBRANCH  20  21
ENDBRANCH  19  20
ENDBRANCH  18  19
ENDBRANCH  17  18
ENDBRANCH  16  17
ENDBRANCH  14  16
ENDBRANCH  13  14
BRANCH  13  26
HETATM   26  N4  UNL     1      75.990  32.811  62.074  1.00  0.00    -0.324 N 
ATOM     27  H42 UNL     1      76.280  32.242  61.279  1.00  0.00     0.178 HD
ATOM     28  H41 UNL     1      75.007  32.959  62.302  1.00  0.00     0.178 HD
ENDBRANCH  13  26
ENDBRANCH   1  13
BRANCH  12  29
HETATM   29  N7  UNL     1      78.959  30.797  62.438  1.00  0.00    -0.061 N 
ATOM     30  H73 UNL     1      79.343  30.193  63.164  1.00  0.00     0.276 HD
ATOM     31  H72 UNL     1      77.987  30.490  62.462  1.00  0.00     0.276 HD
ATOM     32  H71 UNL     1      79.384  30.593  61.533  1.00  0.00     0.276 HD
ENDBRANCH  12  29
TORSDOF 11
ENDMDL
MODEL 3
REMARK VINA RESULT: -5.651103148      1.570      2.027
REMARK  11 active torsions:
REMARK  status: ('A' for Active; 'I' for Inactive)
REMARK    1  A    between atoms: N1_1  and  C1_5 
REMARK    2  A    between atoms: C1_5  and  C2_6 
REMARK    3  A    between atoms: C2_6  and  C3_7 
REMARK    4  A    between atoms: C3_7  and  C4_8 
REMARK    5  A    between atoms: C4_8  and  C5_9 
REMARK    6  A    between atoms: C5_9  and  C6_10 
REMARK    7  A    between atoms: C6_10  and  N2_11 
REMARK    8  A    between atoms: N2_11  and  N3_13 
REMARK    9  A    between atoms: N3_13  and  N4_14 
REMARK   10  A    between atoms: N3_13  and  C7_17 
REMARK   11  A    between atoms: C13_28  and  N7_29 
ROOT
HETATM    1  C7  UNL     1      77.786  32.290  63.055  1.00  0.00     0.105 C 
HETATM    2  C8  UNL     1      77.754  31.856  64.276  1.00  0.00     0.061 C 
HETATM    3  C9  UNL     1      76.544  31.402  65.010  1.00  0.00     0.267 C 
HETATM    4  O1  UNL     1      75.513  30.926  64.524  1.00  0.00    -0.266 OA
HETATM    5  N5  UNL     1      76.869  31.653  66.393  1.00  0.00    -0.269 N 
ATOM      6  H5  UNL     1      76.248  31.482  67.184  1.00  0.00     0.185 HD
HETATM    7  N6  UNL     1      78.175  32.168  66.482  1.00  0.00    -0.128 NA
HETATM    8  C10 UNL     1      78.808  31.672  65.274  1.00  0.00     0.141 C 
HETATM    9  C11 UNL     1      80.148  32.196  65.021  1.00  0.00     0.038 C 
HETATM   10  C12 UNL     1      80.250  33.687  64.827  1.00  0.00     0.078 C 
HETATM   11  S1  UNL     1      79.905  34.062  63.092  1.00  0.00    -0.130 SA
HETATM   12  C13 UNL     1      78.987  32.749  62.284  1.00  0.00     0.298 C 
ENDROOT
BRANCH   1  13
HETATM   13  N3  UNL     1      76.563  32.344  62.342  1.00  0.00    -0.208 N 
BRANCH  13  14
HETATM   14  N2  UNL     1      75.630  33.325  62.573  1.00  0.00    -0.316 N 
ATOM     15  H2  UNL     1      74.709  33.107  62.955  1.00  0.00     0.182 HD
BRANCH  14  16
HETATM   16  C6  UNL     1      76.009  34.664  62.255  1.00  0.00     0.141 C 
BRANCH  16  17
HETATM   17  C5  UNL     1      75.686  35.622  63.408  1.00  0.00     0.021 C 
BRANCH  17  18
HETATM   18  C4  UNL     1      76.069  37.023  62.969  1.00  0.00     0.002 C 
BRANCH  18  19
HETATM   19  C3  UNL     1      74.898  37.769  62.391  1.00  0.00     0.002 C 
BRANCH  19  20
HETATM   20  C2  UNL     1      75.283  38.412  61.079  1.00  0.00     0.027 C 
BRANCH  20  21
HETATM   21  C1  UNL     1      76.401  37.646  60.397  1.00  0.00     0.229 C 
BRANCH  21  22
HETATM   22  N1  UNL     1      76.790  38.301  59.160  1.00  0.00    -0.079 N 
ATOM     23  H13 UNL     1      75.985  38.489  58.562  1.00  0.00     0.274 HD
ATOM     24  H12 UNL     1      77.090  39.263  59.319  1.00  0.00     0.274 HD
ATOM     25  H11 UNL     1      77.504  37.758  58.674  1.00  0.00     0.274 HD
ENDBRANCH  21  22
ENDBRANCH  20  21
ENDBRANCH  19  20
ENDBRANCH  18  19
ENDBRANCH  17  18
ENDBRANCH  16  17
ENDBRANCH  14  16
ENDBRANCH  13  14
BRANCH  13  26
HETATM   26  N4  UNL     1      76.333  31.413  61.329  1.00  0.00    -0.324 N 
ATOM     27  H42 UNL     1      75.452  30.899  61.324  1.00  0.00     0.178 HD
ATOM     28  H41 UNL     1      77.068  31.232  60.645  1.00  0.00     0.178 HD
ENDBRANCH  13  26
ENDBRANCH   1  13
BRANCH  12  29
HETATM   29  N7  UNL     1      79.796  31.662  61.796  1.00  0.00    -0.061 N 
ATOM     30  H73 UNL     1      79.386  31.252  60.958  1.00  0.00     0.276 HD
ATOM     31  H72 UNL     1      80.671  32.009  61.402  1.00  0.00     0.276 HD
ATOM     32  H71 UNL     1      79.973  30.947  62.502  1.00  0.00     0.276 HD
ENDBRANCH  12  29
TORSDOF 11
ENDMDL
MODEL 4
REMARK VINA RESULT: -5.634304891      2.752      5.153
REMARK  11 active torsions:
REMARK  status: ('A' for Active; 'I' for Inactive)
REMARK    1  A    between atoms: N1_1  and  C1_5 
REMARK    2  A    between atoms: C1_5  and  C2_6 
REMARK    3  A    between atoms: C2_6  and  C3_7 
REMARK    4  A    between atoms: C3_7  and  C4_8 
REMARK    5  A    between atoms: C4_8  and  C5_9 
REMARK    6  A    between atoms: C5_9  and  C6_10 
REMARK    7  A    between atoms: C6_10  and  N2_11 
REMARK    8  A    between atoms: N2_11  and  N3_13 
REMARK    9  A    between atoms: N3_13  and  N4_14 
REMARK   10  A    between atoms: N3_13  and  C7_17 
REMARK   11  A    between atoms: C13_28  and  N7_29 
ROOT
HETATM    1  C7  UNL     1      76.933  34.163  61.945  1.00  0.00     0.105 C 
HETATM    2  C8  UNL     1      76.468  35.298  62.366  1.00  0.00     0.061 C 
HETATM    3  C9  UNL     1      75.659  35.508  63.594  1.00  0.00     0.267 C 
HETATM    4  O1  UNL     1      75.670  34.821  64.621  1.00  0.00    -0.266 OA
HETATM    5  N5  UNL     1      74.880  36.685  63.292  1.00  0.00    -0.269 N 
ATOM      6  H5  UNL     1      74.186  37.106  63.910  1.00  0.00     0.185 HD
HETATM    7  N6  UNL     1      75.225  37.161  62.014  1.00  0.00    -0.128 NA
HETATM    8  C10 UNL     1      76.572  36.654  61.827  1.00  0.00     0.141 C 
HETATM    9  C11 UNL     1      77.129  36.867  60.494  1.00  0.00     0.038 C 
HETATM   10  C12 UNL     1      76.394  36.206  59.356  1.00  0.00     0.078 C 
HETATM   11  S1  UNL     1      76.989  34.505  59.204  1.00  0.00    -0.130 SA
HETATM   12  C13 UNL     1      77.756  33.916  60.716  1.00  0.00     0.298 C 
ENDROOT
BRANCH   1  13
HETATM   13  N3  UNL     1      76.652  33.009  62.716  1.00  0.00    -0.208 N 
BRANCH  13  14
HETATM   14  N2  UNL     1      77.496  32.574  63.709  1.00  0.00    -0.316 N 
ATOM     15  H2  UNL     1      78.412  33.000  63.855  1.00  0.00     0.182 HD
BRANCH  14  16
HETATM   16  C6  UNL     1      77.031  31.501  64.527  1.00  0.00     0.141 C 
BRANCH  16  17
HETATM   17  C5  UNL     1      77.205  31.821  66.016  1.00  0.00     0.021 C 
BRANCH  17  18
HETATM   18  C4  UNL     1      78.305  32.859  66.143  1.00  0.00     0.002 C 
BRANCH  18  19
HETATM   19  C3  UNL     1      78.230  33.598  67.450  1.00  0.00     0.002 C 
BRANCH  19  20
HETATM   20  C2  UNL     1      76.802  33.997  67.746  1.00  0.00     0.027 C 
BRANCH  20  21
HETATM   21  C1  UNL     1      76.532  34.009  69.239  1.00  0.00     0.229 C 
BRANCH  21  22
HETATM   22  N1  UNL     1      75.369  34.826  69.541  1.00  0.00    -0.079 N 
ATOM     23  H13 UNL     1      75.607  35.616  70.141  1.00  0.00     0.274 HD
ATOM     24  H12 UNL     1      75.047  35.346  68.724  1.00  0.00     0.274 HD
ATOM     25  H11 UNL     1      74.624  34.256  69.943  1.00  0.00     0.274 HD
ENDBRANCH  21  22
ENDBRANCH  20  21
ENDBRANCH  19  20
ENDBRANCH  18  19
ENDBRANCH  17  18
ENDBRANCH  16  17
ENDBRANCH  14  16
ENDBRANCH  13  14
BRANCH  13  26
HETATM   26  N4  UNL     1      75.449  32.335  62.504  1.00  0.00    -0.324 N 
ATOM     27  H42 UNL     1      75.475  31.394  62.110  1.00  0.00     0.178 HD
ATOM     28  H41 UNL     1      74.571  32.813  62.701  1.00  0.00     0.178 HD
ENDBRANCH  13  26
ENDBRANCH   1  13
BRANCH  12  29
HETATM   29  N7  UNL     1      79.137  34.292  60.875  1.00  0.00    -0.061 N 
ATOM     30  H73 UNL     1      79.215  35.236  61.252  1.00  0.00     0.276 HD
ATOM     31  H72 UNL     1      79.569  33.771  61.638  1.00  0.00     0.276 HD
ATOM     32  H71 UNL     1      79.679  34.196  60.016  1.00  0.00     0.276 HD
ENDBRANCH  12  29
TORSDOF 11
ENDMDL
MODEL 5
REMARK VINA RESULT: -5.616056451      2.852      3.503
REMARK  11 active torsions:
REMARK  status: ('A' for Active; 'I' for Inactive)
REMARK    1  A    between atoms: N1_1  and  C1_5 
REMARK    2  A    between atoms: C1_5  and  C2_6 
REMARK    3  A    between atoms: C2_6  and  C3_7 
REMARK    4  A    between atoms: C3_7  and  C4_8 
REMARK    5  A    between atoms: C4_8  and  C5_9 
REMARK    6  A    between atoms: C5_9  and  C6_10 
REMARK    7  A    between atoms: C6_10  and  N2_11 
REMARK    8  A    between atoms: N2_11  and  N3_13 
REMARK    9  A    between atoms: N3_13  and  N4_14 
REMARK   10  A    between atoms: N3_13  and  C7_17 
REMARK   11  A    between atoms: C13_28  and  N7_29 
ROOT
HETATM    1  C7  UNL     1      77.211  32.470  61.819  1.00  0.00     0.105 C 
HETATM    2  C8  UNL     1      76.586  31.544  62.478  1.00  0.00     0.061 C 
HETATM    3  C9  UNL     1      76.083  30.263  61.918  1.00  0.00     0.267 C 
HETATM    4  O1  UNL     1      76.529  29.649  60.944  1.00  0.00    -0.266 OA
HETATM    5  N5  UNL     1      74.974  29.927  62.778  1.00  0.00    -0.269 N 
ATOM      6  H5  UNL     1      74.371  29.111  62.670  1.00  0.00     0.185 HD
HETATM    7  N6  UNL     1      74.852  30.899  63.789  1.00  0.00    -0.128 NA
HETATM    8  C10 UNL     1      76.194  31.444  63.884  1.00  0.00     0.141 C 
HETATM    9  C11 UNL     1      76.326  32.605  64.760  1.00  0.00     0.038 C 
HETATM   10  C12 UNL     1      75.529  33.823  64.370  1.00  0.00     0.078 C 
HETATM   11  S1  UNL     1      76.490  34.772  63.167  1.00  0.00    -0.130 SA
HETATM   12  C13 UNL     1      77.736  33.770  62.352  1.00  0.00     0.298 C 
ENDROOT
BRANCH   1  13
HETATM   13  N3  UNL     1      77.442  32.255  60.438  1.00  0.00    -0.208 N 
BRANCH  13  14
HETATM   14  N2  UNL     1      76.515  32.598  59.484  1.00  0.00    -0.316 N 
ATOM     15  H2  UNL     1      75.578  32.194  59.479  1.00  0.00     0.182 HD
BRANCH  14  16
HETATM   16  C6  UNL     1      76.924  33.548  58.500  1.00  0.00     0.141 C 
BRANCH  16  17
HETATM   17  C5  UNL     1      75.789  34.522  58.163  1.00  0.00     0.021 C 
BRANCH  17  18
HETATM   18  C4  UNL     1      75.687  35.527  59.295  1.00  0.00     0.002 C 
BRANCH  18  19
HETATM   19  C3  UNL     1      76.965  36.297  59.478  1.00  0.00     0.002 C 
BRANCH  19  20
HETATM   20  C2  UNL     1      76.673  37.678  60.019  1.00  0.00     0.027 C 
BRANCH  20  21
HETATM   21  C1  UNL     1      75.549  37.644  61.037  1.00  0.00     0.229 C 
BRANCH  21  22
HETATM   22  N1  UNL     1      74.797  38.887  61.012  1.00  0.00    -0.079 N 
ATOM     23  H13 UNL     1      73.829  38.749  61.303  1.00  0.00     0.274 HD
ATOM     24  H12 UNL     1      75.091  39.523  61.753  1.00  0.00     0.274 HD
ATOM     25  H11 UNL     1      74.857  39.324  60.092  1.00  0.00     0.274 HD
ENDBRANCH  21  22
ENDBRANCH  20  21
ENDBRANCH  19  20
ENDBRANCH  18  19
ENDBRANCH  17  18
ENDBRANCH  16  17
ENDBRANCH  14  16
ENDBRANCH  13  14
BRANCH  13  26
HETATM   26  N4  UNL     1      78.674  31.742  60.034  1.00  0.00    -0.324 N 
ATOM     27  H42 UNL     1      79.526  32.136  60.433  1.00  0.00     0.178 HD
ATOM     28  H41 UNL     1      78.700  31.021  59.313  1.00  0.00     0.178 HD
ENDBRANCH  13  26
ENDBRANCH   1  13
BRANCH  12  29
HETATM   29  N7  UNL     1      78.965  33.624  63.087  1.00  0.00    -0.061 N 
ATOM     30  H73 UNL     1      78.873  34.006  64.028  1.00  0.00     0.276 HD
ATOM     31  H72 UNL     1      79.135  32.645  63.320  1.00  0.00     0.276 HD
ATOM     32  H71 UNL     1      79.769  34.029  62.607  1.00  0.00     0.276 HD
ENDBRANCH  12  29
TORSDOF 11
ENDMDL
