MODEL 1
REMARK VINA RESULT: -5.927429907      0.000      0.000
REMARK  12 active torsions:
REMARK  status: ('A' for Active; 'I' for Inactive)
REMARK    1  A    between atoms: C2_2  and  C3_3 
REMARK    2  A    between atoms: C3_3  and  C4_4 
REMARK    3  A    between atoms: C4_4  and  C5_5 
REMARK    4  A    between atoms: C5_5  and  C6_6 
REMARK    5  A    between atoms: C6_6  and  N1_7 
REMARK    6  A    between atoms: C6_6  and  C7_11 
REMARK    7  A    between atoms: C8_13  and  O2_14 
REMARK    8  A    between atoms: O2_14  and  C9_15 
REMARK    9  A    between atoms: C10_16  and  N2_17 
REMARK   10  A    between atoms: C12_22  and  N3_23 
REMARK   11  A    between atoms: C14_28  and  N4_29 
REMARK   12  A    between atoms: C15_33  and  O3_34 
ROOT
HETATM    1  C9  UNL     1      79.020  31.860  65.555  1.00  0.00     0.185 C 
HETATM    2  C10 UNL     1      80.125  31.619  64.564  1.00  0.00     0.216 C 
HETATM    3  C11 UNL     1      81.146  30.628  65.069  1.00  0.00     0.068 C 
HETATM    4  C12 UNL     1      81.696  30.981  66.418  1.00  0.00     0.187 C 
HETATM    5  C13 UNL     1      80.991  32.122  67.074  1.00  0.00     0.068 C 
HETATM    6  C14 UNL     1      79.504  31.871  66.981  1.00  0.00     0.216 C 
ENDROOT
BRANCH   1   7
HETATM    7  O2  UNL     1      78.399  33.063  65.292  1.00  0.00    -0.349 OA
BRANCH   7   8
HETATM    8  C8  UNL     1      77.476  33.021  64.275  1.00  0.00     0.292 A 
HETATM    9  O1  UNL     1      77.802  33.864  63.190  1.00  0.00    -0.348 OA
HETATM   10  C7  UNL     1      76.706  34.667  63.365  1.00  0.00     0.188 A 
HETATM   11  C15 UNL     1      76.290  33.917  64.561  1.00  0.00     0.204 A 
BRANCH  10  12
HETATM   12  C6  UNL     1      75.772  34.676  62.169  1.00  0.00     0.215 C 
BRANCH  12  13
HETATM   13  C5  UNL     1      75.380  36.027  61.738  1.00  0.00     0.035 C 
BRANCH  13  14
HETATM   14  C4  UNL     1      75.619  37.073  62.768  1.00  0.00     0.002 C 
BRANCH  14  15
HETATM   15  C3  UNL     1      74.418  37.596  63.491  1.00  0.00    -0.000 C 
BRANCH  15  16
HETATM   16  C2  UNL     1      74.636  37.573  65.004  1.00  0.00    -0.005 C 
HETATM   17  C1  UNL     1      73.483  38.319  65.659  1.00  0.00     0.005 C 
ENDBRANCH  15  16
ENDBRANCH  14  15
ENDBRANCH  13  14
ENDBRANCH  12  13
BRANCH  12  18
HETATM   18  N1  UNL     1      76.196  33.733  61.181  1.00  0.00    -0.072 N 
ATOM     19  H13 UNL     1      75.464  33.034  61.057  1.00  0.00     0.274 HD
ATOM     20  H12 UNL     1      76.193  34.187  60.268  1.00  0.00     0.274 HD
ATOM     21  H11 UNL     1      77.089  33.255  61.308  1.00  0.00     0.274 HD
ENDBRANCH  12  18
ENDBRANCH  10  12
BRANCH  11  22
HETATM   22  O3  UNL     1      75.063  33.317  64.591  1.00  0.00    -0.388 OA
ATOM     23  H3  UNL     1      74.370  33.689  65.124  1.00  0.00     0.210 HD
ENDBRANCH  11  22
ENDBRANCH   7   8
ENDBRANCH   1   7
BRANCH   2  24
HETATM   24  N2  UNL     1      80.750  32.865  64.125  1.00  0.00    -0.072 N 
ATOM     25  H23 UNL     1      80.696  33.581  64.850  1.00  0.00     0.274 HD
ATOM     26  H22 UNL     1      81.764  32.771  64.068  1.00  0.00     0.274 HD
ATOM     27  H21 UNL     1      80.360  33.200  63.245  1.00  0.00     0.274 HD
ENDBRANCH   2  24
BRANCH   6  28
HETATM   28  N4  UNL     1      78.849  32.898  67.775  1.00  0.00    -0.072 N 
ATOM     29  H43 UNL     1      79.298  33.804  67.649  1.00  0.00     0.274 HD
ATOM     30  H42 UNL     1      77.926  33.120  67.402  1.00  0.00     0.274 HD
ATOM     31  H41 UNL     1      78.796  32.646  68.762  1.00  0.00     0.274 HD
ENDBRANCH   6  28
BRANCH   4  32
HETATM   32  N3  UNL     1      81.591  29.793  67.257  1.00  0.00    -0.075 N 
ATOM     33  H33 UNL     1      81.356  28.952  66.729  1.00  0.00     0.274 HD
ATOM     34  H32 UNL     1      82.493  29.478  67.615  1.00  0.00     0.274 HD
ATOM     35  H31 UNL     1      80.920  29.999  67.997  1.00  0.00     0.274 HD
ENDBRANCH   4  32
TORSDOF 12
ENDMDL
MODEL 2
REMARK VINA RESULT: -5.798784626      1.309      2.094
REMARK  12 active torsions:
REMARK  status: ('A' for Active; 'I' for Inactive)
REMARK    1  A    between atoms: C2_2  and  C3_3 
REMARK    2  A    between atoms: C3_3  and  C4_4 
REMARK    3  A    between atoms: C4_4  and  C5_5 
REMARK    4  A    between atoms: C5_5  and  C6_6 
REMARK    5  A    between atoms: C6_6  and  N1_7 
REMARK    6  A    between atoms: C6_6  and  C7_11 
REMARK    7  A    between atoms: C8_13  and  O2_14 
REMARK    8  A    between atoms: O2_14  and  C9_15 
REMARK    9  A    between atoms: C10_16  and  N2_17 
REMARK   10  A    between atoms: C12_22  and  N3_23 
REMARK   11  A    between atoms: C14_28  and  N4_29 
REMARK   12  A    between atoms: C15_33  and  O3_34 
ROOT
HETATM    1  C9  UNL     1      78.798  32.541  64.839  1.00  0.00     0.185 C 
HETATM    2  C10 UNL     1      78.854  32.214  66.307  1.00  0.00     0.216 C 
HETATM    3  C11 UNL     1      80.206  32.507  66.911  1.00  0.00     0.068 C 
HETATM    4  C12 UNL     1      81.338  31.864  66.169  1.00  0.00     0.187 C 
HETATM    5  C13 UNL     1      80.928  31.230  64.881  1.00  0.00     0.068 C 
HETATM    6  C14 UNL     1      80.080  32.221  64.117  1.00  0.00     0.216 C 
ENDROOT
BRANCH   1   7
HETATM    7  O2  UNL     1      77.769  31.849  64.237  1.00  0.00    -0.349 OA
BRANCH   7   8
HETATM    8  C8  UNL     1      76.769  32.639  63.724  1.00  0.00     0.292 A 
HETATM    9  O1  UNL     1      77.105  33.233  62.488  1.00  0.00    -0.348 OA
HETATM   10  C7  UNL     1      77.060  34.509  62.982  1.00  0.00     0.188 A 
HETATM   11  C15 UNL     1      76.778  34.021  64.342  1.00  0.00     0.204 A 
BRANCH  10  12
HETATM   12  C6  UNL     1      76.016  35.378  62.307  1.00  0.00     0.215 C 
BRANCH  12  13
HETATM   13  C5  UNL     1      76.339  36.813  62.331  1.00  0.00     0.035 C 
BRANCH  13  14
HETATM   14  C4  UNL     1      75.139  37.692  62.349  1.00  0.00     0.002 C 
BRANCH  14  15
HETATM   15  C3  UNL     1      74.122  37.426  63.414  1.00  0.00    -0.000 C 
BRANCH  15  16
HETATM   16  C2  UNL     1      74.653  37.823  64.791  1.00  0.00    -0.005 C 
HETATM   17  C1  UNL     1      73.469  38.241  65.651  1.00  0.00     0.005 C 
ENDBRANCH  15  16
ENDBRANCH  14  15
ENDBRANCH  13  14
ENDBRANCH  12  13
BRANCH  12  18
HETATM   18  N1  UNL     1      75.578  34.790  61.078  1.00  0.00    -0.072 N 
ATOM     19  H13 UNL     1      76.394  34.486  60.549  1.00  0.00     0.274 HD
ATOM     20  H12 UNL     1      75.129  33.897  61.281  1.00  0.00     0.274 HD
ATOM     21  H11 UNL     1      74.969  35.331  60.463  1.00  0.00     0.274 HD
ENDBRANCH  12  18
ENDBRANCH  10  12
BRANCH  11  22
HETATM   22  O3  UNL     1      75.635  34.414  64.979  1.00  0.00    -0.388 OA
ATOM     23  H3  UNL     1      74.897  33.818  65.032  1.00  0.00     0.210 HD
ENDBRANCH  11  22
ENDBRANCH   7   8
ENDBRANCH   1   7
BRANCH   2  24
HETATM   24  N2  UNL     1      78.424  30.844  66.579  1.00  0.00    -0.072 N 
ATOM     25  H23 UNL     1      77.426  30.728  66.405  1.00  0.00     0.274 HD
ATOM     26  H22 UNL     1      78.786  30.197  65.879  1.00  0.00     0.274 HD
ATOM     27  H21 UNL     1      78.672  30.546  67.523  1.00  0.00     0.274 HD
ENDBRANCH   2  24
BRANCH   6  28
HETATM   28  N4  UNL     1      79.842  31.653  62.801  1.00  0.00    -0.072 N 
ATOM     29  H43 UNL     1      78.878  31.804  62.503  1.00  0.00     0.274 HD
ATOM     30  H42 UNL     1      80.321  32.187  62.077  1.00  0.00     0.274 HD
ATOM     31  H41 UNL     1      80.091  30.665  62.756  1.00  0.00     0.274 HD
ENDBRANCH   6  28
BRANCH   4  32
HETATM   32  N3  UNL     1      82.335  32.897  65.910  1.00  0.00    -0.075 N 
ATOM     33  H33 UNL     1      82.268  33.684  66.556  1.00  0.00     0.274 HD
ATOM     34  H32 UNL     1      83.281  32.605  66.152  1.00  0.00     0.274 HD
ATOM     35  H31 UNL     1      82.242  33.174  64.933  1.00  0.00     0.274 HD
ENDBRANCH   4  32
TORSDOF 12
ENDMDL
MODEL 3
REMARK VINA RESULT: -5.616731217      1.330      2.216
REMARK  12 active torsions:
REMARK  status: ('A' for Active; 'I' for Inactive)
REMARK    1  A    between atoms: C2_2  and  C3_3 
REMARK    2  A    between atoms: C3_3  and  C4_4 
REMARK    3  A    between atoms: C4_4  and  C5_5 
REMARK    4  A    between atoms: C5_5  and  C6_6 
REMARK    5  A    between atoms: C6_6  and  N1_7 
REMARK    6  A    between atoms: C6_6  and  C7_11 
REMARK    7  A    between atoms: C8_13  and  O2_14 
REMARK    8  A    between atoms: O2_14  and  C9_15 
REMARK    9  A    between atoms: C10_16  and  N2_17 
REMARK   10  A    between atoms: C12_22  and  N3_23 
REMARK   11  A    between atoms: C14_28  and  N4_29 
REMARK   12  A    between atoms: C15_33  and  O3_34 
ROOT
HETATM    1  C9  UNL     1      79.550  32.058  65.820  1.00  0.00     0.185 C 
HETATM    2  C10 UNL     1      79.970  31.756  67.233  1.00  0.00     0.216 C 
HETATM    3  C11 UNL     1      81.360  32.259  67.540  1.00  0.00     0.068 C 
HETATM    4  C12 UNL     1      82.389  31.792  66.556  1.00  0.00     0.187 C 
HETATM    5  C13 UNL     1      81.812  31.091  65.370  1.00  0.00     0.068 C 
HETATM    6  C14 UNL     1      80.679  31.933  64.832  1.00  0.00     0.216 C 
ENDROOT
BRANCH   1   7
HETATM    7  O2  UNL     1      78.532  31.210  65.435  1.00  0.00    -0.349 OA
BRANCH   7   8
HETATM    8  C8  UNL     1      77.379  31.842  65.037  1.00  0.00     0.292 A 
HETATM    9  O1  UNL     1      77.388  32.212  63.674  1.00  0.00    -0.348 OA
HETATM   10  C7  UNL     1      77.336  33.553  63.942  1.00  0.00     0.188 A 
HETATM   11  C15 UNL     1      77.397  33.312  65.394  1.00  0.00     0.204 A 
BRANCH  10  12
HETATM   12  C6  UNL     1      76.098  34.230  63.384  1.00  0.00     0.215 C 
BRANCH  12  13
HETATM   13  C5  UNL     1      76.209  35.696  63.312  1.00  0.00     0.035 C 
BRANCH  13  14
HETATM   14  C4  UNL     1      75.106  36.339  62.549  1.00  0.00     0.002 C 
BRANCH  14  15
HETATM   15  C3  UNL     1      74.367  37.446  63.233  1.00  0.00    -0.000 C 
BRANCH  15  16
HETATM   16  C2  UNL     1      74.758  37.536  64.708  1.00  0.00    -0.005 C 
HETATM   17  C1  UNL     1      73.609  38.191  65.461  1.00  0.00     0.005 C 
ENDBRANCH  15  16
ENDBRANCH  14  15
ENDBRANCH  13  14
ENDBRANCH  12  13
BRANCH  12  18
HETATM   18  N1  UNL     1      75.594  33.520  62.249  1.00  0.00    -0.072 N 
ATOM     19  H13 UNL     1      74.741  33.977  61.928  1.00  0.00     0.274 HD
ATOM     20  H12 UNL     1      76.216  33.681  61.457  1.00  0.00     0.274 HD
ATOM     21  H11 UNL     1      75.421  32.518  62.333  1.00  0.00     0.274 HD
ENDBRANCH  12  18
ENDBRANCH  10  12
BRANCH  11  22
HETATM   22  O3  UNL     1      76.386  33.759  66.197  1.00  0.00    -0.388 OA
ATOM     23  H3  UNL     1      76.248  34.693  66.304  1.00  0.00     0.210 HD
ENDBRANCH  11  22
ENDBRANCH   7   8
ENDBRANCH   1   7
BRANCH   2  24
HETATM   24  N2  UNL     1      79.823  30.338  67.557  1.00  0.00    -0.072 N 
ATOM     25  H23 UNL     1      79.046  30.184  68.198  1.00  0.00     0.274 HD
ATOM     26  H22 UNL     1      79.478  29.810  66.756  1.00  0.00     0.274 HD
ATOM     27  H21 UNL     1      80.688  29.937  67.919  1.00  0.00     0.274 HD
ENDBRANCH   2  24
BRANCH   6  28
HETATM   28  N4  UNL     1      80.252  31.323  63.584  1.00  0.00    -0.072 N 
ATOM     29  H43 UNL     1      79.848  32.017  62.954  1.00  0.00     0.274 HD
ATOM     30  H42 UNL     1      81.052  31.038  63.020  1.00  0.00     0.274 HD
ATOM     31  H41 UNL     1      79.611  30.545  63.734  1.00  0.00     0.274 HD
ENDBRANCH   6  28
BRANCH   4  32
HETATM   32  N3  UNL     1      83.137  32.964  66.115  1.00  0.00    -0.075 N 
ATOM     33  H33 UNL     1      83.452  32.894  65.147  1.00  0.00     0.274 HD
ATOM     34  H32 UNL     1      82.552  33.792  66.006  1.00  0.00     0.274 HD
ATOM     35  H31 UNL     1      83.904  33.103  66.774  1.00  0.00     0.274 HD
ENDBRANCH   4  32
TORSDOF 12
ENDMDL
MODEL 4
REMARK VINA RESULT: -5.593347733      1.623      2.321
REMARK  12 active torsions:
REMARK  status: ('A' for Active; 'I' for Inactive)
REMARK    1  A    between atoms: C2_2  and  C3_3 
REMARK    2  A    between atoms: C3_3  and  C4_4 
REMARK    3  A    between atoms: C4_4  and  C5_5 
REMARK    4  A    between atoms: C5_5  and  C6_6 
REMARK    5  A    between atoms: C6_6  and  N1_7 
REMARK    6  A    between atoms: C6_6  and  C7_11 
REMARK    7  A    between atoms: C8_13  and  O2_14 
REMARK    8  A    between atoms: O2_14  and  C9_15 
REMARK    9  A    between atoms: C10_16  and  N2_17 
REMARK   10  A    between atoms: C12_22  and  N3_23 
REMARK   11  A    between atoms: C14_28  and  N4_29 
REMARK   12  A    between atoms: C15_33  and  O3_34 
ROOT
HETATM    1  C9  UNL     1      79.286  32.299  64.814  1.00  0.00     0.185 C 
HETATM    2  C10 UNL     1      78.474  32.505  66.064  1.00  0.00     0.216 C 
HETATM    3  C11 UNL     1      79.338  32.712  67.284  1.00  0.00     0.068 C 
HETATM    4  C12 UNL     1      80.362  31.634  67.474  1.00  0.00     0.187 C 
HETATM    5  C13 UNL     1      80.453  30.684  66.325  1.00  0.00     0.068 C 
HETATM    6  C14 UNL     1      80.535  31.492  65.052  1.00  0.00     0.216 C 
ENDROOT
BRANCH   1   7
HETATM    7  O2  UNL     1      78.527  31.663  63.854  1.00  0.00    -0.349 OA
BRANCH   7   8
HETATM    8  C8  UNL     1      78.252  32.424  62.744  1.00  0.00     0.292 A 
HETATM    9  O1  UNL     1      78.202  33.808  63.014  1.00  0.00    -0.348 OA
HETATM   10  C7  UNL     1      76.874  33.917  62.697  1.00  0.00     0.188 A 
HETATM   11  C15 UNL     1      76.767  32.469  62.453  1.00  0.00     0.204 A 
BRANCH  10  12
HETATM   12  C6  UNL     1      76.610  34.857  61.535  1.00  0.00     0.215 C 
BRANCH  12  13
HETATM   13  C5  UNL     1      75.341  35.594  61.651  1.00  0.00     0.035 C 
BRANCH  13  14
HETATM   14  C4  UNL     1      75.514  37.013  62.061  1.00  0.00     0.002 C 
BRANCH  14  15
HETATM   15  C3  UNL     1      75.399  37.314  63.522  1.00  0.00    -0.000 C 
BRANCH  15  16
HETATM   16  C2  UNL     1      73.958  37.661  63.898  1.00  0.00    -0.005 C 
HETATM   17  C1  UNL     1      73.943  38.099  65.355  1.00  0.00     0.005 C 
ENDBRANCH  15  16
ENDBRANCH  14  15
ENDBRANCH  13  14
ENDBRANCH  12  13
BRANCH  12  18
HETATM   18  N1  UNL     1      77.794  35.574  61.177  1.00  0.00    -0.072 N 
ATOM     19  H13 UNL     1      77.541  36.538  60.960  1.00  0.00     0.274 HD
ATOM     20  H12 UNL     1      78.367  35.703  62.011  1.00  0.00     0.274 HD
ATOM     21  H11 UNL     1      78.382  35.210  60.427  1.00  0.00     0.274 HD
ENDBRANCH  12  18
ENDBRANCH  10  12
BRANCH  11  22
HETATM   22  O3  UNL     1      76.370  32.017  61.226  1.00  0.00    -0.388 OA
ATOM     23  H3  UNL     1      75.947  31.169  61.151  1.00  0.00     0.210 HD
ENDBRANCH  11  22
ENDBRANCH   7   8
ENDBRANCH   1   7
BRANCH   2  24
HETATM   24  N2  UNL     1      77.498  31.436  66.266  1.00  0.00    -0.072 N 
ATOM     25  H23 UNL     1      76.556  31.811  66.375  1.00  0.00     0.274 HD
ATOM     26  H22 UNL     1      77.358  30.897  65.411  1.00  0.00     0.274 HD
ATOM     27  H21 UNL     1      77.749  30.832  67.048  1.00  0.00     0.274 HD
ENDBRANCH   2  24
BRANCH   6  28
HETATM   28  N4  UNL     1      80.799  30.558  63.970  1.00  0.00    -0.072 N 
ATOM     29  H43 UNL     1      79.956  30.376  63.426  1.00  0.00     0.274 HD
ATOM     30  H42 UNL     1      81.372  30.988  63.244  1.00  0.00     0.274 HD
ATOM     31  H41 UNL     1      81.218  29.690  64.304  1.00  0.00     0.274 HD
ENDBRANCH   6  28
BRANCH   4  32
HETATM   32  N3  UNL     1      81.651  32.284  67.675  1.00  0.00    -0.075 N 
ATOM     33  H33 UNL     1      82.158  32.440  66.803  1.00  0.00     0.274 HD
ATOM     34  H32 UNL     1      81.565  33.261  67.955  1.00  0.00     0.274 HD
ATOM     35  H31 UNL     1      82.176  31.723  68.346  1.00  0.00     0.274 HD
ENDBRANCH   4  32
TORSDOF 12
ENDMDL
MODEL 5
REMARK VINA RESULT: -5.539071514      3.067      6.714
REMARK  12 active torsions:
REMARK  status: ('A' for Active; 'I' for Inactive)
REMARK    1  A    between atoms: C2_2  and  C3_3 
REMARK    2  A    between atoms: C3_3  and  C4_4 
REMARK    3  A    between atoms: C4_4  and  C5_5 
REMARK    4  A    between atoms: C5_5  and  C6_6 
REMARK    5  A    between atoms: C6_6  and  N1_7 
REMARK    6  A    between atoms: C6_6  and  C7_11 
REMARK    7  A    between atoms: C8_13  and  O2_14 
REMARK    8  A    between atoms: O2_14  and  C9_15 
REMARK    9  A    between atoms: C10_16  and  N2_17 
REMARK   10  A    between atoms: C12_22  and  N3_23 
REMARK   11  A    between atoms: C14_28  and  N4_29 
REMARK   12  A    between atoms: C15_33  and  O3_34 
ROOT
HETATM    1  C9  UNL     1      76.967  35.206  60.862  1.00  0.00     0.185 C 
HETATM    2  C10 UNL     1      76.718  35.045  59.387  1.00  0.00     0.216 C 
HETATM    3  C11 UNL     1      77.414  36.103  58.566  1.00  0.00     0.068 C 
HETATM    4  C12 UNL     1      77.109  37.499  59.018  1.00  0.00     0.187 C 
HETATM    5  C13 UNL     1      76.341  37.561  60.298  1.00  0.00     0.068 C 
HETATM    6  C14 UNL     1      77.014  36.648  61.295  1.00  0.00     0.216 C 
ENDROOT
BRANCH   1   7
HETATM    7  O2  UNL     1      75.984  34.562  61.584  1.00  0.00    -0.349 OA
BRANCH   7   8
HETATM    8  C8  UNL     1      76.374  33.370  62.146  1.00  0.00     0.292 A 
HETATM    9  O1  UNL     1      75.968  33.228  63.490  1.00  0.00    -0.348 OA
HETATM   10  C7  UNL     1      77.249  33.203  63.972  1.00  0.00     0.188 A 
HETATM   11  C15 UNL     1      77.807  33.423  62.627  1.00  0.00     0.204 A 
BRANCH  10  12
HETATM   12  C6  UNL     1      77.598  31.909  64.684  1.00  0.00     0.215 C 
BRANCH  12  13
HETATM   13  C5  UNL     1      78.706  32.044  65.642  1.00  0.00     0.035 C 
BRANCH  13  14
HETATM   14  C4  UNL     1      78.784  33.386  66.277  1.00  0.00     0.002 C 
BRANCH  14  15
HETATM   15  C3  UNL     1      78.242  33.510  67.667  1.00  0.00    -0.000 C 
BRANCH  15  16
HETATM   16  C2  UNL     1      76.740  33.788  67.645  1.00  0.00    -0.005 C 
HETATM   17  C1  UNL     1      76.367  34.464  68.957  1.00  0.00     0.005 C 
ENDBRANCH  15  16
ENDBRANCH  14  15
ENDBRANCH  13  14
ENDBRANCH  12  13
BRANCH  12  18
HETATM   18  N1  UNL     1      76.415  31.215  65.091  1.00  0.00    -0.072 N 
ATOM     19  H13 UNL     1      76.560  30.214  64.962  1.00  0.00     0.274 HD
ATOM     20  H12 UNL     1      76.331  31.273  66.106  1.00  0.00     0.274 HD
ATOM     21  H11 UNL     1      75.522  31.475  64.672  1.00  0.00     0.274 HD
ENDBRANCH  12  18
ENDBRANCH  10  12
BRANCH  11  22
HETATM   22  O3  UNL     1      78.667  32.505  62.092  1.00  0.00    -0.388 OA
ATOM     23  H3  UNL     1      78.811  32.487  61.154  1.00  0.00     0.210 HD
ENDBRANCH  11  22
ENDBRANCH   7   8
ENDBRANCH   1   7
BRANCH   2  24
HETATM   24  N2  UNL     1      75.291  34.970  59.078  1.00  0.00    -0.072 N 
ATOM     25  H23 UNL     1      74.827  34.258  59.641  1.00  0.00     0.274 HD
ATOM     26  H22 UNL     1      74.796  35.793  59.419  1.00  0.00     0.274 HD
ATOM     27  H21 UNL     1      75.123  34.822  58.083  1.00  0.00     0.274 HD
ENDBRANCH   2  24
BRANCH   6  28
HETATM   28  N4  UNL     1      76.360  36.858  62.575  1.00  0.00    -0.072 N 
ATOM     29  H43 UNL     1      76.369  36.008  63.138  1.00  0.00     0.274 HD
ATOM     30  H42 UNL     1      76.918  37.459  63.180  1.00  0.00     0.274 HD
ATOM     31  H41 UNL     1      75.412  37.221  62.469  1.00  0.00     0.274 HD
ENDBRANCH   6  28
BRANCH   4  32
HETATM   32  N3  UNL     1      78.379  38.196  59.175  1.00  0.00    -0.075 N 
ATOM     33  H33 UNL     1      78.648  38.319  60.152  1.00  0.00     0.274 HD
ATOM     34  H32 UNL     1      79.180  37.635  58.886  1.00  0.00     0.274 HD
ATOM     35  H31 UNL     1      78.309  39.079  58.669  1.00  0.00     0.274 HD
ENDBRANCH   4  32
TORSDOF 12
ENDMDL
