MODEL 1
REMARK VINA RESULT: -6.089354494      0.000      0.000
REMARK  11 active torsions:
REMARK  status: ('A' for Active; 'I' for Inactive)
REMARK    1  A    between atoms: O1_1  and  C1_3 
REMARK    2  A    between atoms: C2_6  and  C3_7 
REMARK    3  A    between atoms: C3_7  and  N2_8 
REMARK    4  A    between atoms: N2_8  and  C4_10 
REMARK    5  A    between atoms: C4_10  and  C5_11 
REMARK    6  A    between atoms: C5_11  and  C6_12 
REMARK    7  A    between atoms: C6_12  and  C7_13 
REMARK    8  A    between atoms: C7_13  and  N3_14 
REMARK    9  A    between atoms: C13_20  and  O2_21 
REMARK   10  A    between atoms: C14_23  and  O3_24 
REMARK   11  A    between atoms: C15_26  and  O4_27 
ROOT
HETATM    1  C1  UNL     1      76.353  37.518  60.374  1.00  0.00     0.245 C 
HETATM    2  N1  UNL     1      77.336  36.746  61.081  1.00  0.00    -0.386 N 
ATOM      3  H1  UNL     1      78.336  36.920  60.979  1.00  0.00     0.156 HD
HETATM    4  C2  UNL     1      76.830  35.721  61.932  1.00  0.00     0.128 C 
HETATM    5  C13 UNL     1      75.477  35.956  62.500  1.00  0.00     0.173 C 
HETATM    6  C14 UNL     1      74.895  37.308  62.367  1.00  0.00     0.181 C 
HETATM    7  C15 UNL     1      75.508  38.237  61.381  1.00  0.00     0.197 C 
ENDROOT
BRANCH   4   8
HETATM    8  C3  UNL     1      76.806  34.387  61.174  1.00  0.00     0.146 C 
BRANCH   8   9
HETATM    9  N2  UNL     1      75.914  33.452  61.763  1.00  0.00    -0.400 N 
ATOM     10  H2  UNL     1      74.977  33.730  62.052  1.00  0.00     0.158 HD
BRANCH   9  11
HETATM   11  C4  UNL     1      76.360  32.145  61.932  1.00  0.00     0.055 C 
BRANCH  11  12
HETATM   12  C5  UNL     1      75.654  31.247  62.871  1.00  0.00     0.046 C 
BRANCH  12  13
HETATM   13  C6  UNL     1      76.147  31.228  64.280  1.00  0.00     0.025 C 
BRANCH  13  14
HETATM   14  C7  UNL     1      75.870  32.606  64.904  1.00  0.00     0.127 C 
BRANCH  14  15
HETATM   15  N3  UNL     1      76.938  33.132  65.623  1.00  0.00    -0.374 N 
HETATM   16  C8  UNL     1      78.157  33.407  64.990  1.00  0.00     0.063 C 
HETATM   17  C9  UNL     1      79.382  32.927  65.727  1.00  0.00     0.045 C 
HETATM   18  C10 UNL     1      79.245  32.889  67.209  1.00  0.00     0.010 C 
HETATM   19  C11 UNL     1      78.112  33.758  67.672  1.00  0.00     0.045 C 
HETATM   20  C12 UNL     1      76.803  33.382  66.999  1.00  0.00     0.063 C 
ENDBRANCH  14  15
ENDBRANCH  13  14
ENDBRANCH  12  13
ENDBRANCH  11  12
ENDBRANCH   9  11
ENDBRANCH   8   9
ENDBRANCH   4   8
BRANCH   5  21
HETATM   21  O2  UNL     1      75.554  35.666  63.889  1.00  0.00    -0.391 OA
ATOM     22  H2  UNL     1      74.724  35.274  64.137  1.00  0.00     0.210 HD
ENDBRANCH   5  21
BRANCH   1  23
HETATM   23  O1  UNL     1      75.566  36.746  59.514  1.00  0.00    -0.374 OA
ATOM     24  H1  UNL     1      75.879  36.754  58.617  1.00  0.00     0.212 HD
ENDBRANCH   1  23
BRANCH   6  25
HETATM   25  O3  UNL     1      74.801  37.953  63.621  1.00  0.00    -0.390 OA
ATOM     26  H3  UNL     1      74.284  37.443  64.234  1.00  0.00     0.210 HD
ENDBRANCH   6  25
BRANCH   7  27
HETATM   27  O4  UNL     1      74.532  38.999  60.700  1.00  0.00    -0.389 OA
ATOM     28  H4  UNL     1      73.671  38.747  61.012  1.00  0.00     0.210 HD
ENDBRANCH   7  27
TORSDOF 11
ENDMDL
MODEL 2
REMARK VINA RESULT: -6.034719895      0.942      1.540
REMARK  11 active torsions:
REMARK  status: ('A' for Active; 'I' for Inactive)
REMARK    1  A    between atoms: O1_1  and  C1_3 
REMARK    2  A    between atoms: C2_6  and  C3_7 
REMARK    3  A    between atoms: C3_7  and  N2_8 
REMARK    4  A    between atoms: N2_8  and  C4_10 
REMARK    5  A    between atoms: C4_10  and  C5_11 
REMARK    6  A    between atoms: C5_11  and  C6_12 
REMARK    7  A    between atoms: C6_12  and  C7_13 
REMARK    8  A    between atoms: C7_13  and  N3_14 
REMARK    9  A    between atoms: C13_20  and  O2_21 
REMARK   10  A    between atoms: C14_23  and  O3_24 
REMARK   11  A    between atoms: C15_26  and  O4_27 
ROOT
HETATM    1  C1  UNL     1      76.288  37.375  60.721  1.00  0.00     0.245 C 
HETATM    2  N1  UNL     1      77.211  36.536  61.433  1.00  0.00    -0.386 N 
ATOM      3  H1  UNL     1      78.221  36.652  61.351  1.00  0.00     0.156 HD
HETATM    4  C2  UNL     1      76.630  35.532  62.260  1.00  0.00     0.128 C 
HETATM    5  C13 UNL     1      75.284  35.838  62.808  1.00  0.00     0.173 C 
HETATM    6  C14 UNL     1      74.785  37.224  62.684  1.00  0.00     0.181 C 
HETATM    7  C15 UNL     1      75.469  38.129  61.723  1.00  0.00     0.197 C 
ENDROOT
BRANCH   4   8
HETATM    8  C3  UNL     1      76.542  34.212  61.482  1.00  0.00     0.146 C 
BRANCH   8   9
HETATM    9  N2  UNL     1      75.813  33.221  62.191  1.00  0.00    -0.400 N 
ATOM     10  H2  UNL     1      74.944  33.450  62.672  1.00  0.00     0.158 HD
BRANCH   9  11
HETATM   11  C4  UNL     1      76.324  31.926  62.209  1.00  0.00     0.055 C 
BRANCH  11  12
HETATM   12  C5  UNL     1      77.757  31.701  61.930  1.00  0.00     0.046 C 
BRANCH  12  13
HETATM   13  C6  UNL     1      78.627  31.381  63.102  1.00  0.00     0.025 C 
BRANCH  13  14
HETATM   14  C7  UNL     1      78.910  32.688  63.860  1.00  0.00     0.127 C 
BRANCH  14  15
HETATM   15  N3  UNL     1      78.625  32.632  65.219  1.00  0.00    -0.374 N 
HETATM   16  C8  UNL     1      77.315  32.413  65.664  1.00  0.00     0.063 C 
HETATM   17  C9  UNL     1      76.854  33.328  66.771  1.00  0.00     0.045 C 
HETATM   18  C10 UNL     1      77.934  33.803  67.679  1.00  0.00     0.010 C 
HETATM   19  C11 UNL     1      79.146  32.922  67.588  1.00  0.00     0.045 C 
HETATM   20  C12 UNL     1      79.653  32.807  66.161  1.00  0.00     0.063 C 
ENDBRANCH  14  15
ENDBRANCH  13  14
ENDBRANCH  12  13
ENDBRANCH  11  12
ENDBRANCH   9  11
ENDBRANCH   8   9
ENDBRANCH   4   8
BRANCH   5  21
HETATM   21  O2  UNL     1      75.318  35.526  64.194  1.00  0.00    -0.391 OA
ATOM     22  H2  UNL     1      74.584  34.948  64.367  1.00  0.00     0.210 HD
ENDBRANCH   5  21
BRANCH   1  23
HETATM   23  O1  UNL     1      75.472  36.662  59.835  1.00  0.00    -0.374 OA
ATOM     24  H1  UNL     1      75.591  36.923  58.930  1.00  0.00     0.212 HD
ENDBRANCH   1  23
BRANCH   6  25
HETATM   25  O3  UNL     1      74.706  37.857  63.947  1.00  0.00    -0.390 OA
ATOM     26  H3  UNL     1      73.875  38.303  64.058  1.00  0.00     0.210 HD
ENDBRANCH   6  25
BRANCH   7  27
HETATM   27  O4  UNL     1      74.552  38.957  61.036  1.00  0.00    -0.389 OA
ATOM     28  H4  UNL     1      74.762  39.865  61.215  1.00  0.00     0.210 HD
ENDBRANCH   7  27
TORSDOF 11
ENDMDL
MODEL 3
REMARK VINA RESULT: -6.017066281      1.200      1.730
REMARK  11 active torsions:
REMARK  status: ('A' for Active; 'I' for Inactive)
REMARK    1  A    between atoms: O1_1  and  C1_3 
REMARK    2  A    between atoms: C2_6  and  C3_7 
REMARK    3  A    between atoms: C3_7  and  N2_8 
REMARK    4  A    between atoms: N2_8  and  C4_10 
REMARK    5  A    between atoms: C4_10  and  C5_11 
REMARK    6  A    between atoms: C5_11  and  C6_12 
REMARK    7  A    between atoms: C6_12  and  C7_13 
REMARK    8  A    between atoms: C7_13  and  N3_14 
REMARK    9  A    between atoms: C13_20  and  O2_21 
REMARK   10  A    between atoms: C14_23  and  O3_24 
REMARK   11  A    between atoms: C15_26  and  O4_27 
ROOT
HETATM    1  C1  UNL     1      76.246  37.315  60.758  1.00  0.00     0.245 C 
HETATM    2  N1  UNL     1      77.164  36.508  61.511  1.00  0.00    -0.386 N 
ATOM      3  H1  UNL     1      78.175  36.609  61.416  1.00  0.00     0.156 HD
HETATM    4  C2  UNL     1      76.579  35.559  62.398  1.00  0.00     0.128 C 
HETATM    5  C13 UNL     1      75.240  35.911  62.936  1.00  0.00     0.173 C 
HETATM    6  C14 UNL     1      74.754  37.292  62.737  1.00  0.00     0.181 C 
HETATM    7  C15 UNL     1      75.441  38.133  61.721  1.00  0.00     0.197 C 
ENDROOT
BRANCH   4   8
HETATM    8  C3  UNL     1      76.472  34.198  61.697  1.00  0.00     0.146 C 
BRANCH   8   9
HETATM    9  N2  UNL     1      75.813  33.232  62.502  1.00  0.00    -0.400 N 
ATOM     10  H2  UNL     1      74.796  33.220  62.584  1.00  0.00     0.158 HD
BRANCH   9  11
HETATM   11  C4  UNL     1      76.598  32.302  63.177  1.00  0.00     0.055 C 
BRANCH  11  12
HETATM   12  C5  UNL     1      76.017  31.525  64.291  1.00  0.00     0.046 C 
BRANCH  12  13
HETATM   13  C6  UNL     1      76.795  31.494  65.566  1.00  0.00     0.025 C 
BRANCH  13  14
HETATM   14  C7  UNL     1      77.752  32.698  65.572  1.00  0.00     0.127 C 
BRANCH  14  15
HETATM   15  N3  UNL     1      79.079  32.370  65.830  1.00  0.00    -0.374 N 
HETATM   16  C8  UNL     1      79.424  31.081  66.258  1.00  0.00     0.063 C 
HETATM   17  C9  UNL     1      80.380  31.030  67.424  1.00  0.00     0.045 C 
HETATM   18  C10 UNL     1      81.326  32.177  67.507  1.00  0.00     0.010 C 
HETATM   19  C11 UNL     1      81.440  32.883  66.188  1.00  0.00     0.045 C 
HETATM   20  C12 UNL     1      80.085  33.337  65.673  1.00  0.00     0.063 C 
ENDBRANCH  14  15
ENDBRANCH  13  14
ENDBRANCH  12  13
ENDBRANCH  11  12
ENDBRANCH   9  11
ENDBRANCH   8   9
ENDBRANCH   4   8
BRANCH   5  21
HETATM   21  O2  UNL     1      75.280  35.677  64.337  1.00  0.00    -0.391 OA
ATOM     22  H2  UNL     1      74.433  35.928  64.685  1.00  0.00     0.210 HD
ENDBRANCH   5  21
BRANCH   1  23
HETATM   23  O1  UNL     1      75.416  36.561  59.920  1.00  0.00    -0.374 OA
ATOM     24  H1  UNL     1      74.562  36.956  59.790  1.00  0.00     0.212 HD
ENDBRANCH   1  23
BRANCH   6  25
HETATM   25  O3  UNL     1      74.691  37.996  63.961  1.00  0.00    -0.390 OA
ATOM     26  H3  UNL     1      75.536  38.010  64.396  1.00  0.00     0.210 HD
ENDBRANCH   6  25
BRANCH   7  27
HETATM   27  O4  UNL     1      74.528  38.930  60.994  1.00  0.00    -0.389 OA
ATOM     28  H4  UNL     1      73.892  38.364  60.573  1.00  0.00     0.210 HD
ENDBRANCH   7  27
TORSDOF 11
ENDMDL
MODEL 4
REMARK VINA RESULT: -6.005538779      0.995      2.156
REMARK  11 active torsions:
REMARK  status: ('A' for Active; 'I' for Inactive)
REMARK    1  A    between atoms: O1_1  and  C1_3 
REMARK    2  A    between atoms: C2_6  and  C3_7 
REMARK    3  A    between atoms: C3_7  and  N2_8 
REMARK    4  A    between atoms: N2_8  and  C4_10 
REMARK    5  A    between atoms: C4_10  and  C5_11 
REMARK    6  A    between atoms: C5_11  and  C6_12 
REMARK    7  A    between atoms: C6_12  and  C7_13 
REMARK    8  A    between atoms: C7_13  and  N3_14 
REMARK    9  A    between atoms: C13_20  and  O2_21 
REMARK   10  A    between atoms: C14_23  and  O3_24 
REMARK   11  A    between atoms: C15_26  and  O4_27 
ROOT
HETATM    1  C1  UNL     1      74.992  35.880  62.967  1.00  0.00     0.245 C 
HETATM    2  N1  UNL     1      74.884  35.180  61.718  1.00  0.00    -0.386 N 
ATOM      3  H1  UNL     1      74.197  34.441  61.570  1.00  0.00     0.156 HD
HETATM    4  C2  UNL     1      75.795  35.581  60.698  1.00  0.00     0.128 C 
HETATM    5  C13 UNL     1      76.257  36.991  60.756  1.00  0.00     0.173 C 
HETATM    6  C14 UNL     1      75.551  37.915  61.669  1.00  0.00     0.181 C 
HETATM    7  C15 UNL     1      74.684  37.326  62.724  1.00  0.00     0.197 C 
ENDROOT
BRANCH   4   8
HETATM    8  C3  UNL     1      77.030  34.671  60.724  1.00  0.00     0.146 C 
BRANCH   8   9
HETATM    9  N2  UNL     1      76.692  33.305  60.529  1.00  0.00    -0.400 N 
ATOM     10  H2  UNL     1      76.128  33.011  59.733  1.00  0.00     0.158 HD
BRANCH   9  11
HETATM   11  C4  UNL     1      77.157  32.380  61.460  1.00  0.00     0.055 C 
BRANCH  11  12
HETATM   12  C5  UNL     1      76.191  31.587  62.247  1.00  0.00     0.046 C 
BRANCH  12  13
HETATM   13  C6  UNL     1      75.694  32.199  63.515  1.00  0.00     0.025 C 
BRANCH  13  14
HETATM   14  C7  UNL     1      76.451  31.554  64.688  1.00  0.00     0.127 C 
BRANCH  14  15
HETATM   15  N3  UNL     1      77.255  32.436  65.402  1.00  0.00    -0.374 N 
HETATM   16  C8  UNL     1      78.509  32.817  64.908  1.00  0.00     0.063 C 
HETATM   17  C9  UNL     1      79.632  32.777  65.915  1.00  0.00     0.045 C 
HETATM   18  C10 UNL     1      79.218  33.034  67.322  1.00  0.00     0.010 C 
HETATM   19  C11 UNL     1      77.887  33.724  67.380  1.00  0.00     0.045 C 
HETATM   20  C12 UNL     1      76.816  32.944  66.636  1.00  0.00     0.063 C 
ENDBRANCH  14  15
ENDBRANCH  13  14
ENDBRANCH  12  13
ENDBRANCH  11  12
ENDBRANCH   9  11
ENDBRANCH   8   9
ENDBRANCH   4   8
BRANCH   5  21
HETATM   21  O2  UNL     1      76.135  37.523  59.444  1.00  0.00    -0.391 OA
ATOM     22  H2  UNL     1      76.648  38.322  59.419  1.00  0.00     0.210 HD
ENDBRANCH   5  21
BRANCH   1  23
HETATM   23  O1  UNL     1      76.243  35.725  63.575  1.00  0.00    -0.374 OA
ATOM     24  H1  UNL     1      76.264  36.044  64.469  1.00  0.00     0.212 HD
ENDBRANCH   1  23
BRANCH   6  25
HETATM   25  O3  UNL     1      74.818  38.887  60.951  1.00  0.00    -0.390 OA
ATOM     26  H3  UNL     1      75.291  39.710  60.903  1.00  0.00     0.210 HD
ENDBRANCH   6  25
BRANCH   7  27
HETATM   27  O4  UNL     1      74.791  38.029  63.945  1.00  0.00    -0.389 OA
ATOM     28  H4  UNL     1      75.603  38.523  63.947  1.00  0.00     0.210 HD
ENDBRANCH   7  27
TORSDOF 11
ENDMDL
MODEL 5
REMARK VINA RESULT: -5.790472905      3.253      5.865
REMARK  11 active torsions:
REMARK  status: ('A' for Active; 'I' for Inactive)
REMARK    1  A    between atoms: O1_1  and  C1_3 
REMARK    2  A    between atoms: C2_6  and  C3_7 
REMARK    3  A    between atoms: C3_7  and  N2_8 
REMARK    4  A    between atoms: N2_8  and  C4_10 
REMARK    5  A    between atoms: C4_10  and  C5_11 
REMARK    6  A    between atoms: C5_11  and  C6_12 
REMARK    7  A    between atoms: C6_12  and  C7_13 
REMARK    8  A    between atoms: C7_13  and  N3_14 
REMARK    9  A    between atoms: C13_20  and  O2_21 
REMARK   10  A    between atoms: C14_23  and  O3_24 
REMARK   11  A    between atoms: C15_26  and  O4_27 
ROOT
HETATM    1  C1  UNL     1      78.791  31.730  62.923  1.00  0.00     0.245 C 
HETATM    2  N1  UNL     1      78.341  30.641  62.103  1.00  0.00    -0.386 N 
ATOM      3  H1  UNL     1      78.933  29.836  61.901  1.00  0.00     0.156 HD
HETATM    4  C2  UNL     1      77.017  30.754  61.587  1.00  0.00     0.128 C 
HETATM    5  C13 UNL     1      76.066  31.550  62.405  1.00  0.00     0.173 C 
HETATM    6  C14 UNL     1      76.472  31.919  63.777  1.00  0.00     0.181 C 
HETATM    7  C15 UNL     1      77.911  31.801  64.134  1.00  0.00     0.197 C 
ENDROOT
BRANCH   4   8
HETATM    8  C3  UNL     1      77.064  31.363  60.179  1.00  0.00     0.146 C 
BRANCH   8   9
HETATM    9  N2  UNL     1      76.648  32.721  60.169  1.00  0.00    -0.400 N 
ATOM     10  H2  UNL     1      76.007  33.080  60.876  1.00  0.00     0.158 HD
BRANCH   9  11
HETATM   11  C4  UNL     1      77.142  33.546  59.163  1.00  0.00     0.055 C 
BRANCH  11  12
HETATM   12  C5  UNL     1      76.204  34.319  58.323  1.00  0.00     0.046 C 
BRANCH  12  13
HETATM   13  C6  UNL     1      75.475  35.440  58.988  1.00  0.00     0.025 C 
BRANCH  13  14
HETATM   14  C7  UNL     1      76.517  36.421  59.551  1.00  0.00     0.127 C 
BRANCH  14  15
HETATM   15  N3  UNL     1      76.365  36.699  60.905  1.00  0.00    -0.374 N 
HETATM   16  C8  UNL     1      77.125  36.015  61.862  1.00  0.00     0.063 C 
HETATM   17  C9  UNL     1      76.347  35.507  63.051  1.00  0.00     0.045 C 
HETATM   18  C10 UNL     1      75.157  36.325  63.414  1.00  0.00     0.010 C 
HETATM   19  C11 UNL     1      75.247  37.704  62.831  1.00  0.00     0.045 C 
HETATM   20  C12 UNL     1      75.437  37.667  61.324  1.00  0.00     0.063 C 
ENDBRANCH  14  15
ENDBRANCH  13  14
ENDBRANCH  12  13
ENDBRANCH  11  12
ENDBRANCH   9  11
ENDBRANCH   8   9
ENDBRANCH   4   8
BRANCH   5  21
HETATM   21  O2  UNL     1      74.871  30.788  62.511  1.00  0.00    -0.391 OA
ATOM     22  H2  UNL     1      74.855  30.415  63.384  1.00  0.00     0.210 HD
ENDBRANCH   5  21
BRANCH   1  23
HETATM   23  O1  UNL     1      78.814  32.953  62.244  1.00  0.00    -0.374 OA
ATOM     24  H1  UNL     1      79.167  32.883  61.365  1.00  0.00     0.212 HD
ENDBRANCH   1  23
BRANCH   6  25
HETATM   25  O3  UNL     1      75.694  31.241  64.744  1.00  0.00    -0.390 OA
ATOM     26  H3  UNL     1      75.340  31.844  65.387  1.00  0.00     0.210 HD
ENDBRANCH   6  25
BRANCH   7  27
HETATM   27  O4  UNL     1      78.339  32.873  64.950  1.00  0.00    -0.389 OA
ATOM     28  H4  UNL     1      77.584  33.393  65.197  1.00  0.00     0.210 HD
ENDBRANCH   7  27
TORSDOF 11
ENDMDL
