MODEL 1
REMARK VINA RESULT: -6.031672944      0.000      0.000
REMARK  12 active torsions:
REMARK  status: ('A' for Active; 'I' for Inactive)
REMARK    1  A    between atoms: N1_1  and  C1_5 
REMARK    2  A    between atoms: C1_5  and  C2_6 
REMARK    3  A    between atoms: C2_6  and  C3_7 
REMARK    4  A    between atoms: C3_7  and  C4_8 
REMARK    5  A    between atoms: C4_8  and  C5_9 
REMARK    6  A    between atoms: C5_9  and  N2_10 
REMARK    7  A    between atoms: C5_9  and  C6_14 
REMARK    8  A    between atoms: C6_14  and  O1_15 
REMARK    9  A    between atoms: C7_20  and  O2_21 
REMARK   10  A    between atoms: O2_21  and  C8_22 
REMARK   11  A    between atoms: C8_22  and  C9_23 
REMARK   12  A    between atoms: C11_27  and  O4_28 
ROOT
HETATM    1  C6  UNL     1      76.328  35.678  60.325  1.00  0.00     0.259 C 
HETATM    2  N3  UNL     1      75.725  34.572  61.064  1.00  0.00    -0.008 N 
ATOM      3  H31 UNL     1      76.175  33.667  60.927  1.00  0.00     0.284 HD
ATOM      4  H32 UNL     1      74.809  34.278  60.726  1.00  0.00     0.284 HD
HETATM    5  C7  UNL     1      75.745  35.071  62.440  1.00  0.00     0.230 C 
HETATM    6  C12 UNL     1      75.036  36.380  62.481  1.00  0.00     0.069 C 
HETATM    7  C13 UNL     1      76.005  37.441  61.926  1.00  0.00     0.014 C 
HETATM    8  C14 UNL     1      77.067  36.519  61.330  1.00  0.00     0.056 C 
HETATM    9  C15 UNL     1      77.205  35.556  62.495  1.00  0.00     0.078 C 
ENDROOT
BRANCH   1  10
HETATM   10  C5  UNL     1      77.240  35.193  59.225  1.00  0.00     0.246 C 
BRANCH  10  11
HETATM   11  C4  UNL     1      76.688  35.340  57.860  1.00  0.00     0.038 C 
BRANCH  11  12
HETATM   12  C3  UNL     1      77.431  36.102  56.848  1.00  0.00     0.004 C 
BRANCH  12  13
HETATM   13  C2  UNL     1      78.384  37.133  57.339  1.00  0.00     0.027 C 
BRANCH  13  14
HETATM   14  C1  UNL     1      77.813  38.527  57.376  1.00  0.00     0.229 C 
BRANCH  14  15
HETATM   15  N1  UNL     1      77.128  38.860  58.566  1.00  0.00    -0.079 N 
ATOM     16  H13 UNL     1      76.478  39.627  58.395  1.00  0.00     0.274 HD
ATOM     17  H12 UNL     1      76.470  38.120  58.812  1.00  0.00     0.274 HD
ATOM     18  H11 UNL     1      77.728  39.077  59.362  1.00  0.00     0.274 HD
ENDBRANCH  14  15
ENDBRANCH  13  14
ENDBRANCH  12  13
ENDBRANCH  11  12
ENDBRANCH  10  11
BRANCH  10  19
HETATM   19  N2  UNL     1      77.444  33.723  59.405  1.00  0.00    -0.070 N 
ATOM     20  H23 UNL     1      77.324  33.404  60.367  1.00  0.00     0.274 HD
ATOM     21  H22 UNL     1      76.703  33.151  58.999  1.00  0.00     0.274 HD
ATOM     22  H21 UNL     1      78.369  33.534  59.020  1.00  0.00     0.274 HD
ENDBRANCH  10  19
ENDBRANCH   1  10
BRANCH   1  23
HETATM   23  O1  UNL     1      75.326  36.451  59.756  1.00  0.00    -0.363 OA
ATOM     24  H1  UNL     1      75.679  37.313  59.570  1.00  0.00     0.212 HD
ENDBRANCH   1  23
BRANCH   5  25
HETATM   25  O2  UNL     1      75.449  34.143  63.361  1.00  0.00    -0.351 OA
BRANCH  25  26
HETATM   26  C8  UNL     1      76.446  33.261  63.649  1.00  0.00     0.207 C 
BRANCH  26  27
HETATM   27  C9  UNL     1      75.865  31.846  63.813  1.00  0.00     0.201 C 
HETATM   28  O3  UNL     1      74.503  31.835  63.811  1.00  0.00    -0.276 OA
HETATM   29  N4  UNL     1      74.042  30.706  63.315  1.00  0.00    -0.098 NA
HETATM   30  C10 UNL     1      75.095  29.951  62.726  1.00  0.00     0.177 C 
HETATM   31  C11 UNL     1      76.218  30.976  62.633  1.00  0.00     0.168 C 
BRANCH  31  32
HETATM   32  O4  UNL     1      76.088  31.753  61.483  1.00  0.00    -0.392 OA
ATOM     33  H4  UNL     1      75.833  31.175  60.773  1.00  0.00     0.210 HD
ENDBRANCH  31  32
ENDBRANCH  26  27
ENDBRANCH  25  26
ENDBRANCH   5  25
TORSDOF 12
ENDMDL
MODEL 2
REMARK VINA RESULT: -5.958338099      3.834      5.497
REMARK  12 active torsions:
REMARK  status: ('A' for Active; 'I' for Inactive)
REMARK    1  A    between atoms: N1_1  and  C1_5 
REMARK    2  A    between atoms: C1_5  and  C2_6 
REMARK    3  A    between atoms: C2_6  and  C3_7 
REMARK    4  A    between atoms: C3_7  and  C4_8 
REMARK    5  A    between atoms: C4_8  and  C5_9 
REMARK    6  A    between atoms: C5_9  and  N2_10 
REMARK    7  A    between atoms: C5_9  and  C6_14 
REMARK    8  A    between atoms: C6_14  and  O1_15 
REMARK    9  A    between atoms: C7_20  and  O2_21 
REMARK   10  A    between atoms: O2_21  and  C8_22 
REMARK   11  A    between atoms: C8_22  and  C9_23 
REMARK   12  A    between atoms: C11_27  and  O4_28 
ROOT
HETATM    1  C6  UNL     1      76.525  33.604  62.356  1.00  0.00     0.259 C 
HETATM    2  N3  UNL     1      77.879  33.481  62.887  1.00  0.00    -0.008 N 
ATOM      3  H31 UNL     1      78.402  34.355  62.938  1.00  0.00     0.284 HD
ATOM      4  H32 UNL     1      78.540  33.007  62.272  1.00  0.00     0.284 HD
HETATM    5  C7  UNL     1      77.649  32.822  64.174  1.00  0.00     0.230 C 
HETATM    6  C12 UNL     1      76.899  31.559  63.933  1.00  0.00     0.069 C 
HETATM    7  C13 UNL     1      75.426  31.941  63.699  1.00  0.00     0.014 C 
HETATM    8  C14 UNL     1      75.586  33.450  63.523  1.00  0.00     0.056 C 
HETATM    9  C15 UNL     1      76.510  33.715  64.697  1.00  0.00     0.078 C 
ENDROOT
BRANCH   1  10
HETATM   10  C5  UNL     1      76.313  34.915  61.640  1.00  0.00     0.246 C 
BRANCH  10  11
HETATM   11  C4  UNL     1      75.209  35.739  62.180  1.00  0.00     0.038 C 
BRANCH  11  12
HETATM   12  C3  UNL     1      75.502  37.031  62.812  1.00  0.00     0.004 C 
BRANCH  12  13
HETATM   13  C2  UNL     1      74.360  37.760  63.429  1.00  0.00     0.027 C 
BRANCH  13  14
HETATM   14  C1  UNL     1      74.402  37.800  64.935  1.00  0.00     0.229 C 
BRANCH  14  15
HETATM   15  N1  UNL     1      73.359  38.535  65.541  1.00  0.00    -0.079 N 
ATOM     16  H13 UNL     1      72.800  39.004  64.829  1.00  0.00     0.274 HD
ATOM     17  H12 UNL     1      72.660  37.901  65.927  1.00  0.00     0.274 HD
ATOM     18  H11 UNL     1      73.660  39.203  66.250  1.00  0.00     0.274 HD
ENDBRANCH  14  15
ENDBRANCH  13  14
ENDBRANCH  12  13
ENDBRANCH  11  12
ENDBRANCH  10  11
BRANCH  10  19
HETATM   19  N2  UNL     1      75.919  34.615  60.229  1.00  0.00    -0.070 N 
ATOM     20  H23 UNL     1      75.680  35.442  59.682  1.00  0.00     0.274 HD
ATOM     21  H22 UNL     1      76.693  34.305  59.641  1.00  0.00     0.274 HD
ATOM     22  H21 UNL     1      75.161  33.937  60.305  1.00  0.00     0.274 HD
ENDBRANCH  10  19
ENDBRANCH   1  10
BRANCH   1  23
HETATM   23  O1  UNL     1      76.287  32.571  61.461  1.00  0.00    -0.363 OA
ATOM     24  H1  UNL     1      75.495  32.769  60.975  1.00  0.00     0.212 HD
ENDBRANCH   1  23
BRANCH   5  25
HETATM   25  O2  UNL     1      78.726  32.797  64.974  1.00  0.00    -0.351 OA
BRANCH  25  26
HETATM   26  C8  UNL     1      78.488  33.059  66.289  1.00  0.00     0.207 C 
BRANCH  26  27
HETATM   27  C9  UNL     1      79.686  32.605  67.140  1.00  0.00     0.201 C 
HETATM   28  O3  UNL     1      79.410  32.597  68.474  1.00  0.00    -0.276 OA
HETATM   29  N4  UNL     1      80.106  31.668  69.094  1.00  0.00    -0.098 NA
HETATM   30  C10 UNL     1      80.750  30.814  68.154  1.00  0.00     0.177 C 
HETATM   31  C11 UNL     1      80.040  31.167  66.854  1.00  0.00     0.168 C 
BRANCH  31  32
HETATM   32  O4  UNL     1      78.846  30.457  66.730  1.00  0.00    -0.392 OA
ATOM     33  H4  UNL     1      78.459  30.394  67.595  1.00  0.00     0.210 HD
ENDBRANCH  31  32
ENDBRANCH  26  27
ENDBRANCH  25  26
ENDBRANCH   5  25
TORSDOF 12
ENDMDL
MODEL 3
REMARK VINA RESULT: -5.875366707      1.436      2.120
REMARK  12 active torsions:
REMARK  status: ('A' for Active; 'I' for Inactive)
REMARK    1  A    between atoms: N1_1  and  C1_5 
REMARK    2  A    between atoms: C1_5  and  C2_6 
REMARK    3  A    between atoms: C2_6  and  C3_7 
REMARK    4  A    between atoms: C3_7  and  C4_8 
REMARK    5  A    between atoms: C4_8  and  C5_9 
REMARK    6  A    between atoms: C5_9  and  N2_10 
REMARK    7  A    between atoms: C5_9  and  C6_14 
REMARK    8  A    between atoms: C6_14  and  O1_15 
REMARK    9  A    between atoms: C7_20  and  O2_21 
REMARK   10  A    between atoms: O2_21  and  C8_22 
REMARK   11  A    between atoms: C8_22  and  C9_23 
REMARK   12  A    between atoms: C11_27  and  O4_28 
ROOT
HETATM    1  C6  UNL     1      76.305  35.793  60.409  1.00  0.00     0.259 C 
HETATM    2  N3  UNL     1      75.655  34.643  61.031  1.00  0.00    -0.008 N 
ATOM      3  H31 UNL     1      76.070  33.739  60.804  1.00  0.00     0.284 HD
ATOM      4  H32 UNL     1      74.731  34.421  60.664  1.00  0.00     0.284 HD
HETATM    5  C7  UNL     1      75.687  34.999  62.451  1.00  0.00     0.230 C 
HETATM    6  C12 UNL     1      75.030  36.323  62.624  1.00  0.00     0.069 C 
HETATM    7  C13 UNL     1      76.042  37.396  62.181  1.00  0.00     0.014 C 
HETATM    8  C14 UNL     1      77.071  36.498  61.496  1.00  0.00     0.056 C 
HETATM    9  C15 UNL     1      77.165  35.417  62.557  1.00  0.00     0.078 C 
ENDROOT
BRANCH   1  10
HETATM   10  C5  UNL     1      77.204  35.387  59.267  1.00  0.00     0.246 C 
BRANCH  10  11
HETATM   11  C4  UNL     1      77.575  33.954  59.257  1.00  0.00     0.038 C 
BRANCH  11  12
HETATM   12  C3  UNL     1      77.122  33.089  58.162  1.00  0.00     0.004 C 
BRANCH  12  13
HETATM   13  C2  UNL     1      76.834  33.741  56.855  1.00  0.00     0.027 C 
BRANCH  13  14
HETATM   14  C1  UNL     1      75.402  33.608  56.406  1.00  0.00     0.229 C 
BRANCH  14  15
HETATM   15  N1  UNL     1      74.443  33.677  57.441  1.00  0.00    -0.079 N 
ATOM     16  H13 UNL     1      74.786  33.192  58.271  1.00  0.00     0.274 HD
ATOM     17  H12 UNL     1      74.385  34.629  57.804  1.00  0.00     0.274 HD
ATOM     18  H11 UNL     1      73.515  33.336  57.192  1.00  0.00     0.274 HD
ENDBRANCH  14  15
ENDBRANCH  13  14
ENDBRANCH  12  13
ENDBRANCH  11  12
ENDBRANCH  10  11
BRANCH  10  19
HETATM   19  N2  UNL     1      78.498  36.121  59.412  1.00  0.00    -0.070 N 
ATOM     20  H23 UNL     1      78.637  36.855  58.716  1.00  0.00     0.274 HD
ATOM     21  H22 UNL     1      78.539  36.728  60.231  1.00  0.00     0.274 HD
ATOM     22  H21 UNL     1      79.216  35.398  59.398  1.00  0.00     0.274 HD
ENDBRANCH  10  19
ENDBRANCH   1  10
BRANCH   1  23
HETATM   23  O1  UNL     1      75.337  36.658  59.921  1.00  0.00    -0.363 OA
ATOM     24  H1  UNL     1      75.474  36.767  58.987  1.00  0.00     0.212 HD
ENDBRANCH   1  23
BRANCH   5  25
HETATM   25  O2  UNL     1      75.351  33.994  63.273  1.00  0.00    -0.351 OA
BRANCH  25  26
HETATM   26  C8  UNL     1      76.363  33.152  63.619  1.00  0.00     0.207 C 
BRANCH  26  27
HETATM   27  C9  UNL     1      75.825  31.720  63.776  1.00  0.00     0.201 C 
HETATM   28  O3  UNL     1      74.464  31.670  63.795  1.00  0.00    -0.276 OA
HETATM   29  N4  UNL     1      74.027  30.533  63.294  1.00  0.00    -0.098 NA
HETATM   30  C10 UNL     1      75.092  29.815  62.679  1.00  0.00     0.177 C 
HETATM   31  C11 UNL     1      76.183  30.873  62.580  1.00  0.00     0.168 C 
BRANCH  31  32
HETATM   32  O4  UNL     1      76.012  31.659  61.441  1.00  0.00    -0.392 OA
ATOM     33  H4  UNL     1      75.979  32.566  61.722  1.00  0.00     0.210 HD
ENDBRANCH  31  32
ENDBRANCH  26  27
ENDBRANCH  25  26
ENDBRANCH   5  25
TORSDOF 12
ENDMDL
MODEL 4
REMARK VINA RESULT: -5.841261622      1.644      2.917
REMARK  12 active torsions:
REMARK  status: ('A' for Active; 'I' for Inactive)
REMARK    1  A    between atoms: N1_1  and  C1_5 
REMARK    2  A    between atoms: C1_5  and  C2_6 
REMARK    3  A    between atoms: C2_6  and  C3_7 
REMARK    4  A    between atoms: C3_7  and  C4_8 
REMARK    5  A    between atoms: C4_8  and  C5_9 
REMARK    6  A    between atoms: C5_9  and  N2_10 
REMARK    7  A    between atoms: C5_9  and  C6_14 
REMARK    8  A    between atoms: C6_14  and  O1_15 
REMARK    9  A    between atoms: C7_20  and  O2_21 
REMARK   10  A    between atoms: O2_21  and  C8_22 
REMARK   11  A    between atoms: C8_22  and  C9_23 
REMARK   12  A    between atoms: C11_27  and  O4_28 
ROOT
HETATM    1  C6  UNL     1      76.406  35.788  60.455  1.00  0.00     0.259 C 
HETATM    2  N3  UNL     1      75.788  34.608  61.052  1.00  0.00    -0.008 N 
ATOM      3  H31 UNL     1      76.282  33.731  60.883  1.00  0.00     0.284 HD
ATOM      4  H32 UNL     1      74.914  34.313  60.616  1.00  0.00     0.284 HD
HETATM    5  C7  UNL     1      75.676  34.994  62.460  1.00  0.00     0.230 C 
HETATM    6  C12 UNL     1      74.917  36.272  62.543  1.00  0.00     0.069 C 
HETATM    7  C13 UNL     1      75.885  37.405  62.156  1.00  0.00     0.014 C 
HETATM    8  C14 UNL     1      77.027  36.568  61.582  1.00  0.00     0.056 C 
HETATM    9  C15 UNL     1      77.108  35.519  62.675  1.00  0.00     0.078 C 
ENDROOT
BRANCH   1  10
HETATM   10  C5  UNL     1      77.422  35.424  59.401  1.00  0.00     0.246 C 
BRANCH  10  11
HETATM   11  C4  UNL     1      78.020  34.080  59.563  1.00  0.00     0.038 C 
BRANCH  11  12
HETATM   12  C3  UNL     1      78.293  33.253  58.381  1.00  0.00     0.004 C 
BRANCH  12  13
HETATM   13  C2  UNL     1      77.372  32.113  58.122  1.00  0.00     0.027 C 
BRANCH  13  14
HETATM   14  C1  UNL     1      77.931  30.772  58.524  1.00  0.00     0.229 C 
BRANCH  14  15
HETATM   15  N1  UNL     1      76.993  29.879  59.086  1.00  0.00    -0.079 N 
ATOM     16  H13 UNL     1      76.229  29.713  58.431  1.00  0.00     0.274 HD
ATOM     17  H12 UNL     1      77.388  28.941  59.139  1.00  0.00     0.274 HD
ATOM     18  H11 UNL     1      76.623  30.158  59.995  1.00  0.00     0.274 HD
ENDBRANCH  14  15
ENDBRANCH  13  14
ENDBRANCH  12  13
ENDBRANCH  11  12
ENDBRANCH  10  11
BRANCH  10  19
HETATM   19  N2  UNL     1      78.570  36.375  59.516  1.00  0.00    -0.070 N 
ATOM     20  H23 UNL     1      78.300  37.357  59.463  1.00  0.00     0.274 HD
ATOM     21  H22 UNL     1      78.980  36.416  60.449  1.00  0.00     0.274 HD
ATOM     22  H21 UNL     1      79.225  36.088  58.789  1.00  0.00     0.274 HD
ENDBRANCH  10  19
ENDBRANCH   1  10
BRANCH   1  23
HETATM   23  O1  UNL     1      75.424  36.572  59.866  1.00  0.00    -0.363 OA
ATOM     24  H1  UNL     1      74.591  36.121  59.945  1.00  0.00     0.212 HD
ENDBRANCH   1  23
BRANCH   5  25
HETATM   25  O2  UNL     1      75.343  33.985  63.278  1.00  0.00    -0.351 OA
BRANCH  25  26
HETATM   26  C8  UNL     1      76.356  33.139  63.612  1.00  0.00     0.207 C 
BRANCH  26  27
HETATM   27  C9  UNL     1      75.815  31.708  63.773  1.00  0.00     0.201 C 
HETATM   28  O3  UNL     1      74.454  31.661  63.790  1.00  0.00    -0.276 OA
HETATM   29  N4  UNL     1      74.015  30.524  63.291  1.00  0.00    -0.098 NA
HETATM   30  C10 UNL     1      75.080  29.802  62.680  1.00  0.00     0.177 C 
HETATM   31  C11 UNL     1      76.173  30.857  62.579  1.00  0.00     0.168 C 
BRANCH  31  32
HETATM   32  O4  UNL     1      76.006  31.641  61.438  1.00  0.00    -0.392 OA
ATOM     33  H4  UNL     1      76.820  31.612  60.950  1.00  0.00     0.210 HD
ENDBRANCH  31  32
ENDBRANCH  26  27
ENDBRANCH  25  26
ENDBRANCH   5  25
TORSDOF 12
ENDMDL
MODEL 5
REMARK VINA RESULT: -5.795892208      4.621      6.265
REMARK  12 active torsions:
REMARK  status: ('A' for Active; 'I' for Inactive)
REMARK    1  A    between atoms: N1_1  and  C1_5 
REMARK    2  A    between atoms: C1_5  and  C2_6 
REMARK    3  A    between atoms: C2_6  and  C3_7 
REMARK    4  A    between atoms: C3_7  and  C4_8 
REMARK    5  A    between atoms: C4_8  and  C5_9 
REMARK    6  A    between atoms: C5_9  and  N2_10 
REMARK    7  A    between atoms: C5_9  and  C6_14 
REMARK    8  A    between atoms: C6_14  and  O1_15 
REMARK    9  A    between atoms: C7_20  and  O2_21 
REMARK   10  A    between atoms: O2_21  and  C8_22 
REMARK   11  A    between atoms: C8_22  and  C9_23 
REMARK   12  A    between atoms: C11_27  and  O4_28 
ROOT
HETATM    1  C6  UNL     1      77.461  33.494  63.877  1.00  0.00     0.259 C 
HETATM    2  N3  UNL     1      78.542  33.413  64.855  1.00  0.00    -0.008 N 
ATOM      3  H31 UNL     1      78.950  34.310  65.121  1.00  0.00     0.284 HD
ATOM      4  H32 UNL     1      79.411  33.012  64.503  1.00  0.00     0.284 HD
HETATM    5  C7  UNL     1      77.917  32.668  65.949  1.00  0.00     0.230 C 
HETATM    6  C12 UNL     1      77.394  31.383  65.410  1.00  0.00     0.069 C 
HETATM    7  C13 UNL     1      76.078  31.698  64.676  1.00  0.00     0.014 C 
HETATM    8  C14 UNL     1      76.182  33.221  64.623  1.00  0.00     0.056 C 
HETATM    9  C15 UNL     1      76.605  33.467  66.059  1.00  0.00     0.078 C 
ENDROOT
BRANCH   1  10
HETATM   10  C5  UNL     1      77.426  34.831  63.180  1.00  0.00     0.246 C 
BRANCH  10  11
HETATM   11  C4  UNL     1      76.068  35.383  62.979  1.00  0.00     0.038 C 
BRANCH  11  12
HETATM   12  C3  UNL     1      75.877  36.834  62.862  1.00  0.00     0.004 C 
BRANCH  12  13
HETATM   13  C2  UNL     1      74.578  37.389  63.329  1.00  0.00     0.027 C 
BRANCH  13  14
HETATM   14  C1  UNL     1      74.535  37.689  64.805  1.00  0.00     0.229 C 
BRANCH  14  15
HETATM   15  N1  UNL     1      73.393  38.399  65.236  1.00  0.00    -0.079 N 
ATOM     16  H13 UNL     1      73.084  38.050  66.143  1.00  0.00     0.274 HD
ATOM     17  H12 UNL     1      73.647  39.354  65.491  1.00  0.00     0.274 HD
ATOM     18  H11 UNL     1      72.615  38.405  64.577  1.00  0.00     0.274 HD
ENDBRANCH  14  15
ENDBRANCH  13  14
ENDBRANCH  12  13
ENDBRANCH  11  12
ENDBRANCH  10  11
BRANCH  10  19
HETATM   19  N2  UNL     1      77.979  34.651  61.803  1.00  0.00    -0.070 N 
ATOM     20  H23 UNL     1      77.961  33.686  61.473  1.00  0.00     0.274 HD
ATOM     21  H22 UNL     1      77.387  35.037  61.067  1.00  0.00     0.274 HD
ATOM     22  H21 UNL     1      78.913  35.058  61.837  1.00  0.00     0.274 HD
ENDBRANCH  10  19
ENDBRANCH   1  10
BRANCH   1  23
HETATM   23  O1  UNL     1      77.633  32.503  62.921  1.00  0.00    -0.363 OA
ATOM     24  H1  UNL     1      78.564  32.366  62.793  1.00  0.00     0.212 HD
ENDBRANCH   1  23
BRANCH   5  25
HETATM   25  O2  UNL     1      78.637  32.654  67.081  1.00  0.00    -0.351 OA
BRANCH  25  26
HETATM   26  C8  UNL     1      79.984  32.542  66.921  1.00  0.00     0.207 C 
BRANCH  26  27
HETATM   27  C9  UNL     1      80.630  32.050  68.227  1.00  0.00     0.201 C 
HETATM   28  O3  UNL     1      79.799  32.170  69.300  1.00  0.00    -0.276 OA
HETATM   29  N4  UNL     1      80.043  31.232  70.192  1.00  0.00    -0.098 NA
HETATM   30  C10 UNL     1      80.931  30.254  69.659  1.00  0.00     0.177 C 
HETATM   31  C11 UNL     1      80.905  30.568  68.170  1.00  0.00     0.168 C 
BRANCH  31  32
HETATM   32  O4  UNL     1      79.813  29.960  67.551  1.00  0.00    -0.392 OA
ATOM     33  H4  UNL     1      79.475  29.303  68.148  1.00  0.00     0.210 HD
ENDBRANCH  31  32
ENDBRANCH  26  27
ENDBRANCH  25  26
ENDBRANCH   5  25
TORSDOF 12
ENDMDL
