MODEL 1
REMARK VINA RESULT: -4.630134844      0.000      0.000
REMARK  5 active torsions:
REMARK  status: ('A' for Active; 'I' for Inactive)
REMARK    1  A    between atoms: N1_1  and  C1_5 
REMARK    2  A    between atoms: N2_8  and  C4_9 
REMARK    3  A    between atoms: C4_9  and  C5_10 
REMARK    4  A    between atoms: C5_10  and  C6_11 
REMARK    5  A    between atoms: C6_11  and  N3_12 
REMARK       I    between atoms: N3_12  and  C7_15 
REMARK       I    between atoms: C7_15  and  N4_16 
REMARK       I    between atoms: C7_15  and  N5_20 
ROOT
HETATM    1  C6  UNL     1      86.673  -4.157  44.006  1.00  0.00     0.238 C 
ENDROOT
BRANCH   1   2
HETATM    2  C5  UNL     1      87.265  -2.951  43.305  1.00  0.00     0.058 C 
BRANCH   2   3
HETATM    3  C4  UNL     1      86.938  -3.089  41.846  1.00  0.00     0.274 C 
BRANCH   3   4
HETATM    4  N2  UNL     1      86.795  -1.870  41.130  1.00  0.00     0.090 N 
HETATM    5  C3  UNL     1      85.915  -1.884  40.020  1.00  0.00     0.274 C 
HETATM    6  C2  UNL     1      85.012  -0.650  40.162  1.00  0.00     0.064 C 
HETATM    7  C1  UNL     1      84.844  -0.643  41.687  1.00  0.00     0.213 C 
HETATM    8  C8  UNL     1      86.304  -0.872  42.090  1.00  0.00     0.305 C 
BRANCH   7   9
HETATM    9  N1  UNL     1      84.331   0.589  42.184  1.00  0.00    -0.073 N 
ATOM     10  H13 UNL     1      84.864   0.905  42.993  1.00  0.00     0.274 HD
ATOM     11  H12 UNL     1      84.535   1.354  41.541  1.00  0.00     0.274 HD
ATOM     12  H11 UNL     1      83.335   0.548  42.397  1.00  0.00     0.274 HD
ENDBRANCH   7   9
ENDBRANCH   3   4
ENDBRANCH   2   3
ENDBRANCH   1   2
BRANCH   1  13
HETATM   13  N3  UNL     1      85.262  -4.286  43.746  1.00  0.00    -0.022 N 
HETATM   14  C7  UNL     1      84.857  -5.672  43.684  1.00  0.00     0.575 C 
HETATM   15  N4  UNL     1      85.563  -6.379  42.622  1.00  0.00    -0.026 N 
HETATM   16  N5  UNL     1      85.145  -6.382  44.916  1.00  0.00    -0.026 N 
ATOM     17  H43 UNL     1      85.449  -5.914  41.722  1.00  0.00     0.278 HD
ATOM     18  H42 UNL     1      86.574  -6.288  42.718  1.00  0.00     0.278 HD
ATOM     19  H41 UNL     1      85.276  -7.356  42.578  1.00  0.00     0.278 HD
ATOM     20  H53 UNL     1      86.129  -6.297  45.170  1.00  0.00     0.278 HD
ATOM     21  H52 UNL     1      84.729  -5.912  45.719  1.00  0.00     0.278 HD
ATOM     22  H51 UNL     1      84.858  -7.360  44.872  1.00  0.00     0.278 HD
ATOM     23  H32 UNL     1      84.710  -3.766  44.428  1.00  0.00     0.281 HD
ATOM     24  H31 UNL     1      84.991  -3.780  42.903  1.00  0.00     0.281 HD
ENDBRANCH   1  13
TORSDOF 5
ENDMDL
MODEL 2
REMARK VINA RESULT: -4.624357279      3.515      5.065
REMARK  5 active torsions:
REMARK  status: ('A' for Active; 'I' for Inactive)
REMARK    1  A    between atoms: N1_1  and  C1_5 
REMARK    2  A    between atoms: N2_8  and  C4_9 
REMARK    3  A    between atoms: C4_9  and  C5_10 
REMARK    4  A    between atoms: C5_10  and  C6_11 
REMARK    5  A    between atoms: C6_11  and  N3_12 
REMARK       I    between atoms: N3_12  and  C7_15 
REMARK       I    between atoms: C7_15  and  N4_16 
REMARK       I    between atoms: C7_15  and  N5_20 
ROOT
HETATM    1  C6  UNL     1      88.412  -6.446  40.628  1.00  0.00     0.238 C 
ENDROOT
BRANCH   1   2
HETATM    2  C5  UNL     1      88.600  -5.547  41.833  1.00  0.00     0.058 C 
BRANCH   2   3
HETATM    3  C4  UNL     1      87.671  -4.381  41.659  1.00  0.00     0.274 C 
BRANCH   3   4
HETATM    4  N2  UNL     1      87.223  -3.766  42.858  1.00  0.00     0.090 N 
HETATM    5  C3  UNL     1      85.981  -3.087  42.800  1.00  0.00     0.274 C 
HETATM    6  C2  UNL     1      85.167  -3.558  44.013  1.00  0.00     0.064 C 
HETATM    7  C1  UNL     1      85.605  -5.028  44.047  1.00  0.00     0.213 C 
HETATM    8  C8  UNL     1      87.113  -4.833  43.863  1.00  0.00     0.305 C 
BRANCH   7   9
HETATM    9  N1  UNL     1      85.287  -5.674  45.276  1.00  0.00    -0.073 N 
ATOM     10  H13 UNL     1      84.316  -5.505  45.536  1.00  0.00     0.274 HD
ATOM     11  H12 UNL     1      85.253  -6.686  45.157  1.00  0.00     0.274 HD
ATOM     12  H11 UNL     1      85.918  -5.418  46.035  1.00  0.00     0.274 HD
ENDBRANCH   7   9
ENDBRANCH   3   4
ENDBRANCH   2   3
ENDBRANCH   1   2
BRANCH   1  13
HETATM   13  N3  UNL     1      88.687  -7.824  40.943  1.00  0.00    -0.022 N 
HETATM   14  C7  UNL     1      89.624  -8.407  40.009  1.00  0.00     0.575 C 
HETATM   15  N4  UNL     1      89.104  -8.364  38.647  1.00  0.00    -0.026 N 
HETATM   16  N5  UNL     1      90.890  -7.699  39.990  1.00  0.00    -0.026 N 
ATOM     17  H43 UNL     1      88.187  -8.804  38.582  1.00  0.00     0.278 HD
ATOM     18  H42 UNL     1      88.843  -7.417  38.374  1.00  0.00     0.278 HD
ATOM     19  H41 UNL     1      89.765  -8.776  37.988  1.00  0.00     0.278 HD
ATOM     20  H53 UNL     1      90.754  -6.705  39.806  1.00  0.00     0.278 HD
ATOM     21  H52 UNL     1      91.292  -7.636  40.925  1.00  0.00     0.278 HD
ATOM     22  H51 UNL     1      91.551  -8.110  39.331  1.00  0.00     0.278 HD
ATOM     23  H32 UNL     1      89.006  -7.930  41.906  1.00  0.00     0.281 HD
ATOM     24  H31 UNL     1      87.828  -8.372  40.999  1.00  0.00     0.281 HD
ENDBRANCH   1  13
TORSDOF 5
ENDMDL
MODEL 3
REMARK VINA RESULT: -4.623782734      3.509      4.759
REMARK  5 active torsions:
REMARK  status: ('A' for Active; 'I' for Inactive)
REMARK    1  A    between atoms: N1_1  and  C1_5 
REMARK    2  A    between atoms: N2_8  and  C4_9 
REMARK    3  A    between atoms: C4_9  and  C5_10 
REMARK    4  A    between atoms: C5_10  and  C6_11 
REMARK    5  A    between atoms: C6_11  and  N3_12 
REMARK       I    between atoms: N3_12  and  C7_15 
REMARK       I    between atoms: C7_15  and  N4_16 
REMARK       I    between atoms: C7_15  and  N5_20 
ROOT
HETATM    1  C6  UNL     1      88.408  -6.396  40.571  1.00  0.00     0.238 C 
ENDROOT
BRANCH   1   2
HETATM    2  C5  UNL     1      87.190  -5.879  41.307  1.00  0.00     0.058 C 
BRANCH   2   3
HETATM    3  C4  UNL     1      87.195  -4.384  41.167  1.00  0.00     0.274 C 
BRANCH   3   4
HETATM    4  N2  UNL     1      87.646  -3.661  42.303  1.00  0.00     0.090 N 
HETATM    5  C3  UNL     1      87.231  -2.309  42.403  1.00  0.00     0.274 C 
HETATM    6  C2  UNL     1      86.710  -2.116  43.834  1.00  0.00     0.064 C 
HETATM    7  C1  UNL     1      86.038  -3.480  44.037  1.00  0.00     0.213 C 
HETATM    8  C8  UNL     1      87.148  -4.379  43.484  1.00  0.00     0.305 C 
BRANCH   7   9
HETATM    9  N1  UNL     1      85.744  -3.758  45.403  1.00  0.00    -0.073 N 
ATOM     10  H13 UNL     1      84.989  -3.162  45.741  1.00  0.00     0.274 HD
ATOM     11  H12 UNL     1      85.296  -4.668  45.501  1.00  0.00     0.274 HD
ATOM     12  H11 UNL     1      86.562  -3.688  46.008  1.00  0.00     0.274 HD
ENDBRANCH   7   9
ENDBRANCH   3   4
ENDBRANCH   2   3
ENDBRANCH   1   2
BRANCH   1  13
HETATM   13  N3  UNL     1      88.716  -7.754  40.937  1.00  0.00    -0.022 N 
HETATM   14  C7  UNL     1      89.665  -8.350  40.024  1.00  0.00     0.575 C 
HETATM   15  N4  UNL     1      89.142  -8.372  38.663  1.00  0.00    -0.026 N 
HETATM   16  N5  UNL     1      90.914  -7.613  39.975  1.00  0.00    -0.026 N 
ATOM     17  H43 UNL     1      88.235  -8.836  38.617  1.00  0.00     0.278 HD
ATOM     18  H42 UNL     1      88.858  -7.442  38.354  1.00  0.00     0.278 HD
ATOM     19  H41 UNL     1      89.811  -8.793  38.018  1.00  0.00     0.278 HD
ATOM     20  H53 UNL     1      90.755  -6.631  39.753  1.00  0.00     0.278 HD
ATOM     21  H52 UNL     1      91.316  -7.505  40.906  1.00  0.00     0.278 HD
ATOM     22  H51 UNL     1      91.583  -8.034  39.330  1.00  0.00     0.278 HD
ATOM     23  H32 UNL     1      89.039  -7.816  41.902  1.00  0.00     0.281 HD
ATOM     24  H31 UNL     1      87.871  -8.320  41.016  1.00  0.00     0.281 HD
ENDBRANCH   1  13
TORSDOF 5
ENDMDL
MODEL 4
REMARK VINA RESULT: -4.613154343      4.014      5.788
REMARK  5 active torsions:
REMARK  status: ('A' for Active; 'I' for Inactive)
REMARK    1  A    between atoms: N1_1  and  C1_5 
REMARK    2  A    between atoms: N2_8  and  C4_9 
REMARK    3  A    between atoms: C4_9  and  C5_10 
REMARK    4  A    between atoms: C5_10  and  C6_11 
REMARK    5  A    between atoms: C6_11  and  N3_12 
REMARK       I    between atoms: N3_12  and  C7_15 
REMARK       I    between atoms: C7_15  and  N4_16 
REMARK       I    between atoms: C7_15  and  N5_20 
ROOT
HETATM    1  C6  UNL     1      86.333  -5.007  42.665  1.00  0.00     0.238 C 
ENDROOT
BRANCH   1   2
HETATM    2  C5  UNL     1      87.160  -5.339  41.440  1.00  0.00     0.058 C 
BRANCH   2   3
HETATM    3  C4  UNL     1      88.598  -5.343  41.871  1.00  0.00     0.274 C 
BRANCH   3   4
HETATM    4  N2  UNL     1      89.275  -6.585  41.743  1.00  0.00     0.090 N 
HETATM    5  C3  UNL     1      88.814  -7.461  40.728  1.00  0.00     0.274 C 
HETATM    6  C2  UNL     1      90.057  -7.937  39.963  1.00  0.00     0.064 C 
HETATM    7  C1  UNL     1      90.877  -6.641  39.996  1.00  0.00     0.213 C 
HETATM    8  C8  UNL     1      90.684  -6.272  41.470  1.00  0.00     0.305 C 
BRANCH   7   9
HETATM    9  N1  UNL     1      92.247  -6.842  39.662  1.00  0.00    -0.073 N 
ATOM     10  H13 UNL     1      92.618  -7.668  40.129  1.00  0.00     0.274 HD
ATOM     11  H12 UNL     1      92.345  -7.140  38.692  1.00  0.00     0.274 HD
ATOM     12  H11 UNL     1      92.827  -6.025  39.852  1.00  0.00     0.274 HD
ENDBRANCH   7   9
ENDBRANCH   3   4
ENDBRANCH   2   3
ENDBRANCH   1   2
BRANCH   1  13
HETATM   13  N3  UNL     1      87.056  -5.266  43.883  1.00  0.00    -0.022 N 
HETATM   14  C7  UNL     1      86.180  -5.266  45.033  1.00  0.00     0.575 C 
HETATM   15  N4  UNL     1      85.513  -3.979  45.186  1.00  0.00    -0.026 N 
HETATM   16  N5  UNL     1      85.132  -6.264  44.923  1.00  0.00    -0.026 N 
ATOM     17  H43 UNL     1      86.183  -3.212  45.225  1.00  0.00     0.278 HD
ATOM     18  H42 UNL     1      85.016  -3.710  44.336  1.00  0.00     0.278 HD
ATOM     19  H41 UNL     1      84.895  -3.979  45.997  1.00  0.00     0.278 HD
ATOM     20  H53 UNL     1      84.605  -6.152  44.057  1.00  0.00     0.278 HD
ATOM     21  H52 UNL     1      85.522  -7.192  44.755  1.00  0.00     0.278 HD
ATOM     22  H51 UNL     1      84.515  -6.264  45.734  1.00  0.00     0.278 HD
ATOM     23  H32 UNL     1      87.591  -6.132  43.822  1.00  0.00     0.281 HD
ATOM     24  H31 UNL     1      87.829  -4.611  44.005  1.00  0.00     0.281 HD
ENDBRANCH   1  13
TORSDOF 5
ENDMDL
MODEL 5
REMARK VINA RESULT: -4.608538085      3.315      4.818
REMARK  5 active torsions:
REMARK  status: ('A' for Active; 'I' for Inactive)
REMARK    1  A    between atoms: N1_1  and  C1_5 
REMARK    2  A    between atoms: N2_8  and  C4_9 
REMARK    3  A    between atoms: C4_9  and  C5_10 
REMARK    4  A    between atoms: C5_10  and  C6_11 
REMARK    5  A    between atoms: C6_11  and  N3_12 
REMARK       I    between atoms: N3_12  and  C7_15 
REMARK       I    between atoms: C7_15  and  N4_16 
REMARK       I    between atoms: C7_15  and  N5_20 
ROOT
HETATM    1  C6  UNL     1      88.172  -6.105  40.815  1.00  0.00     0.238 C 
ENDROOT
BRANCH   1   2
HETATM    2  C5  UNL     1      87.769  -5.281  42.021  1.00  0.00     0.058 C 
BRANCH   2   3
HETATM    3  C4  UNL     1      86.270  -5.205  42.019  1.00  0.00     0.274 C 
BRANCH   3   4
HETATM    4  N2  UNL     1      85.652  -5.222  43.297  1.00  0.00     0.090 N 
HETATM    5  C3  UNL     1      86.514  -5.269  44.421  1.00  0.00     0.274 C 
HETATM    6  C2  UNL     1      86.023  -4.188  45.395  1.00  0.00     0.064 C 
HETATM    7  C1  UNL     1      85.611  -3.113  44.381  1.00  0.00     0.213 C 
HETATM    8  C8  UNL     1      84.846  -3.997  43.392  1.00  0.00     0.305 C 
BRANCH   7   9
HETATM    9  N1  UNL     1      84.790  -2.098  44.951  1.00  0.00    -0.073 N 
ATOM     10  H13 UNL     1      85.232  -1.183  44.869  1.00  0.00     0.274 HD
ATOM     11  H12 UNL     1      83.963  -1.935  44.377  1.00  0.00     0.274 HD
ATOM     12  H11 UNL     1      84.530  -2.292  45.917  1.00  0.00     0.274 HD
ENDBRANCH   7   9
ENDBRANCH   3   4
ENDBRANCH   2   3
ENDBRANCH   1   2
BRANCH   1  13
HETATM   13  N3  UNL     1      88.271  -7.506  41.135  1.00  0.00    -0.022 N 
HETATM   14  C7  UNL     1      89.364  -8.137  40.431  1.00  0.00     0.575 C 
HETATM   15  N4  UNL     1      89.191  -8.030  38.987  1.00  0.00    -0.026 N 
HETATM   16  N5  UNL     1      90.642  -7.523  40.740  1.00  0.00    -0.026 N 
ATOM     17  H43 UNL     1      88.289  -8.400  38.689  1.00  0.00     0.278 HD
ATOM     18  H42 UNL     1      89.066  -7.060  38.695  1.00  0.00     0.278 HD
ATOM     19  H41 UNL     1      89.962  -8.475  38.490  1.00  0.00     0.278 HD
ATOM     20  H53 UNL     1      90.621  -6.519  40.565  1.00  0.00     0.278 HD
ATOM     21  H52 UNL     1      90.810  -7.508  41.746  1.00  0.00     0.278 HD
ATOM     22  H51 UNL     1      91.413  -7.969  40.244  1.00  0.00     0.278 HD
ATOM     23  H32 UNL     1      88.341  -7.653  42.142  1.00  0.00     0.281 HD
ATOM     24  H31 UNL     1      87.389  -7.990  40.965  1.00  0.00     0.281 HD
ENDBRANCH   1  13
TORSDOF 5
ENDMDL
