MODEL 1
REMARK VINA RESULT: -4.566599388      0.000      0.000
REMARK  7 active torsions:
REMARK  status: ('A' for Active; 'I' for Inactive)
REMARK    1  A    between atoms: C3_3  and  C4_4 
REMARK    2  A    between atoms: C4_4  and  O1_5 
REMARK    3  A    between atoms: O1_5  and  C5_6 
REMARK    4  A    between atoms: C7_11  and  C8_12 
REMARK    5  A    between atoms: C8_12  and  N2_13 
REMARK    6  A    between atoms: C8_12  and  C9_17 
REMARK    7  A    between atoms: C9_17  and  N3_18 
ROOT
HETATM    1  C1  UNL     1      84.381  -0.021  39.633  1.00  0.00     0.112 C 
HETATM    2  C2  UNL     1      84.589  -0.380  41.045  1.00  0.00    -0.109 C 
HETATM    3  C3  UNL     1      84.750  -0.689  42.199  1.00  0.00    -0.081 C 
ENDROOT
BRANCH   3   4
HETATM    4  C4  UNL     1      84.928  -1.070  43.619  1.00  0.00     0.261 C 
BRANCH   4   5
HETATM    5  O1  UNL     1      84.374  -2.346  43.739  1.00  0.00    -0.370 OA
BRANCH   5   6
HETATM    6  C5  UNL     1      85.360  -3.261  43.361  1.00  0.00     0.181 C 
HETATM    7  C6  UNL     1      86.363  -3.411  44.480  1.00  0.00     0.266 C 
HETATM    8  N1  UNL     1      85.428  -4.332  45.117  1.00  0.00    -0.064 N 
HETATM    9  C7  UNL     1      84.944  -4.650  43.766  1.00  0.00     0.248 C 
ATOM     10  H12 UNL     1      85.751  -5.062  45.751  1.00  0.00     0.277 HD
ATOM     11  H11 UNL     1      84.791  -4.019  45.849  1.00  0.00     0.277 HD
BRANCH   9  12
HETATM   12  C8  UNL     1      85.778  -5.768  43.199  1.00  0.00     0.241 C 
BRANCH  12  13
HETATM   13  N2  UNL     1      85.017  -6.996  43.341  1.00  0.00    -0.071 N 
ATOM     14  H23 UNL     1      84.010  -6.848  43.276  1.00  0.00     0.274 HD
ATOM     15  H22 UNL     1      85.113  -7.617  42.538  1.00  0.00     0.274 HD
ATOM     16  H21 UNL     1      85.300  -7.433  44.218  1.00  0.00     0.274 HD
ENDBRANCH  12  13
BRANCH  12  17
HETATM   17  C9  UNL     1      86.110  -5.563  41.737  1.00  0.00     0.264 C 
BRANCH  17  18
HETATM   18  N3  UNL     1      87.297  -6.314  41.389  1.00  0.00    -0.077 N 
ATOM     19  H33 UNL     1      87.645  -6.863  42.175  1.00  0.00     0.274 HD
ATOM     20  H32 UNL     1      87.089  -7.082  40.750  1.00  0.00     0.274 HD
ATOM     21  H31 UNL     1      88.009  -5.688  41.014  1.00  0.00     0.274 HD
ENDBRANCH  17  18
ENDBRANCH  12  17
ENDBRANCH   9  12
ENDBRANCH   5   6
ENDBRANCH   4   5
ENDBRANCH   3   4
TORSDOF 7
ENDMDL
MODEL 2
REMARK VINA RESULT: -4.562662176      1.370      1.800
REMARK  7 active torsions:
REMARK  status: ('A' for Active; 'I' for Inactive)
REMARK    1  A    between atoms: C3_3  and  C4_4 
REMARK    2  A    between atoms: C4_4  and  O1_5 
REMARK    3  A    between atoms: O1_5  and  C5_6 
REMARK    4  A    between atoms: C7_11  and  C8_12 
REMARK    5  A    between atoms: C8_12  and  N2_13 
REMARK    6  A    between atoms: C8_12  and  C9_17 
REMARK    7  A    between atoms: C9_17  and  N3_18 
ROOT
HETATM    1  C1  UNL     1      85.221  -2.178  38.150  1.00  0.00     0.112 C 
HETATM    2  C2  UNL     1      85.129  -1.504  39.454  1.00  0.00    -0.109 C 
HETATM    3  C3  UNL     1      85.056  -0.966  40.531  1.00  0.00    -0.081 C 
ENDROOT
BRANCH   3   4
HETATM    4  C4  UNL     1      84.950  -0.318  41.859  1.00  0.00     0.261 C 
BRANCH   4   5
HETATM    5  O1  UNL     1      84.415  -1.287  42.710  1.00  0.00    -0.370 OA
BRANCH   5   6
HETATM    6  C5  UNL     1      85.402  -2.258  42.901  1.00  0.00     0.181 C 
HETATM    7  C6  UNL     1      86.219  -1.910  44.123  1.00  0.00     0.266 C 
HETATM    8  N1  UNL     1      85.156  -2.500  44.930  1.00  0.00    -0.064 N 
HETATM    9  C7  UNL     1      84.865  -3.360  43.774  1.00  0.00     0.248 C 
ATOM     10  H12 UNL     1      85.346  -2.895  45.851  1.00  0.00     0.277 HD
ATOM     11  H11 UNL     1      84.432  -1.923  45.359  1.00  0.00     0.277 HD
BRANCH   9  12
HETATM   12  C8  UNL     1      85.720  -4.596  43.857  1.00  0.00     0.241 C 
BRANCH  12  13
HETATM   13  N2  UNL     1      85.134  -5.466  44.860  1.00  0.00    -0.071 N 
ATOM     14  H23 UNL     1      85.533  -5.328  45.789  1.00  0.00     0.274 HD
ATOM     15  H22 UNL     1      84.172  -5.217  45.089  1.00  0.00     0.274 HD
ATOM     16  H21 UNL     1      85.228  -6.426  44.526  1.00  0.00     0.274 HD
ENDBRANCH  12  13
BRANCH  12  17
HETATM   17  C9  UNL     1      85.794  -5.343  42.543  1.00  0.00     0.264 C 
BRANCH  17  18
HETATM   18  N3  UNL     1      85.378  -6.716  42.730  1.00  0.00    -0.077 N 
ATOM     19  H33 UNL     1      84.396  -6.785  42.997  1.00  0.00     0.274 HD
ATOM     20  H32 UNL     1      85.329  -7.224  41.846  1.00  0.00     0.274 HD
ATOM     21  H31 UNL     1      85.991  -7.178  43.403  1.00  0.00     0.274 HD
ENDBRANCH  17  18
ENDBRANCH  12  17
ENDBRANCH   9  12
ENDBRANCH   5   6
ENDBRANCH   4   5
ENDBRANCH   3   4
TORSDOF 7
ENDMDL
MODEL 3
REMARK VINA RESULT: -4.527496936      4.865      6.393
REMARK  7 active torsions:
REMARK  status: ('A' for Active; 'I' for Inactive)
REMARK    1  A    between atoms: C3_3  and  C4_4 
REMARK    2  A    between atoms: C4_4  and  O1_5 
REMARK    3  A    between atoms: O1_5  and  C5_6 
REMARK    4  A    between atoms: C7_11  and  C8_12 
REMARK    5  A    between atoms: C8_12  and  N2_13 
REMARK    6  A    between atoms: C8_12  and  C9_17 
REMARK    7  A    between atoms: C9_17  and  N3_18 
ROOT
HETATM    1  C1  UNL     1      84.472  -0.359  39.674  1.00  0.00     0.112 C 
HETATM    2  C2  UNL     1      84.870  -1.528  38.875  1.00  0.00    -0.109 C 
HETATM    3  C3  UNL     1      85.184  -2.496  38.229  1.00  0.00    -0.081 C 
ENDROOT
BRANCH   3   4
HETATM    4  C4  UNL     1      85.574  -3.696  37.452  1.00  0.00     0.261 C 
BRANCH   4   5
HETATM    5  O1  UNL     1      86.238  -4.529  38.354  1.00  0.00    -0.370 OA
BRANCH   5   6
HETATM    6  C5  UNL     1      87.535  -4.030  38.498  1.00  0.00     0.181 C 
HETATM    7  C6  UNL     1      88.375  -5.024  39.264  1.00  0.00     0.266 C 
HETATM    8  N1  UNL     1      88.548  -5.755  38.014  1.00  0.00    -0.064 N 
HETATM    9  C7  UNL     1      88.378  -4.466  37.329  1.00  0.00     0.248 C 
ATOM     10  H12 UNL     1      89.367  -6.340  37.849  1.00  0.00     0.277 HD
ATOM     11  H11 UNL     1      87.964  -6.560  37.784  1.00  0.00     0.277 HD
BRANCH   9  12
HETATM   12  C8  UNL     1      89.720  -3.795  37.211  1.00  0.00     0.241 C 
BRANCH  12  13
HETATM   13  N2  UNL     1      90.439  -4.442  36.128  1.00  0.00    -0.071 N 
ATOM     14  H23 UNL     1      89.894  -4.497  35.267  1.00  0.00     0.274 HD
ATOM     15  H22 UNL     1      91.205  -3.874  35.766  1.00  0.00     0.274 HD
ATOM     16  H21 UNL     1      90.744  -5.355  36.465  1.00  0.00     0.274 HD
ENDBRANCH  12  13
BRANCH  12  17
HETATM   17  C9  UNL     1      89.608  -2.316  36.910  1.00  0.00     0.264 C 
BRANCH  17  18
HETATM   18  N3  UNL     1      89.236  -2.119  35.526  1.00  0.00    -0.077 N 
ATOM     19  H33 UNL     1      89.877  -2.590  34.887  1.00  0.00     0.274 HD
ATOM     20  H32 UNL     1      88.384  -2.627  35.284  1.00  0.00     0.274 HD
ATOM     21  H31 UNL     1      89.158  -1.123  35.324  1.00  0.00     0.274 HD
ENDBRANCH  17  18
ENDBRANCH  12  17
ENDBRANCH   9  12
ENDBRANCH   5   6
ENDBRANCH   4   5
ENDBRANCH   3   4
TORSDOF 7
ENDMDL
MODEL 4
REMARK VINA RESULT: -4.499108947      2.893      4.807
REMARK  7 active torsions:
REMARK  status: ('A' for Active; 'I' for Inactive)
REMARK    1  A    between atoms: C3_3  and  C4_4 
REMARK    2  A    between atoms: C4_4  and  O1_5 
REMARK    3  A    between atoms: O1_5  and  C5_6 
REMARK    4  A    between atoms: C7_11  and  C8_12 
REMARK    5  A    between atoms: C8_12  and  N2_13 
REMARK    6  A    between atoms: C8_12  and  C9_17 
REMARK    7  A    between atoms: C9_17  and  N3_18 
ROOT
HETATM    1  C1  UNL     1      86.061  -3.261  38.482  1.00  0.00     0.112 C 
HETATM    2  C2  UNL     1      86.227  -2.396  39.661  1.00  0.00    -0.109 C 
HETATM    3  C3  UNL     1      86.361  -1.674  40.618  1.00  0.00    -0.081 C 
ENDROOT
BRANCH   3   4
HETATM    4  C4  UNL     1      86.540  -0.777  41.783  1.00  0.00     0.261 C 
BRANCH   4   5
HETATM    5  O1  UNL     1      86.437  -1.597  42.909  1.00  0.00    -0.370 OA
BRANCH   5   6
HETATM    6  C5  UNL     1      85.115  -1.521  43.355  1.00  0.00     0.181 C 
HETATM    7  C6  UNL     1      84.638  -2.899  43.748  1.00  0.00     0.266 C 
HETATM    8  N1  UNL     1      85.321  -2.709  45.023  1.00  0.00    -0.064 N 
HETATM    9  C7  UNL     1      85.095  -1.268  44.838  1.00  0.00     0.248 C 
ATOM     10  H12 UNL     1      85.013  -3.190  45.868  1.00  0.00     0.277 HD
ATOM     11  H11 UNL     1      86.256  -3.083  45.186  1.00  0.00     0.277 HD
BRANCH   9  12
HETATM   12  C8  UNL     1      83.753  -0.906  45.416  1.00  0.00     0.241 C 
BRANCH  12  13
HETATM   13  N2  UNL     1      83.835  -1.077  46.855  1.00  0.00    -0.071 N 
ATOM     14  H23 UNL     1      84.776  -0.927  47.219  1.00  0.00     0.274 HD
ATOM     15  H22 UNL     1      83.371  -0.331  47.371  1.00  0.00     0.274 HD
ATOM     16  H21 UNL     1      83.467  -2.003  47.075  1.00  0.00     0.274 HD
ENDBRANCH  12  13
BRANCH  12  17
HETATM   17  C9  UNL     1      83.355   0.523  45.115  1.00  0.00     0.264 C 
BRANCH  17  18
HETATM   18  N3  UNL     1      82.811   1.146  46.302  1.00  0.00    -0.077 N 
ATOM     19  H33 UNL     1      82.077   0.580  46.728  1.00  0.00     0.274 HD
ATOM     20  H32 UNL     1      83.476   1.137  47.076  1.00  0.00     0.274 HD
ATOM     21  H31 UNL     1      82.490   2.089  46.085  1.00  0.00     0.274 HD
ENDBRANCH  17  18
ENDBRANCH  12  17
ENDBRANCH   9  12
ENDBRANCH   5   6
ENDBRANCH   4   5
ENDBRANCH   3   4
TORSDOF 7
ENDMDL
MODEL 5
REMARK VINA RESULT: -4.414913308      3.068      4.394
REMARK  7 active torsions:
REMARK  status: ('A' for Active; 'I' for Inactive)
REMARK    1  A    between atoms: C3_3  and  C4_4 
REMARK    2  A    between atoms: C4_4  and  O1_5 
REMARK    3  A    between atoms: O1_5  and  C5_6 
REMARK    4  A    between atoms: C7_11  and  C8_12 
REMARK    5  A    between atoms: C8_12  and  N2_13 
REMARK    6  A    between atoms: C8_12  and  C9_17 
REMARK    7  A    between atoms: C9_17  and  N3_18 
ROOT
HETATM    1  C1  UNL     1      83.765  -4.107  36.339  1.00  0.00     0.112 C 
HETATM    2  C2  UNL     1      84.641  -3.562  37.389  1.00  0.00    -0.109 C 
HETATM    3  C3  UNL     1      85.345  -3.113  38.258  1.00  0.00    -0.081 C 
ENDROOT
BRANCH   3   4
HETATM    4  C4  UNL     1      86.199  -2.544  39.326  1.00  0.00     0.261 C 
BRANCH   4   5
HETATM    5  O1  UNL     1      85.326  -1.888  40.197  1.00  0.00    -0.370 OA
BRANCH   5   6
HETATM    6  C5  UNL     1      86.009  -1.701  41.401  1.00  0.00     0.181 C 
HETATM    7  C6  UNL     1      86.067  -0.227  41.724  1.00  0.00     0.266 C 
HETATM    8  N1  UNL     1      84.709  -0.347  42.246  1.00  0.00    -0.064 N 
HETATM    9  C7  UNL     1      85.035  -1.749  42.548  1.00  0.00     0.248 C 
ATOM     10  H12 UNL     1      84.360   0.284  42.966  1.00  0.00     0.277 HD
ATOM     11  H11 UNL     1      83.898  -0.101  41.678  1.00  0.00     0.277 HD
BRANCH   9  12
HETATM   12  C8  UNL     1      85.651  -1.822  43.920  1.00  0.00     0.241 C 
BRANCH  12  13
HETATM   13  N2  UNL     1      84.581  -1.673  44.888  1.00  0.00    -0.071 N 
ATOM     14  H23 UNL     1      83.665  -1.912  44.508  1.00  0.00     0.274 HD
ATOM     15  H22 UNL     1      84.609  -2.379  45.623  1.00  0.00     0.274 HD
ATOM     16  H21 UNL     1      84.624  -0.719  45.250  1.00  0.00     0.274 HD
ENDBRANCH  12  13
BRANCH  12  17
HETATM   17  C9  UNL     1      86.360  -3.135  44.171  1.00  0.00     0.264 C 
BRANCH  17  18
HETATM   18  N3  UNL     1      85.766  -3.809  45.304  1.00  0.00    -0.077 N 
ATOM     19  H33 UNL     1      84.921  -4.319  45.046  1.00  0.00     0.274 HD
ATOM     20  H32 UNL     1      86.329  -4.601  45.616  1.00  0.00     0.274 HD
ATOM     21  H31 UNL     1      85.594  -3.142  46.057  1.00  0.00     0.274 HD
ENDBRANCH  17  18
ENDBRANCH  12  17
ENDBRANCH   9  12
ENDBRANCH   5   6
ENDBRANCH   4   5
ENDBRANCH   3   4
TORSDOF 7
ENDMDL
