MODEL 1
REMARK VINA RESULT: -10.656583499      0.000      0.000
REMARK  6 active torsions:
REMARK  status: ('A' for Active; 'I' for Inactive)
REMARK       I    between atoms: C1_2  and  N1_3 
REMARK    1  A    between atoms: C1_2  and  C8_11 
REMARK    2  A    between atoms: N1_3  and  C2_5 
REMARK    3  A    between atoms: C2_5  and  C3_6 
REMARK    4  A    between atoms: C10_13  and  S1_14 
REMARK    5  A    between atoms: S1_14  and  N2_17 
REMARK       I    between atoms: N2_17  and  C11_19 
REMARK    6  A    between atoms: C11_19  and  C12_21 
ROOT
HETATM    1  S1  UNL     1       5.781   7.617  19.095  1.00  0.00     0.271 S 
HETATM    2  O2  UNL     1       6.623   8.624  18.331  1.00  0.00    -0.200 OA
HETATM    3  O3  UNL     1       4.345   7.904  18.855  1.00  0.00    -0.200 OA
ENDROOT
BRANCH   1   4
HETATM    4  C10 UNL     1       6.193   7.858  20.805  1.00  0.00     0.123 A 
HETATM    5  C9  UNL     1       7.238   8.592  21.303  1.00  0.00     0.052 A 
HETATM    6  C8  UNL     1       7.362   8.643  22.649  1.00  0.00     0.062 A 
HETATM    7  C22 UNL     1       6.436   7.959  23.383  1.00  0.00     0.091 A 
HETATM    8  S2  UNL     1       5.425   7.270  22.199  1.00  0.00    -0.063 SA
HETATM    9 CL1  UNL     1       6.333   7.833  25.155  1.00  0.00    -0.075 Cl
BRANCH   6  10
HETATM   10  C1  UNL     1       8.437   9.406  23.366  1.00  0.00     0.253 C 
HETATM   11  O1  UNL     1       8.446  10.652  23.328  1.00  0.00    -0.268 OA
HETATM   12  N1  UNL     1       9.432   8.715  24.081  1.00  0.00    -0.356 N 
ATOM     13  H1  UNL     1       9.413   7.695  24.099  1.00  0.00     0.162 HD
BRANCH  12  14
HETATM   14  C2  UNL     1      10.468   9.403  24.781  1.00  0.00     0.127 C 
BRANCH  14  15
HETATM   15  C3  UNL     1      10.568   8.925  26.190  1.00  0.00     0.003 C 
HETATM   16  C4  UNL     1      11.847   8.076  26.299  1.00  0.00     0.006 C 
HETATM   17  C5  UNL     1      11.540   7.268  27.539  1.00  0.00     0.000 C 
HETATM   18  C6  UNL     1      10.125   6.802  27.272  1.00  0.00     0.000 C 
HETATM   19  C7  UNL     1       9.480   7.954  26.564  1.00  0.00     0.006 C 
ENDBRANCH  14  15
ENDBRANCH  12  14
ENDBRANCH   6  10
ENDBRANCH   1   4
BRANCH   1  20
HETATM   20  N2  UNL     1       6.154   6.006  18.633  1.00  0.00    -0.249 N 
HETATM   21  C11 UNL     1       7.392   5.375  18.899  1.00  0.00     0.240 C 
HETATM   22  O4  UNL     1       8.288   5.990  19.502  1.00  0.00    -0.272 OA
ATOM     23  H2  UNL     1       5.441   5.472  18.137  1.00  0.00     0.182 HD
BRANCH  21  24
HETATM   24  C12 UNL     1       7.628   3.984  18.462  1.00  0.00     0.043 C 
HETATM   25  C13 UNL     1       9.133   3.745  18.610  1.00  0.00     0.024 C 
HETATM   26  C14 UNL     1       9.520   2.351  18.186  1.00  0.00    -0.013 C 
HETATM   27  C15 UNL     1       9.131   2.177  16.731  1.00  0.00     0.009 C 
HETATM   28  C19 UNL     1       8.781   1.328  19.003  1.00  0.00     0.009 C 
HETATM   29  C16 UNL     1       7.653   2.390  16.574  1.00  0.00    -0.013 C 
HETATM   30  C17 UNL     1       6.844   1.448  17.418  1.00  0.00     0.009 C 
HETATM   31  C21 UNL     1       7.327   3.807  16.996  1.00  0.00     0.024 C 
HETATM   32  C18 UNL     1       7.298   1.594  18.864  1.00  0.00    -0.013 C 
HETATM   33  C20 UNL     1       6.926   2.978  19.324  1.00  0.00     0.024 C 
ENDBRANCH  21  24
ENDBRANCH   1  20
TORSDOF 6
ENDMDL
MODEL 2
REMARK VINA RESULT: -10.560278171      0.652      1.456
REMARK  6 active torsions:
REMARK  status: ('A' for Active; 'I' for Inactive)
REMARK       I    between atoms: C1_2  and  N1_3 
REMARK    1  A    between atoms: C1_2  and  C8_11 
REMARK    2  A    between atoms: N1_3  and  C2_5 
REMARK    3  A    between atoms: C2_5  and  C3_6 
REMARK    4  A    between atoms: C10_13  and  S1_14 
REMARK    5  A    between atoms: S1_14  and  N2_17 
REMARK       I    between atoms: N2_17  and  C11_19 
REMARK    6  A    between atoms: C11_19  and  C12_21 
ROOT
HETATM    1  S1  UNL     1       6.221   7.636  18.981  1.00  0.00     0.271 S 
HETATM    2  O2  UNL     1       6.791   8.841  18.254  1.00  0.00    -0.200 OA
HETATM    3  O3  UNL     1       4.767   7.539  18.698  1.00  0.00    -0.200 OA
ENDROOT
BRANCH   1   4
HETATM    4  C10 UNL     1       6.507   7.947  20.705  1.00  0.00     0.123 A 
HETATM    5  C9  UNL     1       7.567   8.619  21.255  1.00  0.00     0.052 A 
HETATM    6  C8  UNL     1       7.580   8.743  22.602  1.00  0.00     0.062 A 
HETATM    7  C22 UNL     1       6.537   8.187  23.286  1.00  0.00     0.091 A 
HETATM    8  S2  UNL     1       5.574   7.513  22.055  1.00  0.00    -0.063 SA
HETATM    9 CL1  UNL     1       6.274   8.180  25.046  1.00  0.00    -0.075 Cl
BRANCH   6  10
HETATM   10  C1  UNL     1       8.655   9.456  23.370  1.00  0.00     0.253 C 
HETATM   11  O1  UNL     1       8.639  10.700  23.450  1.00  0.00    -0.268 OA
HETATM   12  N1  UNL     1       9.675   8.720  23.999  1.00  0.00    -0.356 N 
ATOM     13  H1  UNL     1       9.675   7.703  23.920  1.00  0.00     0.162 HD
BRANCH  12  14
HETATM   14  C2  UNL     1      10.711   9.360  24.744  1.00  0.00     0.127 C 
BRANCH  14  15
HETATM   15  C3  UNL     1      10.696   8.916  26.167  1.00  0.00     0.003 C 
HETATM   16  C4  UNL     1      11.922   8.012  26.381  1.00  0.00     0.006 C 
HETATM   17  C5  UNL     1      11.497   7.252  27.617  1.00  0.00     0.000 C 
HETATM   18  C6  UNL     1      10.081   6.845  27.268  1.00  0.00     0.000 C 
HETATM   19  C7  UNL     1       9.540   8.007  26.491  1.00  0.00     0.006 C 
ENDBRANCH  14  15
ENDBRANCH  12  14
ENDBRANCH   6  10
ENDBRANCH   1   4
BRANCH   1  20
HETATM   20  N2  UNL     1       7.017   6.187  18.516  1.00  0.00    -0.249 N 
HETATM   21  C11 UNL     1       6.638   4.899  18.965  1.00  0.00     0.240 C 
HETATM   22  O4  UNL     1       5.676   4.768  19.740  1.00  0.00    -0.272 OA
ATOM     23  H2  UNL     1       7.811   6.258  17.880  1.00  0.00     0.182 HD
BRANCH  21  24
HETATM   24  C12 UNL     1       7.382   3.705  18.515  1.00  0.00     0.043 C 
HETATM   25  C13 UNL     1       7.148   3.606  17.005  1.00  0.00     0.024 C 
HETATM   26  C14 UNL     1       7.853   2.414  16.410  1.00  0.00    -0.013 C 
HETATM   27  C15 UNL     1       7.310   1.165  17.077  1.00  0.00     0.009 C 
HETATM   28  C19 UNL     1       9.332   2.490  16.671  1.00  0.00     0.009 C 
HETATM   29  C16 UNL     1       7.549   1.240  18.558  1.00  0.00    -0.013 C 
HETATM   30  C17 UNL     1       9.004   1.390  18.898  1.00  0.00     0.009 C 
HETATM   31  C21 UNL     1       6.807   2.442  19.102  1.00  0.00     0.024 C 
HETATM   32  C18 UNL     1       9.542   2.611  18.165  1.00  0.00    -0.013 C 
HETATM   33  C20 UNL     1       8.860   3.826  18.735  1.00  0.00     0.024 C 
ENDBRANCH  21  24
ENDBRANCH   1  20
TORSDOF 6
ENDMDL
MODEL 3
REMARK VINA RESULT: -10.229633320      2.393      2.976
REMARK  6 active torsions:
REMARK  status: ('A' for Active; 'I' for Inactive)
REMARK       I    between atoms: C1_2  and  N1_3 
REMARK    1  A    between atoms: C1_2  and  C8_11 
REMARK    2  A    between atoms: N1_3  and  C2_5 
REMARK    3  A    between atoms: C2_5  and  C3_6 
REMARK    4  A    between atoms: C10_13  and  S1_14 
REMARK    5  A    between atoms: S1_14  and  N2_17 
REMARK       I    between atoms: N2_17  and  C11_19 
REMARK    6  A    between atoms: C11_19  and  C12_21 
ROOT
HETATM    1  S1  UNL     1       3.379   3.900  21.381  1.00  0.00     0.271 S 
HETATM    2  O2  UNL     1       2.062   4.367  20.787  1.00  0.00    -0.200 OA
HETATM    3  O3  UNL     1       3.139   2.685  22.199  1.00  0.00    -0.200 OA
ENDROOT
BRANCH   1   4
HETATM    4  C10 UNL     1       3.940   5.242  22.398  1.00  0.00     0.123 A 
HETATM    5  C9  UNL     1       5.027   6.047  22.172  1.00  0.00     0.052 A 
HETATM    6  C8  UNL     1       5.268   7.018  23.082  1.00  0.00     0.062 A 
HETATM    7  C22 UNL     1       4.408   7.105  24.139  1.00  0.00     0.091 A 
HETATM    8  S2  UNL     1       3.296   5.849  23.846  1.00  0.00    -0.063 SA
HETATM    9 CL1  UNL     1       4.461   8.262  25.490  1.00  0.00    -0.075 Cl
BRANCH   6  10
HETATM   10  C1  UNL     1       6.404   7.994  22.989  1.00  0.00     0.253 C 
HETATM   11  O1  UNL     1       6.273   9.037  22.316  1.00  0.00    -0.268 OA
HETATM   12  N1  UNL     1       7.612   7.734  23.659  1.00  0.00    -0.356 N 
ATOM     13  H1  UNL     1       7.705   6.875  24.201  1.00  0.00     0.162 HD
BRANCH  12  14
HETATM   14  C2  UNL     1       8.714   8.640  23.600  1.00  0.00     0.127 C 
BRANCH  14  15
HETATM   15  C3  UNL     1       9.219   8.954  24.967  1.00  0.00     0.003 C 
HETATM   16  C4  UNL     1      10.755   8.869  24.922  1.00  0.00     0.006 C 
HETATM   17  C5  UNL     1      11.066   8.678  26.389  1.00  0.00     0.000 C 
HETATM   18  C6  UNL     1      10.079   7.602  26.786  1.00  0.00     0.000 C 
HETATM   19  C7  UNL     1       8.848   7.913  25.989  1.00  0.00     0.006 C 
ENDBRANCH  14  15
ENDBRANCH  12  14
ENDBRANCH   6  10
ENDBRANCH   1   4
BRANCH   1  20
HETATM   20  N2  UNL     1       4.542   3.577  20.159  1.00  0.00    -0.249 N 
HETATM   21  C11 UNL     1       5.805   2.991  20.408  1.00  0.00     0.240 C 
HETATM   22  O4  UNL     1       6.130   2.677  21.565  1.00  0.00    -0.272 OA
ATOM     23  H2  UNL     1       4.307   3.822  19.197  1.00  0.00     0.182 HD
BRANCH  21  24
HETATM   24  C12 UNL     1       6.747   2.751  19.294  1.00  0.00     0.043 C 
HETATM   25  C13 UNL     1       7.823   1.813  19.847  1.00  0.00     0.024 C 
HETATM   26  C14 UNL     1       8.864   1.488  18.807  1.00  0.00    -0.013 C 
HETATM   27  C15 UNL     1       9.515   2.785  18.370  1.00  0.00     0.009 C 
HETATM   28  C19 UNL     1       8.227   0.845  17.605  1.00  0.00     0.009 C 
HETATM   29  C16 UNL     1       8.473   3.709  17.809  1.00  0.00    -0.013 C 
HETATM   30  C17 UNL     1       7.740   3.107  16.644  1.00  0.00     0.009 C 
HETATM   31  C21 UNL     1       7.467   4.014  18.898  1.00  0.00     0.024 C 
HETATM   32  C18 UNL     1       7.152   1.775  17.088  1.00  0.00    -0.013 C 
HETATM   33  C20 UNL     1       6.102   2.061  18.129  1.00  0.00     0.024 C 
ENDBRANCH  21  24
ENDBRANCH   1  20
TORSDOF 6
ENDMDL
MODEL 4
REMARK VINA RESULT: -10.225472462      2.446      3.005
REMARK  6 active torsions:
REMARK  status: ('A' for Active; 'I' for Inactive)
REMARK       I    between atoms: C1_2  and  N1_3 
REMARK    1  A    between atoms: C1_2  and  C8_11 
REMARK    2  A    between atoms: N1_3  and  C2_5 
REMARK    3  A    between atoms: C2_5  and  C3_6 
REMARK    4  A    between atoms: C10_13  and  S1_14 
REMARK    5  A    between atoms: S1_14  and  N2_17 
REMARK       I    between atoms: N2_17  and  C11_19 
REMARK    6  A    between atoms: C11_19  and  C12_21 
ROOT
HETATM    1  S1  UNL     1       3.471   3.736  21.446  1.00  0.00     0.271 S 
HETATM    2  O2  UNL     1       2.153   4.159  20.822  1.00  0.00    -0.200 OA
HETATM    3  O3  UNL     1       3.243   2.545  22.302  1.00  0.00    -0.200 OA
ENDROOT
BRANCH   1   4
HETATM    4  C10 UNL     1       3.997   5.121  22.423  1.00  0.00     0.123 A 
HETATM    5  C9  UNL     1       5.073   5.936  22.182  1.00  0.00     0.052 A 
HETATM    6  C8  UNL     1       5.287   6.941  23.061  1.00  0.00     0.062 A 
HETATM    7  C22 UNL     1       4.413   7.049  24.104  1.00  0.00     0.091 A 
HETATM    8  S2  UNL     1       3.326   5.765  23.842  1.00  0.00    -0.063 SA
HETATM    9 CL1  UNL     1       4.431   8.252  25.416  1.00  0.00    -0.075 Cl
BRANCH   6  10
HETATM   10  C1  UNL     1       6.408   7.933  22.947  1.00  0.00     0.253 C 
HETATM   11  O1  UNL     1       6.272   8.944  22.229  1.00  0.00    -0.268 OA
HETATM   12  N1  UNL     1       7.607   7.723  23.650  1.00  0.00    -0.356 N 
ATOM     13  H1  UNL     1       7.704   6.889  24.230  1.00  0.00     0.162 HD
BRANCH  12  14
HETATM   14  C2  UNL     1       8.694   8.645  23.573  1.00  0.00     0.127 C 
BRANCH  14  15
HETATM   15  C3  UNL     1       9.214   8.970  24.932  1.00  0.00     0.003 C 
HETATM   16  C4  UNL     1      10.749   8.882  24.872  1.00  0.00     0.006 C 
HETATM   17  C5  UNL     1      11.076   8.703  26.337  1.00  0.00     0.000 C 
HETATM   18  C6  UNL     1      10.091   7.632  26.753  1.00  0.00     0.000 C 
HETATM   19  C7  UNL     1       8.853   7.938  25.967  1.00  0.00     0.006 C 
ENDBRANCH  14  15
ENDBRANCH  12  14
ENDBRANCH   6  10
ENDBRANCH   1   4
BRANCH   1  20
HETATM   20  N2  UNL     1       4.652   3.393  20.247  1.00  0.00    -0.249 N 
HETATM   21  C11 UNL     1       5.913   2.813  20.526  1.00  0.00     0.240 C 
HETATM   22  O4  UNL     1       6.220   2.520  21.693  1.00  0.00    -0.272 OA
ATOM     23  H2  UNL     1       4.432   3.620  19.278  1.00  0.00     0.182 HD
BRANCH  21  24
HETATM   24  C12 UNL     1       6.871   2.555  19.431  1.00  0.00     0.043 C 
HETATM   25  C13 UNL     1       7.484   3.912  19.078  1.00  0.00     0.024 C 
HETATM   26  C14 UNL     1       8.486   3.795  17.957  1.00  0.00    -0.013 C 
HETATM   27  C15 UNL     1       7.768   3.245  16.740  1.00  0.00     0.009 C 
HETATM   28  C19 UNL     1       9.589   2.844  18.332  1.00  0.00     0.009 C 
HETATM   29  C16 UNL     1       7.176   1.905  17.066  1.00  0.00    -0.013 C 
HETATM   30  C17 UNL     1       8.211   0.915  17.519  1.00  0.00     0.009 C 
HETATM   31  C21 UNL     1       6.169   2.085  18.183  1.00  0.00     0.024 C 
HETATM   32  C18 UNL     1       8.962   1.516  18.699  1.00  0.00    -0.013 C 
HETATM   33  C20 UNL     1       7.991   1.647  19.843  1.00  0.00     0.024 C 
ENDBRANCH  21  24
ENDBRANCH   1  20
TORSDOF 6
ENDMDL
MODEL 5
REMARK VINA RESULT: -10.143845914      3.055      3.790
REMARK  6 active torsions:
REMARK  status: ('A' for Active; 'I' for Inactive)
REMARK       I    between atoms: C1_2  and  N1_3 
REMARK    1  A    between atoms: C1_2  and  C8_11 
REMARK    2  A    between atoms: N1_3  and  C2_5 
REMARK    3  A    between atoms: C2_5  and  C3_6 
REMARK    4  A    between atoms: C10_13  and  S1_14 
REMARK    5  A    between atoms: S1_14  and  N2_17 
REMARK       I    between atoms: N2_17  and  C11_19 
REMARK    6  A    between atoms: C11_19  and  C12_21 
ROOT
HETATM    1  S1  UNL     1       3.540   2.672  22.033  1.00  0.00     0.271 S 
HETATM    2  O2  UNL     1       2.096   2.478  21.605  1.00  0.00    -0.200 OA
HETATM    3  O3  UNL     1       3.922   1.582  22.965  1.00  0.00    -0.200 OA
ENDROOT
BRANCH   1   4
HETATM    4  C10 UNL     1       3.581   4.245  22.854  1.00  0.00     0.123 A 
HETATM    5  C9  UNL     1       4.585   5.177  22.794  1.00  0.00     0.052 A 
HETATM    6  C8  UNL     1       4.403   6.317  23.501  1.00  0.00     0.062 A 
HETATM    7  C22 UNL     1       3.239   6.430  24.205  1.00  0.00     0.091 A 
HETATM    8  S2  UNL     1       2.433   4.968  23.873  1.00  0.00    -0.063 SA
HETATM    9 CL1  UNL     1       2.715   7.793  25.223  1.00  0.00    -0.075 Cl
BRANCH   6  10
HETATM   10  C1  UNL     1       5.390   7.446  23.542  1.00  0.00     0.253 C 
HETATM   11  O1  UNL     1       5.460   8.245  22.587  1.00  0.00    -0.268 OA
HETATM   12  N1  UNL     1       6.232   7.604  24.658  1.00  0.00    -0.356 N 
ATOM     13  H1  UNL     1       6.165   6.940  25.429  1.00  0.00     0.162 HD
BRANCH  12  14
HETATM   14  C2  UNL     1       7.180   8.669  24.738  1.00  0.00     0.127 C 
BRANCH  14  15
HETATM   15  C3  UNL     1       8.569   8.139  24.852  1.00  0.00     0.003 C 
HETATM   16  C4  UNL     1       8.887   7.998  26.351  1.00  0.00     0.006 C 
HETATM   17  C5  UNL     1      10.398   7.983  26.314  1.00  0.00     0.000 C 
HETATM   18  C6  UNL     1      10.706   9.145  25.396  1.00  0.00     0.000 C 
HETATM   19  C7  UNL     1       9.614   9.109  24.370  1.00  0.00     0.006 C 
ENDBRANCH  14  15
ENDBRANCH  12  14
ENDBRANCH   6  10
ENDBRANCH   1   4
BRANCH   1  20
HETATM   20  N2  UNL     1       4.598   2.699  20.680  1.00  0.00    -0.249 N 
HETATM   21  C11 UNL     1       6.005   2.583  20.777  1.00  0.00     0.240 C 
HETATM   22  O4  UNL     1       6.545   2.452  21.888  1.00  0.00    -0.272 OA
ATOM     23  H2  UNL     1       4.188   2.804  19.752  1.00  0.00     0.182 HD
BRANCH  21  24
HETATM   24  C12 UNL     1       6.840   2.619  19.558  1.00  0.00     0.043 C 
HETATM   25  C13 UNL     1       7.996   1.647  19.811  1.00  0.00     0.024 C 
HETATM   26  C14 UNL     1       8.941   1.590  18.638  1.00  0.00    -0.013 C 
HETATM   27  C15 UNL     1       9.503   2.980  18.418  1.00  0.00     0.009 C 
HETATM   28  C19 UNL     1       8.211   1.167  17.393  1.00  0.00     0.009 C 
HETATM   29  C16 UNL     1       8.381   3.942  18.151  1.00  0.00    -0.013 C 
HETATM   30  C17 UNL     1       7.558   3.547  16.958  1.00  0.00     0.009 C 
HETATM   31  C21 UNL     1       7.476   3.971  19.365  1.00  0.00     0.024 C 
HETATM   32  C18 UNL     1       7.060   2.124  17.173  1.00  0.00    -0.013 C 
HETATM   33  C20 UNL     1       6.108   2.142  18.340  1.00  0.00     0.024 C 
ENDBRANCH  21  24
ENDBRANCH   1  20
TORSDOF 6
ENDMDL
