MODEL 1
REMARK VINA RESULT: -7.990699044      0.000      0.000
REMARK  10 active torsions:
REMARK  status: ('A' for Active; 'I' for Inactive)
REMARK    1  A    between atoms: O1_2  and  C2_3 
REMARK    2  A    between atoms: C5_6  and  C6_7 
REMARK    3  A    between atoms: C9_10  and  C10_11 
REMARK    4  A    between atoms: C10_11  and  O2_14 
REMARK    5  A    between atoms: N2_19  and  C14_21 
REMARK    6  A    between atoms: C14_21  and  C15_22 
REMARK    7  A    between atoms: C15_22  and  C16_23 
REMARK    8  A    between atoms: C17_24  and  C18_25 
REMARK    9  A    between atoms: C18_25  and  O3_27 
REMARK   10  A    between atoms: C18_25  and  C21_29 
ROOT
HETATM    1  C6  UNL     1       6.352   4.292  19.334  1.00  0.00     0.007 A 
HETATM    2  C7  UNL     1       5.968   5.363  18.543  1.00  0.00    -0.024 A 
HETATM    3  C8  UNL     1       6.497   5.397  17.184  1.00  0.00     0.051 C 
HETATM    4  C9  UNL     1       5.138   6.351  19.006  1.00  0.00     0.051 A 
HETATM    5  N1  UNL     1       4.713   6.216  20.298  1.00  0.00    -0.342 N 
ATOM      6  H1  UNL     1       4.095   6.935  20.673  1.00  0.00     0.167 HD
HETATM    7  C13 UNL     1       5.052   5.205  21.106  1.00  0.00     0.123 A 
HETATM    8  N2  UNL     1       4.637   5.102  22.326  1.00  0.00    -0.374 N 
ATOM      9  H2  UNL     1       4.927   4.310  22.898  1.00  0.00     0.161 HD
HETATM   10  C25 UNL     1       5.897   4.212  20.612  1.00  0.00     0.100 A 
HETATM   11  C26 UNL     1       6.255   3.132  21.484  1.00  0.00     0.104 C 
HETATM   12  N4  UNL     1       6.556   2.265  22.186  1.00  0.00    -0.191 NA
ENDROOT
BRANCH   1  13
HETATM   13  C5  UNL     1       7.232   3.274  18.790  1.00  0.00    -0.024 A 
HETATM   14  C4  UNL     1       6.809   2.131  18.191  1.00  0.00     0.015 A 
HETATM   15  C3  UNL     1       7.693   1.201  17.692  1.00  0.00     0.037 A 
HETATM   16  C2  UNL     1       9.057   1.372  17.768  1.00  0.00     0.068 A 
HETATM   17  C28 UNL     1       9.490   2.532  18.376  1.00  0.00     0.037 A 
HETATM   18  C27 UNL     1       8.617   3.467  18.879  1.00  0.00     0.015 A 
BRANCH  16  19
HETATM   19  O1  UNL     1       9.940   0.421  17.259  1.00  0.00    -0.356 OA
HETATM   20  C1  UNL     1       9.497  -0.850  16.829  1.00  0.00     0.210 C 
ENDBRANCH  16  19
ENDBRANCH   1  13
BRANCH   8  21
HETATM   21  C14 UNL     1       3.770   6.098  22.870  1.00  0.00     0.133 C 
BRANCH  21  22
HETATM   22  C15 UNL     1       4.369   6.787  24.080  1.00  0.00     0.113 C 
BRANCH  22  23
HETATM   23  C16 UNL     1       5.647   7.415  23.759  1.00  0.00    -0.102 C 
HETATM   24  C17 UNL     1       6.711   7.927  23.474  1.00  0.00    -0.066 C 
BRANCH  24  25
HETATM   25  C18 UNL     1       8.000   8.537  23.103  1.00  0.00     0.147 C 
HETATM   26  C19 UNL     1       7.727  10.044  23.053  1.00  0.00     0.062 C 
BRANCH  25  27
HETATM   27  O3  UNL     1       8.438   8.082  21.873  1.00  0.00    -0.370 OA
HETATM   28  C20 UNL     1       8.535   9.034  20.892  1.00  0.00     0.204 C 
ENDBRANCH  25  27
BRANCH  25  29
HETATM   29  C21 UNL     1       9.012   8.204  24.149  1.00  0.00     0.235 C 
HETATM   30  C22 UNL     1       9.862   9.412  24.520  1.00  0.00     0.076 C 
HETATM   31  C23 UNL     1      10.453   8.957  25.837  1.00  0.00     0.197 C 
HETATM   32  F1  UNL     1      11.545   8.142  25.524  1.00  0.00    -0.248 F 
HETATM   33  C24 UNL     1       9.353   8.138  26.442  1.00  0.00     0.270 C 
HETATM   34  N3  UNL     1       8.445   7.770  25.387  1.00  0.00    -0.064 N 
ATOM     35  H32 UNL     1       7.500   8.126  25.536  1.00  0.00     0.277 HD
ATOM     36  H31 UNL     1       8.217   6.776  25.390  1.00  0.00     0.277 HD
ENDBRANCH  25  29
ENDBRANCH  24  25
ENDBRANCH  22  23
ENDBRANCH  21  22
ENDBRANCH   8  21
BRANCH   4  37
HETATM   37  C10 UNL     1       4.701   7.507  18.185  1.00  0.00     0.093 C 
HETATM   38  C11 UNL     1       4.066   7.119  16.879  1.00  0.00     0.052 C 
HETATM   39  C12 UNL     1       5.746   8.590  18.066  1.00  0.00     0.052 C 
BRANCH  37  40
HETATM   40  O2  UNL     1       3.644   8.122  18.913  1.00  0.00    -0.384 OA
ATOM     41  H2  UNL     1       3.983   8.265  19.789  1.00  0.00     0.211 HD
ENDBRANCH  37  40
ENDBRANCH   4  37
TORSDOF 10
ENDMDL
MODEL 2
REMARK VINA RESULT: -7.915846585      0.685      1.148
REMARK  10 active torsions:
REMARK  status: ('A' for Active; 'I' for Inactive)
REMARK    1  A    between atoms: O1_2  and  C2_3 
REMARK    2  A    between atoms: C5_6  and  C6_7 
REMARK    3  A    between atoms: C9_10  and  C10_11 
REMARK    4  A    between atoms: C10_11  and  O2_14 
REMARK    5  A    between atoms: N2_19  and  C14_21 
REMARK    6  A    between atoms: C14_21  and  C15_22 
REMARK    7  A    between atoms: C15_22  and  C16_23 
REMARK    8  A    between atoms: C17_24  and  C18_25 
REMARK    9  A    between atoms: C18_25  and  O3_27 
REMARK   10  A    between atoms: C18_25  and  C21_29 
ROOT
HETATM    1  C6  UNL     1       6.565   4.039  19.105  1.00  0.00     0.007 A 
HETATM    2  C7  UNL     1       6.136   5.017  18.223  1.00  0.00    -0.024 A 
HETATM    3  C8  UNL     1       6.685   4.966  16.872  1.00  0.00     0.051 C 
HETATM    4  C9  UNL     1       5.245   5.992  18.591  1.00  0.00     0.051 A 
HETATM    5  N1  UNL     1       4.807   5.942  19.884  1.00  0.00    -0.342 N 
ATOM      6  H1  UNL     1       4.144   6.655  20.189  1.00  0.00     0.167 HD
HETATM    7  C13 UNL     1       5.186   5.023  20.778  1.00  0.00     0.123 A 
HETATM    8  N2  UNL     1       4.757   4.999  21.997  1.00  0.00    -0.374 N 
ATOM      9  H2  UNL     1       5.081   4.275  22.638  1.00  0.00     0.161 HD
HETATM   10  C25 UNL     1       6.093   4.040  20.380  1.00  0.00     0.100 A 
HETATM   11  C26 UNL     1       6.495   3.059  21.344  1.00  0.00     0.104 C 
HETATM   12  N4  UNL     1       6.830   2.271  22.121  1.00  0.00    -0.191 NA
ENDROOT
BRANCH   1  13
HETATM   13  C5  UNL     1       7.508   3.029  18.660  1.00  0.00    -0.024 A 
HETATM   14  C4  UNL     1       8.857   3.131  18.777  1.00  0.00     0.015 A 
HETATM   15  C3  UNL     1       9.702   2.138  18.337  1.00  0.00     0.037 A 
HETATM   16  C2  UNL     1       9.233   0.982  17.753  1.00  0.00     0.068 A 
HETATM   17  C28 UNL     1       7.863   0.875  17.634  1.00  0.00     0.037 A 
HETATM   18  C27 UNL     1       7.010   1.860  18.069  1.00  0.00     0.015 A 
BRANCH  16  19
HETATM   19  O1  UNL     1      10.102  -0.016  17.312  1.00  0.00    -0.356 OA
HETATM   20  C1  UNL     1       9.632  -1.168  16.643  1.00  0.00     0.210 C 
ENDBRANCH  16  19
ENDBRANCH   1  13
BRANCH   8  21
HETATM   21  C14 UNL     1       3.828   5.987  22.445  1.00  0.00     0.133 C 
BRANCH  21  22
HETATM   22  C15 UNL     1       4.322   6.732  23.668  1.00  0.00     0.113 C 
BRANCH  22  23
HETATM   23  C16 UNL     1       5.611   7.372  23.420  1.00  0.00    -0.102 C 
HETATM   24  C17 UNL     1       6.679   7.904  23.192  1.00  0.00    -0.066 C 
BRANCH  24  25
HETATM   25  C18 UNL     1       7.967   8.552  22.889  1.00  0.00     0.147 C 
HETATM   26  C19 UNL     1       7.659  10.052  22.853  1.00  0.00     0.062 C 
BRANCH  25  27
HETATM   27  O3  UNL     1       8.470   8.130  21.673  1.00  0.00    -0.370 OA
HETATM   28  C20 UNL     1       8.464   9.068  20.674  1.00  0.00     0.204 C 
ENDBRANCH  25  27
BRANCH  25  29
HETATM   29  C21 UNL     1       8.940   8.225  23.974  1.00  0.00     0.235 C 
HETATM   30  C22 UNL     1       9.781   9.433  24.364  1.00  0.00     0.076 C 
HETATM   31  C23 UNL     1      10.322   8.988  25.705  1.00  0.00     0.197 C 
HETATM   32  F1  UNL     1      11.422   8.166  25.439  1.00  0.00    -0.248 F 
HETATM   33  C24 UNL     1       9.198   8.178  26.277  1.00  0.00     0.270 C 
HETATM   34  N3  UNL     1       8.327   7.803  25.194  1.00  0.00    -0.064 N 
ATOM     35  H32 UNL     1       7.380   8.164  25.306  1.00  0.00     0.277 HD
ATOM     36  H31 UNL     1       8.096   6.810  25.198  1.00  0.00     0.277 HD
ENDBRANCH  25  29
ENDBRANCH  24  25
ENDBRANCH  22  23
ENDBRANCH  21  22
ENDBRANCH   8  21
BRANCH   4  37
HETATM   37  C10 UNL     1       4.760   7.049  17.669  1.00  0.00     0.093 C 
HETATM   38  C11 UNL     1       3.909   8.092  18.337  1.00  0.00     0.052 C 
HETATM   39  C12 UNL     1       4.182   6.510  16.384  1.00  0.00     0.052 C 
BRANCH  37  40
HETATM   40  O2  UNL     1       5.920   7.765  17.257  1.00  0.00    -0.384 OA
ATOM     41  H2  UNL     1       5.918   8.571  17.759  1.00  0.00     0.211 HD
ENDBRANCH  37  40
ENDBRANCH   4  37
TORSDOF 10
ENDMDL
MODEL 3
REMARK VINA RESULT: -7.755750143      4.619      7.960
REMARK  10 active torsions:
REMARK  status: ('A' for Active; 'I' for Inactive)
REMARK    1  A    between atoms: O1_2  and  C2_3 
REMARK    2  A    between atoms: C5_6  and  C6_7 
REMARK    3  A    between atoms: C9_10  and  C10_11 
REMARK    4  A    between atoms: C10_11  and  O2_14 
REMARK    5  A    between atoms: N2_19  and  C14_21 
REMARK    6  A    between atoms: C14_21  and  C15_22 
REMARK    7  A    between atoms: C15_22  and  C16_23 
REMARK    8  A    between atoms: C17_24  and  C18_25 
REMARK    9  A    between atoms: C18_25  and  O3_27 
REMARK   10  A    between atoms: C18_25  and  C21_29 
ROOT
HETATM    1  C6  UNL     1       7.521   8.300  21.229  1.00  0.00     0.007 A 
HETATM    2  C7  UNL     1       7.209   7.106  20.599  1.00  0.00    -0.024 A 
HETATM    3  C8  UNL     1       7.288   5.897  21.412  1.00  0.00     0.051 C 
HETATM    4  C9  UNL     1       6.849   7.051  19.278  1.00  0.00     0.051 A 
HETATM    5  N1  UNL     1       6.818   8.247  18.618  1.00  0.00    -0.342 N 
ATOM      6  H1  UNL     1       6.554   8.238  17.632  1.00  0.00     0.167 HD
HETATM    7  C13 UNL     1       7.108   9.427  19.173  1.00  0.00     0.123 A 
HETATM    8  N2  UNL     1       7.072  10.545  18.525  1.00  0.00    -0.374 N 
ATOM      9  H2  UNL     1       7.305  11.418  18.999  1.00  0.00     0.161 HD
HETATM   10  C25 UNL     1       7.472   9.459  20.520  1.00  0.00     0.100 A 
HETATM   11  C26 UNL     1       7.782  10.728  21.108  1.00  0.00     0.104 C 
HETATM   12  N4  UNL     1       8.042  11.749  21.585  1.00  0.00    -0.191 NA
ENDROOT
BRANCH   1  13
HETATM   13  C5  UNL     1       7.893   8.300  22.632  1.00  0.00    -0.024 A 
HETATM   14  C4  UNL     1       7.053   7.987  23.651  1.00  0.00     0.015 A 
HETATM   15  C3  UNL     1       7.466   8.003  24.965  1.00  0.00     0.037 A 
HETATM   16  C2  UNL     1       8.753   8.336  25.324  1.00  0.00     0.068 A 
HETATM   17  C28 UNL     1       9.608   8.654  24.291  1.00  0.00     0.037 A 
HETATM   18  C27 UNL     1       9.208   8.642  22.976  1.00  0.00     0.015 A 
BRANCH  16  19
HETATM   19  O1  UNL     1       9.156   8.348  26.659  1.00  0.00    -0.356 OA
HETATM   20  C1  UNL     1      10.175   7.493  27.136  1.00  0.00     0.210 C 
ENDBRANCH  16  19
ENDBRANCH   1  13
BRANCH   8  21
HETATM   21  C14 UNL     1       6.706  10.557  17.145  1.00  0.00     0.133 C 
BRANCH  21  22
HETATM   22  C15 UNL     1       5.238  10.871  16.938  1.00  0.00     0.113 C 
BRANCH  22  23
HETATM   23  C16 UNL     1       4.921  12.236  17.348  1.00  0.00    -0.102 C 
HETATM   24  C17 UNL     1       4.677  13.374  17.697  1.00  0.00    -0.066 C 
BRANCH  24  25
HETATM   25  C18 UNL     1       4.407  14.758  18.124  1.00  0.00     0.147 C 
HETATM   26  C19 UNL     1       2.882  14.897  18.081  1.00  0.00     0.062 C 
BRANCH  25  27
HETATM   27  O3  UNL     1       5.003  15.672  17.276  1.00  0.00    -0.370 OA
HETATM   28  C20 UNL     1       4.325  15.925  16.112  1.00  0.00     0.204 C 
ENDBRANCH  25  27
BRANCH  25  29
HETATM   29  C21 UNL     1       4.929  14.947  19.511  1.00  0.00     0.235 C 
HETATM   30  C22 UNL     1       5.868  16.143  19.605  1.00  0.00     0.076 C 
HETATM   31  C23 UNL     1       5.887  16.378  21.099  1.00  0.00     0.197 C 
HETATM   32  F1  UNL     1       6.806  15.471  21.634  1.00  0.00    -0.248 F 
HETATM   33  C24 UNL     1       4.496  16.015  21.522  1.00  0.00     0.270 C 
HETATM   34  N3  UNL     1       3.913  15.209  20.481  1.00  0.00    -0.064 N 
ATOM     35  H32 UNL     1       3.078  15.631  20.075  1.00  0.00     0.277 HD
ATOM     36  H31 UNL     1       3.477  14.359  20.836  1.00  0.00     0.277 HD
ENDBRANCH  25  29
ENDBRANCH  24  25
ENDBRANCH  22  23
ENDBRANCH  21  22
ENDBRANCH   8  21
BRANCH   4  37
HETATM   37  C10 UNL     1       6.503   5.790  18.575  1.00  0.00     0.093 C 
HETATM   38  C11 UNL     1       5.176   5.214  18.980  1.00  0.00     0.052 C 
HETATM   39  C12 UNL     1       7.630   4.787  18.547  1.00  0.00     0.052 C 
BRANCH  37  40
HETATM   40  O2  UNL     1       6.320   6.147  17.208  1.00  0.00    -0.384 OA
ATOM     41  H2  UNL     1       6.506   5.360  16.709  1.00  0.00     0.211 HD
ENDBRANCH  37  40
ENDBRANCH   4  37
TORSDOF 10
ENDMDL
MODEL 4
REMARK VINA RESULT: -7.717537744      2.115      3.755
REMARK  10 active torsions:
REMARK  status: ('A' for Active; 'I' for Inactive)
REMARK    1  A    between atoms: O1_2  and  C2_3 
REMARK    2  A    between atoms: C5_6  and  C6_7 
REMARK    3  A    between atoms: C9_10  and  C10_11 
REMARK    4  A    between atoms: C10_11  and  O2_14 
REMARK    5  A    between atoms: N2_19  and  C14_21 
REMARK    6  A    between atoms: C14_21  and  C15_22 
REMARK    7  A    between atoms: C15_22  and  C16_23 
REMARK    8  A    between atoms: C17_24  and  C18_25 
REMARK    9  A    between atoms: C18_25  and  O3_27 
REMARK   10  A    between atoms: C18_25  and  C21_29 
ROOT
HETATM    1  C6  UNL     1       5.659   4.717  19.695  1.00  0.00     0.007 A 
HETATM    2  C7  UNL     1       5.166   4.592  20.984  1.00  0.00    -0.024 A 
HETATM    3  C8  UNL     1       5.551   3.392  21.719  1.00  0.00     0.051 C 
HETATM    4  C9  UNL     1       4.352   5.540  21.548  1.00  0.00     0.051 A 
HETATM    5  N1  UNL     1       4.053   6.615  20.760  1.00  0.00    -0.342 N 
ATOM      6  H1  UNL     1       3.448   7.337  21.152  1.00  0.00     0.167 HD
HETATM    7  C13 UNL     1       4.499   6.787  19.512  1.00  0.00     0.123 A 
HETATM    8  N2  UNL     1       4.200   7.815  18.787  1.00  0.00    -0.374 N 
ATOM      9  H2  UNL     1       4.567   7.895  17.839  1.00  0.00     0.161 HD
HETATM   10  C25 UNL     1       5.327   5.810  18.959  1.00  0.00     0.100 A 
HETATM   11  C26 UNL     1       5.800   6.003  17.620  1.00  0.00     0.104 C 
HETATM   12  N4  UNL     1       6.177   6.148  16.537  1.00  0.00    -0.191 NA
ENDROOT
BRANCH   1  13
HETATM   13  C5  UNL     1       6.519   3.684  19.149  1.00  0.00    -0.024 A 
HETATM   14  C4  UNL     1       6.075   2.560  18.529  1.00  0.00     0.015 A 
HETATM   15  C3  UNL     1       6.941   1.614  18.029  1.00  0.00     0.037 A 
HETATM   16  C2  UNL     1       8.309   1.750  18.125  1.00  0.00     0.068 A 
HETATM   17  C28 UNL     1       8.763   2.890  18.753  1.00  0.00     0.037 A 
HETATM   18  C27 UNL     1       7.908   3.841  19.256  1.00  0.00     0.015 A 
BRANCH  16  19
HETATM   19  O1  UNL     1       9.174   0.783  17.613  1.00  0.00    -0.356 OA
HETATM   20  C1  UNL     1      10.391   0.462  18.254  1.00  0.00     0.210 C 
ENDBRANCH  16  19
ENDBRANCH   1  13
BRANCH   8  21
HETATM   21  C14 UNL     1       3.354   8.838  19.314  1.00  0.00     0.133 C 
BRANCH  21  22
HETATM   22  C15 UNL     1       3.952  10.221  19.157  1.00  0.00     0.113 C 
BRANCH  22  23
HETATM   23  C16 UNL     1       5.270  10.308  19.780  1.00  0.00    -0.102 C 
HETATM   24  C17 UNL     1       6.365  10.402  20.297  1.00  0.00    -0.066 C 
BRANCH  24  25
HETATM   25  C18 UNL     1       7.690  10.544  20.924  1.00  0.00     0.147 C 
HETATM   26  C19 UNL     1       8.040  12.029  20.784  1.00  0.00     0.062 C 
BRANCH  25  27
HETATM   27  O3  UNL     1       8.635   9.760  20.289  1.00  0.00    -0.370 OA
HETATM   28  C20 UNL     1       8.136   8.765  19.489  1.00  0.00     0.204 C 
ENDBRANCH  25  27
BRANCH  25  29
HETATM   29  C21 UNL     1       7.592  10.143  22.360  1.00  0.00     0.235 C 
HETATM   30  C22 UNL     1       6.891   8.802  22.528  1.00  0.00     0.076 C 
HETATM   31  C23 UNL     1       7.307   8.433  23.935  1.00  0.00     0.197 C 
HETATM   32  F1  UNL     1       6.447   9.118  24.798  1.00  0.00    -0.248 F 
HETATM   33  C24 UNL     1       8.695   8.988  24.040  1.00  0.00     0.270 C 
HETATM   34  N3  UNL     1       8.857   9.972  23.001  1.00  0.00    -0.064 N 
ATOM     35  H32 UNL     1       9.604   9.736  22.347  1.00  0.00     0.277 HD
ATOM     36  H31 UNL     1       9.249  10.849  23.345  1.00  0.00     0.277 HD
ENDBRANCH  25  29
ENDBRANCH  24  25
ENDBRANCH  22  23
ENDBRANCH  21  22
ENDBRANCH   8  21
BRANCH   4  37
HETATM   37  C10 UNL     1       3.812   5.440  22.927  1.00  0.00     0.093 C 
HETATM   38  C11 UNL     1       3.388   4.052  23.315  1.00  0.00     0.052 C 
HETATM   39  C12 UNL     1       2.799   6.510  23.257  1.00  0.00     0.052 C 
BRANCH  37  40
HETATM   40  O2  UNL     1       4.908   5.720  23.793  1.00  0.00    -0.384 OA
ATOM     41  H2  UNL     1       4.866   5.066  24.481  1.00  0.00     0.211 HD
ENDBRANCH  37  40
ENDBRANCH   4  37
TORSDOF 10
ENDMDL
MODEL 5
REMARK VINA RESULT: -7.715870700      4.273      7.394
REMARK  10 active torsions:
REMARK  status: ('A' for Active; 'I' for Inactive)
REMARK    1  A    between atoms: O1_2  and  C2_3 
REMARK    2  A    between atoms: C5_6  and  C6_7 
REMARK    3  A    between atoms: C9_10  and  C10_11 
REMARK    4  A    between atoms: C10_11  and  O2_14 
REMARK    5  A    between atoms: N2_19  and  C14_21 
REMARK    6  A    between atoms: C14_21  and  C15_22 
REMARK    7  A    between atoms: C15_22  and  C16_23 
REMARK    8  A    between atoms: C17_24  and  C18_25 
REMARK    9  A    between atoms: C18_25  and  O3_27 
REMARK   10  A    between atoms: C18_25  and  C21_29 
ROOT
HETATM    1  C6  UNL     1       6.802   5.065  18.929  1.00  0.00     0.007 A 
HETATM    2  C7  UNL     1       6.692   5.614  20.197  1.00  0.00    -0.024 A 
HETATM    3  C8  UNL     1       7.331   4.881  21.285  1.00  0.00     0.051 C 
HETATM    4  C9  UNL     1       6.014   6.782  20.430  1.00  0.00     0.051 A 
HETATM    5  N1  UNL     1       5.451   7.373  19.334  1.00  0.00    -0.342 N 
ATOM      6  H1  UNL     1       4.938   8.244  19.475  1.00  0.00     0.167 HD
HETATM    7  C13 UNL     1       5.525   6.890  18.090  1.00  0.00     0.123 A 
HETATM    8  N2  UNL     1       4.981   7.469  17.070  1.00  0.00    -0.374 N 
ATOM      9  H2  UNL     1       5.068   7.055  16.142  1.00  0.00     0.161 HD
HETATM   10  C25 UNL     1       6.221   5.700  17.878  1.00  0.00     0.100 A 
HETATM   11  C26 UNL     1       6.295   5.188  16.541  1.00  0.00     0.104 C 
HETATM   12  N4  UNL     1       6.350   4.766  15.466  1.00  0.00    -0.191 NA
ENDROOT
BRANCH   1  13
HETATM   13  C5  UNL     1       7.534   3.827  18.741  1.00  0.00    -0.024 A 
HETATM   14  C4  UNL     1       6.968   2.592  18.729  1.00  0.00     0.015 A 
HETATM   15  C3  UNL     1       7.716   1.451  18.544  1.00  0.00     0.037 A 
HETATM   16  C2  UNL     1       9.080   1.491  18.358  1.00  0.00     0.068 A 
HETATM   17  C28 UNL     1       9.657   2.743  18.370  1.00  0.00     0.037 A 
HETATM   18  C27 UNL     1       8.922   3.889  18.554  1.00  0.00     0.015 A 
BRANCH  16  19
HETATM   19  O1  UNL     1       9.824   0.326  18.172  1.00  0.00    -0.356 OA
HETATM   20  C1  UNL     1       9.681  -0.470  17.014  1.00  0.00     0.210 C 
ENDBRANCH  16  19
ENDBRANCH   1  13
BRANCH   8  21
HETATM   21  C14 UNL     1       4.259   8.689  17.244  1.00  0.00     0.133 C 
BRANCH  21  22
HETATM   22  C15 UNL     1       5.097   9.908  16.919  1.00  0.00     0.113 C 
BRANCH  22  23
HETATM   23  C16 UNL     1       5.253  10.082  15.478  1.00  0.00    -0.102 C 
HETATM   24  C17 UNL     1       5.402  10.236  14.283  1.00  0.00    -0.066 C 
BRANCH  24  25
HETATM   25  C18 UNL     1       5.609  10.429  12.837  1.00  0.00     0.147 C 
HETATM   26  C19 UNL     1       5.758  11.943  12.655  1.00  0.00     0.062 C 
BRANCH  25  27
HETATM   27  O3  UNL     1       4.535   9.956  12.106  1.00  0.00    -0.370 OA
HETATM   28  C20 UNL     1       3.455  10.796  12.032  1.00  0.00     0.204 C 
ENDBRANCH  25  27
BRANCH  25  29
HETATM   29  C21 UNL     1       6.851   9.709  12.424  1.00  0.00     0.235 C 
HETATM   30  C22 UNL     1       8.050  10.117  13.271  1.00  0.00     0.076 C 
HETATM   31  C23 UNL     1       9.009   8.984  12.978  1.00  0.00     0.197 C 
HETATM   32  F1  UNL     1       9.623   9.285  11.759  1.00  0.00    -0.248 F 
HETATM   33  C24 UNL     1       8.103   7.799  12.823  1.00  0.00     0.270 C 
HETATM   34  N3  UNL     1       6.774   8.290  12.570  1.00  0.00    -0.064 N 
ATOM     35  H32 UNL     1       6.104   8.002  13.284  1.00  0.00     0.277 HD
ATOM     36  H31 UNL     1       6.328   7.834  11.774  1.00  0.00     0.277 HD
ENDBRANCH  25  29
ENDBRANCH  24  25
ENDBRANCH  22  23
ENDBRANCH  21  22
ENDBRANCH   8  21
BRANCH   4  37
HETATM   37  C10 UNL     1       5.882   7.400  21.773  1.00  0.00     0.093 C 
HETATM   38  C11 UNL     1       7.198   7.696  22.436  1.00  0.00     0.052 C 
HETATM   39  C12 UNL     1       4.885   6.700  22.663  1.00  0.00     0.052 C 
BRANCH  37  40
HETATM   40  O2  UNL     1       5.311   8.686  21.553  1.00  0.00    -0.384 OA
ATOM     41  H2  UNL     1       4.591   8.757  22.170  1.00  0.00     0.211 HD
ENDBRANCH  37  40
ENDBRANCH   4  37
TORSDOF 10
ENDMDL
