MODEL 1
REMARK VINA RESULT: -8.544763998      0.000      0.000
REMARK  8 active torsions:
REMARK  status: ('A' for Active; 'I' for Inactive)
REMARK    1  A    between atoms: C3_3  and  C4_4 
REMARK    2  A    between atoms: C4_4  and  C7_7 
REMARK    3  A    between atoms: C8_8  and  C9_9 
REMARK    4  A    between atoms: C11_11  and  S1_12 
REMARK    5  A    between atoms: S1_12  and  C12_13 
REMARK    6  A    between atoms: C13_16  and  C14_17 
REMARK    7  A    between atoms: C16_19  and  C17_20 
REMARK    8  A    between atoms: C17_20  and  C18_21 
ROOT
HETATM    1  C1  UNL     1      10.010   0.938  18.306  1.00  0.00     0.112 C 
HETATM    2  C2  UNL     1       8.774   1.596  18.800  1.00  0.00    -0.109 C 
HETATM    3  C3  UNL     1       7.781   2.141  19.212  1.00  0.00    -0.085 C 
ENDROOT
BRANCH   3   4
HETATM    4  C4  UNL     1       6.589   2.807  19.736  1.00  0.00     0.080 C 
HETATM    5  C5  UNL     1       5.334   2.143  19.181  1.00  0.00     0.043 C 
HETATM    6  C6  UNL     1       6.613   2.677  21.262  1.00  0.00     0.043 C 
BRANCH   4   7
HETATM    7  C7  UNL     1       6.593   4.240  19.448  1.00  0.00    -0.079 C 
HETATM    8  C8  UNL     1       6.577   5.425  19.225  1.00  0.00    -0.064 C 
BRANCH   8   9
HETATM    9  C9  UNL     1       6.535   6.861  18.972  1.00  0.00     0.040 A 
HETATM   10  C10 UNL     1       7.230   7.720  19.797  1.00  0.00     0.041 A 
HETATM   11  C11 UNL     1       7.211   9.081  19.576  1.00  0.00     0.009 A 
HETATM   12  C23 UNL     1       6.480   9.559  18.511  1.00  0.00     0.021 A 
HETATM   13  C24 UNL     1       5.776   8.708  17.674  1.00  0.00     0.026 A 
HETATM   14  C25 UNL     1       5.802   7.333  17.907  1.00  0.00     0.052 A 
HETATM   15 CL1  UNL     1       4.939   6.197  16.891  1.00  0.00    -0.083 Cl
BRANCH  11  16
HETATM   16  S1  UNL     1       8.134  10.174  20.677  1.00  0.00    -0.054 SA
BRANCH  16  17
HETATM   17  C12 UNL     1       8.056   9.583  22.356  1.00  0.00     0.149 A 
HETATM   18  N1  UNL     1       9.075   9.470  23.212  1.00  0.00    -0.338 N 
HETATM   19  C13 UNL     1       8.626   8.973  24.409  1.00  0.00     0.034 A 
ATOM     20  H1  UNL     1      10.042   9.716  23.007  1.00  0.00     0.168 HD
HETATM   21  C16 UNL     1       7.279   8.774  24.282  1.00  0.00     0.040 A 
HETATM   22  N3  UNL     1       6.974   9.163  23.002  1.00  0.00    -0.338 N 
ATOM     23  H3  UNL     1       6.037   9.133  22.599  1.00  0.00     0.168 HD
BRANCH  19  24
HETATM   24  C14 UNL     1       9.540   8.718  25.549  1.00  0.00     0.055 C 
HETATM   25  C15 UNL     1      10.940   9.096  25.152  1.00  0.00     0.011 C 
ENDBRANCH  19  24
BRANCH  21  26
HETATM   26  C17 UNL     1       6.306   8.300  25.273  1.00  0.00     0.125 C 
BRANCH  26  27
HETATM   27  C18 UNL     1       5.104   7.625  24.798  1.00  0.00     0.075 A 
HETATM   28  O1  UNL     1       5.135   6.653  23.897  1.00  0.00    -0.265 OA
HETATM   29  C19 UNL     1       4.122   6.014  23.436  1.00  0.00     0.372 A 
HETATM   30  O2  UNL     1       4.323   5.112  22.578  1.00  0.00    -0.238 OA
HETATM   31  N2  UNL     1       2.901   6.333  23.887  1.00  0.00    -0.269 N 
HETATM   32  C20 UNL     1       2.743   7.299  24.800  1.00  0.00     0.258 A 
ATOM     33  H2  UNL     1       2.084   5.834  23.533  1.00  0.00     0.174 HD
HETATM   34  O3  UNL     1       1.589   7.605  25.230  1.00  0.00    -0.267 OA
HETATM   35  C21 UNL     1       3.853   7.971  25.278  1.00  0.00     0.036 A 
HETATM   36  C22 UNL     1       3.634   9.030  26.300  1.00  0.00     0.056 C 
ENDBRANCH  26  27
ENDBRANCH  21  26
ENDBRANCH  16  17
ENDBRANCH  11  16
ENDBRANCH   8   9
ENDBRANCH   4   7
ENDBRANCH   3   4
TORSDOF 8
ENDMDL
MODEL 2
REMARK VINA RESULT: -8.448754402      3.159      5.367
REMARK  8 active torsions:
REMARK  status: ('A' for Active; 'I' for Inactive)
REMARK    1  A    between atoms: C3_3  and  C4_4 
REMARK    2  A    between atoms: C4_4  and  C7_7 
REMARK    3  A    between atoms: C8_8  and  C9_9 
REMARK    4  A    between atoms: C11_11  and  S1_12 
REMARK    5  A    between atoms: S1_12  and  C12_13 
REMARK    6  A    between atoms: C13_16  and  C14_17 
REMARK    7  A    between atoms: C16_19  and  C17_20 
REMARK    8  A    between atoms: C17_20  and  C18_21 
ROOT
HETATM    1  C1  UNL     1       9.639   0.869  18.766  1.00  0.00     0.112 C 
HETATM    2  C2  UNL     1       8.450   1.734  18.564  1.00  0.00    -0.109 C 
HETATM    3  C3  UNL     1       7.495   2.449  18.389  1.00  0.00    -0.085 C 
ENDROOT
BRANCH   3   4
HETATM    4  C4  UNL     1       6.353   3.337  18.173  1.00  0.00     0.080 C 
HETATM    5  C5  UNL     1       6.816   4.632  17.514  1.00  0.00     0.043 C 
HETATM    6  C6  UNL     1       5.364   2.612  17.255  1.00  0.00     0.043 C 
BRANCH   4   7
HETATM    7  C7  UNL     1       5.632   3.611  19.415  1.00  0.00    -0.079 C 
HETATM    8  C8  UNL     1       5.021   3.850  20.426  1.00  0.00    -0.064 C 
BRANCH   8   9
HETATM    9  C9  UNL     1       4.263   4.154  21.635  1.00  0.00     0.040 A 
HETATM   10  C10 UNL     1       4.516   5.321  22.324  1.00  0.00     0.041 A 
HETATM   11  C11 UNL     1       3.810   5.634  23.467  1.00  0.00     0.009 A 
HETATM   12  C23 UNL     1       2.847   4.750  23.902  1.00  0.00     0.021 A 
HETATM   13  C24 UNL     1       2.583   3.573  23.221  1.00  0.00     0.026 A 
HETATM   14  C25 UNL     1       3.303   3.267  22.066  1.00  0.00     0.052 A 
HETATM   15 CL1  UNL     1       3.022   1.798  21.152  1.00  0.00    -0.083 Cl
BRANCH  11  16
HETATM   16  S1  UNL     1       4.168   7.173  24.340  1.00  0.00    -0.054 SA
BRANCH  16  17
HETATM   17  C12 UNL     1       5.877   7.633  24.125  1.00  0.00     0.149 A 
HETATM   18  N1  UNL     1       6.816   7.687  25.072  1.00  0.00    -0.338 N 
HETATM   19  C13 UNL     1       8.008   8.087  24.525  1.00  0.00     0.034 A 
ATOM     20  H1  UNL     1       6.669   7.464  26.056  1.00  0.00     0.168 HD
HETATM   21  C16 UNL     1       7.791   8.286  23.190  1.00  0.00     0.040 A 
HETATM   22  N3  UNL     1       6.466   7.994  22.990  1.00  0.00    -0.338 N 
ATOM     23  H3  UNL     1       5.995   8.048  22.087  1.00  0.00     0.168 HD
BRANCH  19  24
HETATM   24  C14 UNL     1       9.233   8.261  25.346  1.00  0.00     0.055 C 
HETATM   25  C15 UNL     1       9.054   7.544  26.655  1.00  0.00     0.011 C 
ENDBRANCH  19  24
BRANCH  21  26
HETATM   26  C17 UNL     1       8.737   8.675  22.137  1.00  0.00     0.125 C 
BRANCH  26  27
HETATM   27  C18 UNL     1       8.287   9.610  21.112  1.00  0.00     0.075 A 
HETATM   28  O1  UNL     1       8.344  10.925  21.264  1.00  0.00    -0.265 OA
HETATM   29  C19 UNL     1       7.972  11.805  20.407  1.00  0.00     0.372 A 
HETATM   30  O2  UNL     1       8.094  13.024  20.708  1.00  0.00    -0.238 OA
HETATM   31  N2  UNL     1       7.472  11.389  19.235  1.00  0.00    -0.269 N 
HETATM   32  C20 UNL     1       7.365  10.082  18.966  1.00  0.00     0.258 A 
ATOM     33  H2  UNL     1       7.172  12.075  18.542  1.00  0.00     0.174 HD
HETATM   34  O3  UNL     1       6.891   9.684  17.857  1.00  0.00    -0.267 OA
HETATM   35  C21 UNL     1       7.774   9.158  19.908  1.00  0.00     0.036 A 
HETATM   36  C22 UNL     1       7.648   7.716  19.565  1.00  0.00     0.056 C 
ENDBRANCH  26  27
ENDBRANCH  21  26
ENDBRANCH  16  17
ENDBRANCH  11  16
ENDBRANCH   8   9
ENDBRANCH   4   7
ENDBRANCH   3   4
TORSDOF 8
ENDMDL
MODEL 3
REMARK VINA RESULT: -8.156945238      2.328      4.097
REMARK  8 active torsions:
REMARK  status: ('A' for Active; 'I' for Inactive)
REMARK    1  A    between atoms: C3_3  and  C4_4 
REMARK    2  A    between atoms: C4_4  and  C7_7 
REMARK    3  A    between atoms: C8_8  and  C9_9 
REMARK    4  A    between atoms: C11_11  and  S1_12 
REMARK    5  A    between atoms: S1_12  and  C12_13 
REMARK    6  A    between atoms: C13_16  and  C14_17 
REMARK    7  A    between atoms: C16_19  and  C17_20 
REMARK    8  A    between atoms: C17_20  and  C18_21 
ROOT
HETATM    1  C1  UNL     1       6.229   2.284  22.172  1.00  0.00     0.112 C 
HETATM    2  C2  UNL     1       6.725   2.602  20.810  1.00  0.00    -0.109 C 
HETATM    3  C3  UNL     1       7.123   2.880  19.706  1.00  0.00    -0.085 C 
ENDROOT
BRANCH   3   4
HETATM    4  C4  UNL     1       7.589   3.237  18.367  1.00  0.00     0.080 C 
HETATM    5  C5  UNL     1       9.104   3.407  18.370  1.00  0.00     0.043 C 
HETATM    6  C6  UNL     1       7.196   2.101  17.416  1.00  0.00     0.043 C 
BRANCH   4   7
HETATM    7  C7  UNL     1       6.929   4.439  17.861  1.00  0.00    -0.079 C 
HETATM    8  C8  UNL     1       6.378   5.435  17.466  1.00  0.00    -0.064 C 
BRANCH   8   9
HETATM    9  C9  UNL     1       5.702   6.647  17.015  1.00  0.00     0.040 A 
HETATM   10  C10 UNL     1       5.320   7.599  17.936  1.00  0.00     0.041 A 
HETATM   11  C11 UNL     1       4.684   8.756  17.534  1.00  0.00     0.009 A 
HETATM   12  C23 UNL     1       4.440   8.933  16.190  1.00  0.00     0.021 A 
HETATM   13  C24 UNL     1       4.817   7.984  15.253  1.00  0.00     0.026 A 
HETATM   14  C25 UNL     1       5.460   6.818  15.671  1.00  0.00     0.052 A 
HETATM   15 CL1  UNL     1       5.965   5.576  14.544  1.00  0.00    -0.083 Cl
BRANCH  11  16
HETATM   16  S1  UNL     1       4.202   9.981  18.769  1.00  0.00    -0.054 SA
BRANCH  16  17
HETATM   17  C12 UNL     1       5.616  10.498  19.724  1.00  0.00     0.149 A 
HETATM   18  N1  UNL     1       6.189  11.704  19.715  1.00  0.00    -0.338 N 
HETATM   19  C13 UNL     1       7.255  11.720  20.576  1.00  0.00     0.034 A 
ATOM     20  H1  UNL     1       5.880  12.495  19.151  1.00  0.00     0.168 HD
HETATM   21  C16 UNL     1       7.340  10.475  21.136  1.00  0.00     0.040 A 
HETATM   22  N3  UNL     1       6.311   9.758  20.581  1.00  0.00    -0.338 N 
ATOM     23  H3  UNL     1       6.106   8.783  20.799  1.00  0.00     0.168 HD
BRANCH  19  24
HETATM   24  C14 UNL     1       8.103  12.925  20.759  1.00  0.00     0.055 C 
HETATM   25  C15 UNL     1       7.248  14.154  20.619  1.00  0.00     0.011 C 
ENDBRANCH  19  24
BRANCH  21  26
HETATM   26  C17 UNL     1       8.269   9.967  22.152  1.00  0.00     0.125 C 
BRANCH  26  27
HETATM   27  C18 UNL     1       7.746   9.096  23.197  1.00  0.00     0.075 A 
HETATM   28  O1  UNL     1       6.493   8.665  23.213  1.00  0.00    -0.265 OA
HETATM   29  C19 UNL     1       5.966   7.897  24.095  1.00  0.00     0.372 A 
HETATM   30  O2  UNL     1       4.753   7.577  23.965  1.00  0.00    -0.238 OA
HETATM   31  N2  UNL     1       6.727   7.469  25.112  1.00  0.00    -0.269 N 
HETATM   32  C20 UNL     1       8.011   7.838  25.204  1.00  0.00     0.258 A 
ATOM     33  H2  UNL     1       6.325   6.856  25.822  1.00  0.00     0.174 HD
HETATM   34  O3  UNL     1       8.736   7.435  26.165  1.00  0.00    -0.267 OA
HETATM   35  C21 UNL     1       8.551   8.666  24.238  1.00  0.00     0.036 A 
HETATM   36  C22 UNL     1       9.984   9.042  24.371  1.00  0.00     0.056 C 
ENDBRANCH  26  27
ENDBRANCH  21  26
ENDBRANCH  16  17
ENDBRANCH  11  16
ENDBRANCH   8   9
ENDBRANCH   4   7
ENDBRANCH   3   4
TORSDOF 8
ENDMDL
MODEL 4
REMARK VINA RESULT: -8.120357263      2.623      4.380
REMARK  8 active torsions:
REMARK  status: ('A' for Active; 'I' for Inactive)
REMARK    1  A    between atoms: C3_3  and  C4_4 
REMARK    2  A    between atoms: C4_4  and  C7_7 
REMARK    3  A    between atoms: C8_8  and  C9_9 
REMARK    4  A    between atoms: C11_11  and  S1_12 
REMARK    5  A    between atoms: S1_12  and  C12_13 
REMARK    6  A    between atoms: C13_16  and  C14_17 
REMARK    7  A    between atoms: C16_19  and  C17_20 
REMARK    8  A    between atoms: C17_20  and  C18_21 
ROOT
HETATM    1  C1  UNL     1       5.668  -0.794  15.153  1.00  0.00     0.112 C 
HETATM    2  C2  UNL     1       6.600   0.099  15.885  1.00  0.00    -0.109 C 
HETATM    3  C3  UNL     1       7.351   0.818  16.497  1.00  0.00    -0.085 C 
ENDROOT
BRANCH   3   4
HETATM    4  C4  UNL     1       8.245   1.688  17.260  1.00  0.00     0.080 C 
HETATM    5  C5  UNL     1       9.037   0.866  18.270  1.00  0.00     0.043 C 
HETATM    6  C6  UNL     1       9.204   2.357  16.270  1.00  0.00     0.043 C 
BRANCH   4   7
HETATM    7  C7  UNL     1       7.520   2.771  17.921  1.00  0.00    -0.079 C 
HETATM    8  C8  UNL     1       6.923   3.677  18.446  1.00  0.00    -0.064 C 
BRANCH   8   9
HETATM    9  C9  UNL     1       6.203   4.788  19.058  1.00  0.00     0.040 A 
HETATM   10  C10 UNL     1       6.372   6.065  18.567  1.00  0.00     0.041 A 
HETATM   11  C11 UNL     1       5.699   7.132  19.124  1.00  0.00     0.009 A 
HETATM   12  C23 UNL     1       4.854   6.889  20.185  1.00  0.00     0.021 A 
HETATM   13  C24 UNL     1       4.675   5.611  20.691  1.00  0.00     0.026 A 
HETATM   14  C25 UNL     1       5.361   4.539  20.119  1.00  0.00     0.052 A 
HETATM   15 CL1  UNL     1       5.183   2.898  20.704  1.00  0.00    -0.083 Cl
BRANCH  11  16
HETATM   16  S1  UNL     1       5.945   8.789  18.451  1.00  0.00    -0.054 SA
BRANCH  16  17
HETATM   17  C12 UNL     1       6.748   9.839  19.647  1.00  0.00     0.149 A 
HETATM   18  N1  UNL     1       7.007  11.142  19.521  1.00  0.00    -0.338 N 
HETATM   19  C13 UNL     1       7.641  11.603  20.646  1.00  0.00     0.034 A 
ATOM     20  H1  UNL     1       6.767  11.711  18.709  1.00  0.00     0.168 HD
HETATM   21  C16 UNL     1       7.777  10.540  21.495  1.00  0.00     0.040 A 
HETATM   22  N3  UNL     1       7.214   9.477  20.838  1.00  0.00    -0.338 N 
ATOM     23  H3  UNL     1       7.159   8.530  21.214  1.00  0.00     0.168 HD
BRANCH  19  24
HETATM   24  C14 UNL     1       8.075  13.016  20.784  1.00  0.00     0.055 C 
HETATM   25  C15 UNL     1       6.946  13.920  20.371  1.00  0.00     0.011 C 
ENDBRANCH  19  24
BRANCH  21  26
HETATM   26  C17 UNL     1       8.345  10.490  22.848  1.00  0.00     0.125 C 
BRANCH  26  27
HETATM   27  C18 UNL     1       7.904   9.429  23.746  1.00  0.00     0.075 A 
HETATM   28  O1  UNL     1       6.652   8.998  23.788  1.00  0.00    -0.265 OA
HETATM   29  C19 UNL     1       6.195   8.070  24.547  1.00  0.00     0.372 A 
HETATM   30  O2  UNL     1       4.971   7.776  24.464  1.00  0.00    -0.238 OA
HETATM   31  N2  UNL     1       7.036   7.457  25.391  1.00  0.00    -0.269 N 
HETATM   32  C20 UNL     1       8.327   7.808  25.440  1.00  0.00     0.258 A 
ATOM     33  H2  UNL     1       6.690   6.716  26.002  1.00  0.00     0.174 HD
HETATM   34  O3  UNL     1       9.127   7.230  26.238  1.00  0.00    -0.267 OA
HETATM   35  C21 UNL     1       8.791   8.810  24.610  1.00  0.00     0.036 A 
HETATM   36  C22 UNL     1      10.235   9.161  24.687  1.00  0.00     0.056 C 
ENDBRANCH  26  27
ENDBRANCH  21  26
ENDBRANCH  16  17
ENDBRANCH  11  16
ENDBRANCH   8   9
ENDBRANCH   4   7
ENDBRANCH   3   4
TORSDOF 8
ENDMDL
MODEL 5
REMARK VINA RESULT: -7.985022935      3.896      6.446
REMARK  8 active torsions:
REMARK  status: ('A' for Active; 'I' for Inactive)
REMARK    1  A    between atoms: C3_3  and  C4_4 
REMARK    2  A    between atoms: C4_4  and  C7_7 
REMARK    3  A    between atoms: C8_8  and  C9_9 
REMARK    4  A    between atoms: C11_11  and  S1_12 
REMARK    5  A    between atoms: S1_12  and  C12_13 
REMARK    6  A    between atoms: C13_16  and  C14_17 
REMARK    7  A    between atoms: C16_19  and  C17_20 
REMARK    8  A    between atoms: C17_20  and  C18_21 
ROOT
HETATM    1  C1  UNL     1       8.861   8.725  12.750  1.00  0.00     0.112 C 
HETATM    2  C2  UNL     1       7.746   7.799  13.069  1.00  0.00    -0.109 C 
HETATM    3  C3  UNL     1       6.850   7.033  13.322  1.00  0.00    -0.085 C 
ENDROOT
BRANCH   3   4
HETATM    4  C4  UNL     1       5.773   6.086  13.608  1.00  0.00     0.080 C 
HETATM    5  C5  UNL     1       4.447   6.829  13.739  1.00  0.00     0.043 C 
HETATM    6  C6  UNL     1       5.698   5.095  12.442  1.00  0.00     0.043 C 
BRANCH   4   7
HETATM    7  C7  UNL     1       6.046   5.292  14.803  1.00  0.00    -0.079 C 
HETATM    8  C8  UNL     1       6.251   4.642  15.798  1.00  0.00    -0.064 C 
BRANCH   8   9
HETATM    9  C9  UNL     1       6.473   3.864  17.011  1.00  0.00     0.040 A 
HETATM   10  C10 UNL     1       6.182   4.417  18.240  1.00  0.00     0.041 A 
HETATM   11  C11 UNL     1       6.378   3.700  19.402  1.00  0.00     0.009 A 
HETATM   12  C23 UNL     1       6.874   2.418  19.303  1.00  0.00     0.021 A 
HETATM   13  C24 UNL     1       7.172   1.850  18.075  1.00  0.00     0.026 A 
HETATM   14  C25 UNL     1       6.969   2.584  16.906  1.00  0.00     0.052 A 
HETATM   15 CL1  UNL     1       7.323   1.930  15.320  1.00  0.00    -0.083 Cl
BRANCH  11  16
HETATM   16  S1  UNL     1       5.982   4.457  20.992  1.00  0.00    -0.054 SA
BRANCH  16  17
HETATM   17  C12 UNL     1       6.875   5.987  21.197  1.00  0.00     0.149 A 
HETATM   18  N1  UNL     1       7.254   6.543  22.350  1.00  0.00    -0.338 N 
HETATM   19  C13 UNL     1       7.913   7.720  22.105  1.00  0.00     0.034 A 
ATOM     20  H1  UNL     1       7.079   6.151  23.275  1.00  0.00     0.168 HD
HETATM   21  C16 UNL     1       7.940   7.892  20.750  1.00  0.00     0.040 A 
HETATM   22  N3  UNL     1       7.289   6.802  20.233  1.00  0.00    -0.338 N 
ATOM     23  H3  UNL     1       7.141   6.637  19.236  1.00  0.00     0.168 HD
BRANCH  19  24
HETATM   24  C14 UNL     1       8.434   8.575  23.202  1.00  0.00     0.055 C 
HETATM   25  C15 UNL     1       7.989   8.008  24.522  1.00  0.00     0.011 C 
ENDBRANCH  19  24
BRANCH  21  26
HETATM   26  C17 UNL     1       8.558   8.960  19.954  1.00  0.00     0.125 C 
BRANCH  26  27
HETATM   27  C18 UNL     1       7.963  10.291  19.998  1.00  0.00     0.075 A 
HETATM   28  O1  UNL     1       8.457  11.274  20.737  1.00  0.00    -0.265 OA
HETATM   29  C19 UNL     1       7.991  12.466  20.822  1.00  0.00     0.372 A 
HETATM   30  O2  UNL     1       8.581  13.289  21.574  1.00  0.00    -0.238 OA
HETATM   31  N2  UNL     1       6.901  12.783  20.109  1.00  0.00    -0.269 N 
HETATM   32  C20 UNL     1       6.312  11.872  19.325  1.00  0.00     0.258 A 
ATOM     33  H2  UNL     1       6.517  13.727  20.163  1.00  0.00     0.174 HD
HETATM   34  O3  UNL     1       5.279  12.167  18.648  1.00  0.00    -0.267 OA
HETATM   35  C21 UNL     1       6.837  10.595  19.252  1.00  0.00     0.036 A 
HETATM   36  C22 UNL     1       6.159   9.616  18.360  1.00  0.00     0.056 C 
ENDBRANCH  26  27
ENDBRANCH  21  26
ENDBRANCH  16  17
ENDBRANCH  11  16
ENDBRANCH   8   9
ENDBRANCH   4   7
ENDBRANCH   3   4
TORSDOF 8
ENDMDL
