MODEL 1
REMARK VINA RESULT: -5.222298776      0.000      0.000
REMARK  4 active torsions:
REMARK  status: ('A' for Active; 'I' for Inactive)
REMARK    1  A    between atoms: C3_3  and  N1_4 
REMARK    2  A    between atoms: C5_6  and  C6_7 
REMARK    3  A    between atoms: C6_7  and  N3_11 
REMARK    4  A    between atoms: N3_11  and  N4_13 
ROOT
HETATM    1  C1  UNL     1      23.549  17.684  24.906  1.00  0.00     0.014 C 
HETATM    2  C2  UNL     1      23.888  18.187  25.944  1.00  0.00    -0.096 C 
HETATM    3  C3  UNL     1      24.316  18.822  27.204  1.00  0.00     0.238 C 
ENDROOT
BRANCH   3   4
HETATM    4  N1  UNL     1      23.775  20.159  27.323  1.00  0.00    -0.274 N 
HETATM    5  C4  UNL     1      22.692  20.576  27.996  1.00  0.00     0.143 A 
HETATM    6  C5  UNL     1      22.534  21.935  27.843  1.00  0.00     0.107 A 
HETATM    7  N5  UNL     1      23.554  22.321  27.057  1.00  0.00    -0.279 N 
HETATM    8  N6  UNL     1      24.296  21.246  26.748  1.00  0.00    -0.019 NA
ATOM      9  H5  UNL     1      23.735  23.275  26.747  1.00  0.00     0.184 HD
BRANCH   6  10
HETATM   10  C6  UNL     1      21.506  22.803  28.393  1.00  0.00     0.142 C 
HETATM   11  N2  UNL     1      21.730  23.585  29.392  1.00  0.00    -0.383 N 
ATOM     12  H22 UNL     1      22.664  23.586  29.802  1.00  0.00     0.157 HD
ATOM     13  H21 UNL     1      21.008  24.194  29.778  1.00  0.00     0.157 HD
BRANCH  10  14
HETATM   14  N3  UNL     1      20.189  22.803  27.816  1.00  0.00    -0.291 N 
ATOM     15  H3  UNL     1      19.955  23.530  27.140  1.00  0.00     0.188 HD
BRANCH  14  16
HETATM   16  N4  UNL     1      19.221  21.862  28.134  1.00  0.00    -0.344 N 
ATOM     17  H42 UNL     1      19.101  21.627  29.119  1.00  0.00     0.176 HD
ATOM     18  H41 UNL     1      18.636  21.405  27.435  1.00  0.00     0.176 HD
ENDBRANCH  14  16
ENDBRANCH  10  14
ENDBRANCH   6  10
ENDBRANCH   3   4
TORSDOF 4
ENDMDL
MODEL 2
REMARK VINA RESULT: -5.131752143      0.901      1.586
REMARK  4 active torsions:
REMARK  status: ('A' for Active; 'I' for Inactive)
REMARK    1  A    between atoms: C3_3  and  N1_4 
REMARK    2  A    between atoms: C5_6  and  C6_7 
REMARK    3  A    between atoms: C6_7  and  N3_11 
REMARK    4  A    between atoms: N3_11  and  N4_13 
ROOT
HETATM    1  C1  UNL     1      26.726  18.800  28.327  1.00  0.00     0.014 C 
HETATM    2  C2  UNL     1      25.647  18.865  27.800  1.00  0.00    -0.096 C 
HETATM    3  C3  UNL     1      24.313  18.949  27.177  1.00  0.00     0.238 C 
ENDROOT
BRANCH   3   4
HETATM    4  N1  UNL     1      23.754  20.276  27.322  1.00  0.00    -0.274 N 
HETATM    5  C4  UNL     1      22.647  20.660  27.977  1.00  0.00     0.143 A 
HETATM    6  C5  UNL     1      22.478  22.021  27.862  1.00  0.00     0.107 A 
HETATM    7  N5  UNL     1      23.515  22.442  27.119  1.00  0.00    -0.279 N 
HETATM    8  N6  UNL     1      24.278  21.386  26.796  1.00  0.00    -0.019 NA
ATOM      9  H5  UNL     1      23.693  23.408  26.844  1.00  0.00     0.184 HD
BRANCH   6  10
HETATM   10  C6  UNL     1      21.424  22.859  28.410  1.00  0.00     0.142 C 
HETATM   11  N2  UNL     1      21.623  23.647  29.411  1.00  0.00    -0.383 N 
ATOM     12  H22 UNL     1      22.556  23.672  29.823  1.00  0.00     0.157 HD
ATOM     13  H21 UNL     1      20.883  24.235  29.794  1.00  0.00     0.157 HD
BRANCH  10  14
HETATM   14  N3  UNL     1      20.110  22.824  27.828  1.00  0.00    -0.291 N 
ATOM     15  H3  UNL     1      19.861  23.541  27.147  1.00  0.00     0.188 HD
BRANCH  14  16
HETATM   16  N4  UNL     1      19.164  21.861  28.148  1.00  0.00    -0.344 N 
ATOM     17  H42 UNL     1      18.579  22.032  28.966  1.00  0.00     0.176 HD
ATOM     18  H41 UNL     1      19.034  21.005  27.609  1.00  0.00     0.176 HD
ENDBRANCH  14  16
ENDBRANCH  10  14
ENDBRANCH   6  10
ENDBRANCH   3   4
TORSDOF 4
ENDMDL
MODEL 3
REMARK VINA RESULT: -5.094509918      1.990      2.877
REMARK  4 active torsions:
REMARK  status: ('A' for Active; 'I' for Inactive)
REMARK    1  A    between atoms: C3_3  and  N1_4 
REMARK    2  A    between atoms: C5_6  and  C6_7 
REMARK    3  A    between atoms: C6_7  and  N3_11 
REMARK    4  A    between atoms: N3_11  and  N4_13 
ROOT
HETATM    1  C1  UNL     1      26.631  21.635  29.302  1.00  0.00     0.014 C 
HETATM    2  C2  UNL     1      25.789  21.357  28.489  1.00  0.00    -0.096 C 
HETATM    3  C3  UNL     1      24.743  21.007  27.511  1.00  0.00     0.238 C 
ENDROOT
BRANCH   3   4
HETATM    4  N1  UNL     1      23.488  21.650  27.838  1.00  0.00    -0.274 N 
HETATM    5  C4  UNL     1      22.352  21.103  28.298  1.00  0.00     0.143 A 
HETATM    6  C5  UNL     1      21.396  22.078  28.476  1.00  0.00     0.107 A 
HETATM    7  N5  UNL     1      21.992  23.225  28.109  1.00  0.00    -0.279 N 
HETATM    8  N6  UNL     1      23.251  22.960  27.726  1.00  0.00    -0.019 NA
ATOM      9  H5  UNL     1      21.558  24.148  28.120  1.00  0.00     0.184 HD
BRANCH   6  10
HETATM   10  C6  UNL     1      20.030  21.941  28.954  1.00  0.00     0.142 C 
HETATM   11  N2  UNL     1      19.755  21.735  30.197  1.00  0.00    -0.383 N 
ATOM     12  H22 UNL     1      20.531  21.668  30.855  1.00  0.00     0.157 HD
ATOM     13  H21 UNL     1      18.796  21.639  30.532  1.00  0.00     0.157 HD
BRANCH  10  14
HETATM   14  N3  UNL     1      18.937  22.036  28.026  1.00  0.00    -0.291 N 
ATOM     15  H3  UNL     1      18.689  22.955  27.661  1.00  0.00     0.188 HD
BRANCH  14  16
HETATM   16  N4  UNL     1      18.202  20.937  27.604  1.00  0.00    -0.344 N 
ATOM     17  H42 UNL     1      18.000  20.215  28.294  1.00  0.00     0.176 HD
ATOM     18  H41 UNL     1      17.864  20.826  26.648  1.00  0.00     0.176 HD
ENDBRANCH  14  16
ENDBRANCH  10  14
ENDBRANCH   6  10
ENDBRANCH   3   4
TORSDOF 4
ENDMDL
MODEL 4
REMARK VINA RESULT: -5.085370334      0.826      1.795
REMARK  4 active torsions:
REMARK  status: ('A' for Active; 'I' for Inactive)
REMARK    1  A    between atoms: C3_3  and  N1_4 
REMARK    2  A    between atoms: C5_6  and  C6_7 
REMARK    3  A    between atoms: C6_7  and  N3_11 
REMARK    4  A    between atoms: N3_11  and  N4_13 
ROOT
HETATM    1  C1  UNL     1      22.205  17.312  25.454  1.00  0.00     0.014 C 
HETATM    2  C2  UNL     1      23.084  17.912  26.015  1.00  0.00    -0.096 C 
HETATM    3  C3  UNL     1      24.161  18.663  26.685  1.00  0.00     0.238 C 
ENDROOT
BRANCH   3   4
HETATM    4  N1  UNL     1      23.739  20.012  26.996  1.00  0.00    -0.274 N 
HETATM    5  C4  UNL     1      22.736  20.422  27.788  1.00  0.00     0.143 A 
HETATM    6  C5  UNL     1      22.680  21.797  27.807  1.00  0.00     0.107 A 
HETATM    7  N5  UNL     1      23.678  22.200  27.002  1.00  0.00    -0.279 N 
HETATM    8  N6  UNL     1      24.311  21.120  26.518  1.00  0.00    -0.019 NA
ATOM      9  H5  UNL     1      23.917  23.169  26.794  1.00  0.00     0.184 HD
BRANCH   6  10
HETATM   10  C6  UNL     1      21.760  22.664  28.524  1.00  0.00     0.142 C 
HETATM   11  N2  UNL     1      20.520  22.775  28.192  1.00  0.00    -0.383 N 
ATOM     12  H22 UNL     1      20.186  22.231  27.396  1.00  0.00     0.157 HD
ATOM     13  H21 UNL     1      19.875  23.384  28.696  1.00  0.00     0.157 HD
BRANCH  10  14
HETATM   14  N3  UNL     1      22.231  23.430  29.646  1.00  0.00    -0.291 N 
ATOM     15  H3  UNL     1      21.736  24.289  29.890  1.00  0.00     0.188 HD
BRANCH  14  16
HETATM   16  N4  UNL     1      23.325  23.059  30.414  1.00  0.00    -0.344 N 
ATOM     17  H42 UNL     1      23.469  23.551  31.295  1.00  0.00     0.176 HD
ATOM     18  H41 UNL     1      23.979  22.327  30.136  1.00  0.00     0.176 HD
ENDBRANCH  14  16
ENDBRANCH  10  14
ENDBRANCH   6  10
ENDBRANCH   3   4
TORSDOF 4
ENDMDL
MODEL 5
REMARK VINA RESULT: -5.076085006      3.660      4.213
REMARK  4 active torsions:
REMARK  status: ('A' for Active; 'I' for Inactive)
REMARK    1  A    between atoms: C3_3  and  N1_4 
REMARK    2  A    between atoms: C5_6  and  C6_7 
REMARK    3  A    between atoms: C6_7  and  N3_11 
REMARK    4  A    between atoms: N3_11  and  N4_13 
ROOT
HETATM    1  C1  UNL     1      25.825  22.571  29.628  1.00  0.00     0.014 C 
HETATM    2  C2  UNL     1      24.857  22.416  30.324  1.00  0.00    -0.096 C 
HETATM    3  C3  UNL     1      23.661  22.247  31.169  1.00  0.00     0.238 C 
ENDROOT
BRANCH   3   4
HETATM    4  N1  UNL     1      22.454  22.255  30.371  1.00  0.00    -0.274 N 
HETATM    5  C4  UNL     1      21.557  21.273  30.185  1.00  0.00     0.143 A 
HETATM    6  C5  UNL     1      20.554  21.702  29.345  1.00  0.00     0.107 A 
HETATM    7  N5  UNL     1      20.875  22.969  29.034  1.00  0.00    -0.279 N 
HETATM    8  N6  UNL     1      22.020  23.295  29.654  1.00  0.00    -0.019 NA
ATOM      9  H5  UNL     1      20.336  23.584  28.425  1.00  0.00     0.184 HD
BRANCH   6  10
HETATM   10  C6  UNL     1      19.385  20.977  28.875  1.00  0.00     0.142 C 
HETATM   11  N2  UNL     1      18.999  19.873  29.415  1.00  0.00    -0.383 N 
ATOM     12  H22 UNL     1      19.540  19.506  30.197  1.00  0.00     0.157 HD
ATOM     13  H21 UNL     1      18.178  19.364  29.084  1.00  0.00     0.157 HD
BRANCH  10  14
HETATM   14  N3  UNL     1      18.621  21.495  27.773  1.00  0.00    -0.291 N 
ATOM     15  H3  UNL     1      18.815  22.443  27.450  1.00  0.00     0.188 HD
BRANCH  14  16
HETATM   16  N4  UNL     1      17.633  20.767  27.126  1.00  0.00    -0.344 N 
ATOM     17  H42 UNL     1      16.829  21.283  26.767  1.00  0.00     0.176 HD
ATOM     18  H41 UNL     1      17.676  19.756  26.999  1.00  0.00     0.176 HD
ENDBRANCH  14  16
ENDBRANCH  10  14
ENDBRANCH   6  10
ENDBRANCH   3   4
TORSDOF 4
ENDMDL
