MODEL 1
REMARK VINA RESULT: -5.865698618      0.000      0.000
REMARK  2 active torsions:
REMARK  status: ('A' for Active; 'I' for Inactive)
REMARK    1  A    between atoms: N1_1  and  N2_4 
REMARK       I    between atoms: N2_4  and  C1_6 
REMARK    2  A    between atoms: C1_6  and  C2_8 
ROOT
HETATM    1  C2  UNL     1      19.402  21.128  28.829  1.00  0.00     0.191 A 
HETATM    2  N3  UNL     1      19.165  19.889  29.286  1.00  0.00    -0.341 N 
ATOM      3  H3  UNL     1      19.717  19.548  30.073  1.00  0.00     0.167 HD
HETATM    4  C3  UNL     1      18.228  19.071  28.751  1.00  0.00     0.165 A 
HETATM    5  C4  UNL     1      17.497  19.562  27.685  1.00  0.00     0.275 A 
HETATM    6  O2  UNL     1      16.617  18.795  27.182  1.00  0.00    -0.265 OA
HETATM    7  N4  UNL     1      17.723  20.794  27.222  1.00  0.00    -0.264 N 
ATOM      8  H4  UNL     1      17.181  21.154  26.436  1.00  0.00     0.190 HD
HETATM    9  N5  UNL     1      18.652  21.543  27.787  1.00  0.00    -0.278 N 
ATOM     10  H5  UNL     1      18.811  22.480  27.418  1.00  0.00     0.189 HD
ENDROOT
BRANCH   1  11
HETATM   11  C1  UNL     1      20.414  22.000  29.414  1.00  0.00     0.304 C 
HETATM   12  N2  UNL     1      21.057  22.986  28.650  1.00  0.00    -0.270 N 
ATOM     13  H2  UNL     1      20.820  23.106  27.666  1.00  0.00     0.189 HD
HETATM   14  O1  UNL     1      20.717  21.869  30.620  1.00  0.00    -0.263 OA
BRANCH  12  15
HETATM   15  N1  UNL     1      22.012  23.795  29.241  1.00  0.00    -0.342 N 
ATOM     16  H12 UNL     1      22.038  23.873  30.257  1.00  0.00     0.176 HD
ATOM     17  H11 UNL     1      22.676  24.303  28.655  1.00  0.00     0.176 HD
ENDBRANCH  12  15
ENDBRANCH   1  11
TORSDOF 2
ENDMDL
MODEL 2
REMARK VINA RESULT: -5.560651079      3.444      4.758
REMARK  2 active torsions:
REMARK  status: ('A' for Active; 'I' for Inactive)
REMARK    1  A    between atoms: N1_1  and  N2_4 
REMARK       I    between atoms: N2_4  and  C1_6 
REMARK    2  A    between atoms: C1_6  and  C2_8 
ROOT
HETATM    1  C2  UNL     1      23.077  21.731  27.932  1.00  0.00     0.191 A 
HETATM    2  N3  UNL     1      22.019  20.914  28.045  1.00  0.00    -0.341 N 
ATOM      3  H3  UNL     1      22.108  19.955  27.710  1.00  0.00     0.167 HD
HETATM    4  C3  UNL     1      20.839  21.304  28.584  1.00  0.00     0.165 A 
HETATM    5  C4  UNL     1      20.750  22.609  29.030  1.00  0.00     0.275 A 
HETATM    6  O2  UNL     1      19.643  22.976  29.535  1.00  0.00    -0.265 OA
HETATM    7  N4  UNL     1      21.797  23.432  28.923  1.00  0.00    -0.264 N 
ATOM      8  H4  UNL     1      21.728  24.395  29.253  1.00  0.00     0.190 HD
HETATM    9  N5  UNL     1      22.920  22.991  28.387  1.00  0.00    -0.278 N 
ATOM     10  H5  UNL     1      23.708  23.635  28.312  1.00  0.00     0.189 HD
ENDROOT
BRANCH   1  11
HETATM   11  C1  UNL     1      24.343  21.300  27.350  1.00  0.00     0.304 C 
HETATM   12  N2  UNL     1      25.535  21.336  28.088  1.00  0.00    -0.270 N 
ATOM     13  H2  UNL     1      25.531  21.669  29.052  1.00  0.00     0.189 HD
HETATM   14  O1  UNL     1      24.369  20.887  26.169  1.00  0.00    -0.263 OA
BRANCH  12  15
HETATM   15  N1  UNL     1      26.717  20.918  27.501  1.00  0.00    -0.342 N 
ATOM     16  H12 UNL     1      26.721  20.672  26.512  1.00  0.00     0.176 HD
ATOM     17  H11 UNL     1      27.567  20.861  28.062  1.00  0.00     0.176 HD
ENDBRANCH  12  15
ENDBRANCH   1  11
TORSDOF 2
ENDMDL
MODEL 3
REMARK VINA RESULT: -5.412330852      2.818      5.369
REMARK  2 active torsions:
REMARK  status: ('A' for Active; 'I' for Inactive)
REMARK    1  A    between atoms: N1_1  and  N2_4 
REMARK       I    between atoms: N2_4  and  C1_6 
REMARK    2  A    between atoms: C1_6  and  C2_8 
ROOT
HETATM    1  C2  UNL     1      21.681  22.147  29.559  1.00  0.00     0.191 A 
HETATM    2  N3  UNL     1      22.066  20.998  30.133  1.00  0.00    -0.341 N 
ATOM      3  H3  UNL     1      21.533  20.152  29.932  1.00  0.00     0.167 HD
HETATM    4  C3  UNL     1      23.130  20.909  30.966  1.00  0.00     0.165 A 
HETATM    5  C4  UNL     1      23.833  22.072  31.219  1.00  0.00     0.275 A 
HETATM    6  O2  UNL     1      24.831  21.989  32.001  1.00  0.00    -0.265 OA
HETATM    7  N4  UNL     1      23.459  23.223  30.653  1.00  0.00    -0.264 N 
ATOM      8  H4  UNL     1      23.980  24.080  30.841  1.00  0.00     0.190 HD
HETATM    9  N5  UNL     1      22.411  23.244  29.850  1.00  0.00    -0.278 N 
ATOM     10  H5  UNL     1      22.141  24.133  29.429  1.00  0.00     0.189 HD
ENDROOT
BRANCH   1  11
HETATM   11  C1  UNL     1      20.533  22.231  28.663  1.00  0.00     0.304 C 
HETATM   12  N2  UNL     1      19.551  21.229  28.640  1.00  0.00    -0.270 N 
ATOM     13  H2  UNL     1      19.630  20.421  29.257  1.00  0.00     0.189 HD
HETATM   14  O1  UNL     1      20.418  23.215  27.900  1.00  0.00    -0.263 OA
BRANCH  12  15
HETATM   15  N1  UNL     1      18.476  21.344  27.777  1.00  0.00    -0.342 N 
ATOM     16  H12 UNL     1      18.627  21.719  26.841  1.00  0.00     0.176 HD
ATOM     17  H11 UNL     1      17.547  21.055  28.085  1.00  0.00     0.176 HD
ENDBRANCH  12  15
ENDBRANCH   1  11
TORSDOF 2
ENDMDL
MODEL 4
REMARK VINA RESULT: -5.314810508      3.618      4.814
REMARK  2 active torsions:
REMARK  status: ('A' for Active; 'I' for Inactive)
REMARK    1  A    between atoms: N1_1  and  N2_4 
REMARK       I    between atoms: N2_4  and  C1_6 
REMARK    2  A    between atoms: C1_6  and  C2_8 
ROOT
HETATM    1  C2  UNL     1      23.102  21.565  27.796  1.00  0.00     0.191 A 
HETATM    2  N3  UNL     1      22.920  22.805  28.273  1.00  0.00    -0.341 N 
ATOM      3  H3  UNL     1      23.708  23.452  28.256  1.00  0.00     0.167 HD
HETATM    4  C3  UNL     1      21.740  23.237  28.776  1.00  0.00     0.165 A 
HETATM    5  C4  UNL     1      20.691  22.337  28.785  1.00  0.00     0.275 A 
HETATM    6  O2  UNL     1      19.583  22.742  29.257  1.00  0.00    -0.265 OA
HETATM    7  N4  UNL     1      20.859  21.099  28.313  1.00  0.00    -0.264 N 
ATOM      8  H4  UNL     1      20.083  20.437  28.321  1.00  0.00     0.190 HD
HETATM    9  N5  UNL     1      22.037  20.738  27.836  1.00  0.00    -0.278 N 
ATOM     10  H5  UNL     1      22.146  19.788  27.481  1.00  0.00     0.189 HD
ENDROOT
BRANCH   1  11
HETATM   11  C1  UNL     1      24.379  21.111  27.256  1.00  0.00     0.304 C 
HETATM   12  N2  UNL     1      25.559  21.191  28.011  1.00  0.00    -0.270 N 
ATOM     13  H2  UNL     1      25.538  21.572  28.956  1.00  0.00     0.189 HD
HETATM   14  O1  UNL     1      24.426  20.638  26.099  1.00  0.00    -0.263 OA
BRANCH  12  15
HETATM   15  N1  UNL     1      26.752  20.749  27.465  1.00  0.00    -0.342 N 
ATOM     16  H12 UNL     1      26.729  20.098  26.681  1.00  0.00     0.176 HD
ATOM     17  H11 UNL     1      27.637  21.077  27.852  1.00  0.00     0.176 HD
ENDBRANCH  12  15
ENDBRANCH   1  11
TORSDOF 2
ENDMDL
MODEL 5
REMARK VINA RESULT: -5.225764685      1.559      1.645
REMARK  2 active torsions:
REMARK  status: ('A' for Active; 'I' for Inactive)
REMARK    1  A    between atoms: N1_1  and  N2_4 
REMARK       I    between atoms: N2_4  and  C1_6 
REMARK    2  A    between atoms: C1_6  and  C2_8 
ROOT
HETATM    1  C2  UNL     1      20.548  21.567  28.680  1.00  0.00     0.191 A 
HETATM    2  N3  UNL     1      20.562  20.257  28.966  1.00  0.00    -0.341 N 
ATOM      3  H3  UNL     1      21.381  19.872  29.436  1.00  0.00     0.167 HD
HETATM    4  C3  UNL     1      19.540  19.423  28.661  1.00  0.00     0.165 A 
HETATM    5  C4  UNL     1      18.444  19.975  28.024  1.00  0.00     0.275 A 
HETATM    6  O2  UNL     1      17.485  19.193  27.737  1.00  0.00    -0.265 OA
HETATM    7  N4  UNL     1      18.418  21.278  27.734  1.00  0.00    -0.264 N 
ATOM      8  H4  UNL     1      17.607  21.683  27.264  1.00  0.00     0.190 HD
HETATM    9  N5  UNL     1      19.447  22.039  28.057  1.00  0.00    -0.278 N 
ATOM     10  H5  UNL     1      19.409  23.032  27.826  1.00  0.00     0.189 HD
ENDROOT
BRANCH   1  11
HETATM   11  C1  UNL     1      21.655  22.456  29.014  1.00  0.00     0.304 C 
HETATM   12  N2  UNL     1      22.264  22.419  30.277  1.00  0.00    -0.270 N 
ATOM     13  H2  UNL     1      21.936  21.763  30.985  1.00  0.00     0.189 HD
HETATM   14  O1  UNL     1      22.073  23.268  28.159  1.00  0.00    -0.263 OA
BRANCH  12  15
HETATM   15  N1  UNL     1      23.313  23.278  30.557  1.00  0.00    -0.342 N 
ATOM     16  H12 UNL     1      24.141  22.914  31.027  1.00  0.00     0.176 HD
ATOM     17  H11 UNL     1      23.246  24.261  30.292  1.00  0.00     0.176 HD
ENDBRANCH  12  15
ENDBRANCH   1  11
TORSDOF 2
ENDMDL
