MODEL 1
REMARK VINA RESULT: -5.149504625      0.000      0.000
REMARK  2 active torsions:
REMARK  status: ('A' for Active; 'I' for Inactive)
REMARK    1  A    between atoms: N1_1  and  C1_4 
REMARK    2  A    between atoms: N3_8  and  C4_9 
ROOT
HETATM    1  C1  UNL     1      22.609  22.668  28.179  1.00  0.00     0.105 A 
HETATM    2  C2  UNL     1      23.066  21.839  29.181  1.00  0.00     0.094 A 
HETATM    3  C3  UNL     1      22.163  21.152  29.976  1.00  0.00     0.132 A 
HETATM    4  N2  UNL     1      22.615  20.302  31.004  1.00  0.00    -0.082 NA
HETATM    5  N3  UNL     1      20.833  21.271  29.795  1.00  0.00    -0.228 N 
HETATM    6  C5  UNL     1      20.401  22.090  28.806  1.00  0.00     0.335 A 
HETATM    7  O2  UNL     1      19.152  22.202  28.635  1.00  0.00    -0.246 OA
HETATM    8  N4  UNL     1      21.277  22.763  28.028  1.00  0.00    -0.294 N 
ATOM      9  H4  UNL     1      20.911  23.369  27.294  1.00  0.00     0.172 HD
ENDROOT
BRANCH   1  10
HETATM   10  N1  UNL     1      23.415  23.333  27.408  1.00  0.00    -0.385 N 
ATOM     11  H12 UNL     1      24.251  22.894  27.024  1.00  0.00     0.157 HD
ATOM     12  H11 UNL     1      23.250  24.308  27.159  1.00  0.00     0.157 HD
ENDBRANCH   1  10
BRANCH   5  13
HETATM   13  C4  UNL     1      19.878  20.595  30.577  1.00  0.00     0.365 C 
HETATM   14  O1  UNL     1      19.477  21.091  31.659  1.00  0.00    -0.283 OA
ENDBRANCH   5  13
TORSDOF 2
ENDMDL
MODEL 2
REMARK VINA RESULT: -5.120787852      2.118      3.009
REMARK  2 active torsions:
REMARK  status: ('A' for Active; 'I' for Inactive)
REMARK    1  A    between atoms: N1_1  and  C1_4 
REMARK    2  A    between atoms: N3_8  and  C4_9 
ROOT
HETATM    1  C1  UNL     1      19.504  21.490  28.404  1.00  0.00     0.105 A 
HETATM    2  C2  UNL     1      19.892  20.644  29.421  1.00  0.00     0.094 A 
HETATM    3  C3  UNL     1      21.078  20.873  30.098  1.00  0.00     0.132 A 
HETATM    4  N2  UNL     1      21.486  20.016  31.139  1.00  0.00    -0.082 NA
HETATM    5  N3  UNL     1      21.875  21.914  29.789  1.00  0.00    -0.228 N 
HETATM    6  C5  UNL     1      21.480  22.737  28.788  1.00  0.00     0.335 A 
HETATM    7  O2  UNL     1      22.228  23.714  28.497  1.00  0.00    -0.246 OA
HETATM    8  N4  UNL     1      20.324  22.518  28.123  1.00  0.00    -0.294 N 
ATOM      9  H4  UNL     1      20.063  23.160  27.375  1.00  0.00     0.172 HD
ENDROOT
BRANCH   1  10
HETATM   10  N1  UNL     1      18.402  21.317  27.740  1.00  0.00    -0.385 N 
ATOM     11  H12 UNL     1      18.289  20.519  27.115  1.00  0.00     0.157 HD
ATOM     12  H11 UNL     1      17.616  21.962  27.812  1.00  0.00     0.157 HD
ENDBRANCH   1  10
BRANCH   5  13
HETATM   13  C4  UNL     1      23.088  22.187  30.448  1.00  0.00     0.365 C 
HETATM   14  O1  UNL     1      23.100  22.881  31.495  1.00  0.00    -0.283 OA
ENDBRANCH   5  13
TORSDOF 2
ENDMDL
MODEL 3
REMARK VINA RESULT: -4.818743942      3.830      5.005
REMARK  2 active torsions:
REMARK  status: ('A' for Active; 'I' for Inactive)
REMARK    1  A    between atoms: N1_1  and  C1_4 
REMARK    2  A    between atoms: N3_8  and  C4_9 
ROOT
HETATM    1  C1  UNL     1      22.851  22.865  28.963  1.00  0.00     0.105 A 
HETATM    2  C2  UNL     1      22.955  22.164  27.780  1.00  0.00     0.094 A 
HETATM    3  C3  UNL     1      24.121  21.480  27.482  1.00  0.00     0.132 A 
HETATM    4  N2  UNL     1      24.242  20.760  26.277  1.00  0.00    -0.082 NA
HETATM    5  N3  UNL     1      25.171  21.477  28.325  1.00  0.00    -0.228 N 
HETATM    6  C5  UNL     1      25.053  22.169  29.484  1.00  0.00     0.335 A 
HETATM    7  O2  UNL     1      26.039  22.167  30.277  1.00  0.00    -0.246 OA
HETATM    8  N4  UNL     1      23.918  22.840  29.780  1.00  0.00    -0.294 N 
ATOM      9  H4  UNL     1      23.869  23.350  30.662  1.00  0.00     0.172 HD
ENDROOT
BRANCH   1  10
HETATM   10  N1  UNL     1      21.780  23.523  29.288  1.00  0.00    -0.385 N 
ATOM     11  H12 UNL     1      21.009  23.624  28.628  1.00  0.00     0.157 HD
ATOM     12  H11 UNL     1      21.665  23.960  30.202  1.00  0.00     0.157 HD
ENDBRANCH   1  10
BRANCH   5  13
HETATM   13  C4  UNL     1      26.376  20.796  28.066  1.00  0.00     0.365 C 
HETATM   14  O1  UNL     1      27.234  21.296  27.296  1.00  0.00    -0.283 OA
ENDBRANCH   5  13
TORSDOF 2
ENDMDL
MODEL 4
REMARK VINA RESULT: -4.795320320      2.742      3.809
REMARK  2 active torsions:
REMARK  status: ('A' for Active; 'I' for Inactive)
REMARK    1  A    between atoms: N1_1  and  C1_4 
REMARK    2  A    between atoms: N3_8  and  C4_9 
ROOT
HETATM    1  C1  UNL     1      20.415  22.151  29.053  1.00  0.00     0.105 A 
HETATM    2  C2  UNL     1      20.816  20.833  29.005  1.00  0.00     0.094 A 
HETATM    3  C3  UNL     1      22.045  20.504  28.458  1.00  0.00     0.132 A 
HETATM    4  N2  UNL     1      22.467  19.161  28.401  1.00  0.00    -0.082 NA
HETATM    5  N3  UNL     1      22.872  21.446  27.967  1.00  0.00    -0.228 N 
HETATM    6  C5  UNL     1      22.464  22.737  28.023  1.00  0.00     0.335 A 
HETATM    7  O2  UNL     1      23.240  23.623  27.562  1.00  0.00    -0.246 OA
HETATM    8  N4  UNL     1      21.265  23.064  28.554  1.00  0.00    -0.294 N 
ATOM      9  H4  UNL     1      20.994  24.047  28.577  1.00  0.00     0.172 HD
ENDROOT
BRANCH   1  10
HETATM   10  N1  UNL     1      19.272  22.510  29.555  1.00  0.00    -0.385 N 
ATOM     11  H12 UNL     1      18.929  22.097  30.422  1.00  0.00     0.157 HD
ATOM     12  H11 UNL     1      18.678  23.210  29.111  1.00  0.00     0.157 HD
ENDBRANCH   1  10
BRANCH   5  13
HETATM   13  C4  UNL     1      24.129  21.160  27.403  1.00  0.00     0.365 C 
HETATM   14  O1  UNL     1      24.236  20.937  26.171  1.00  0.00    -0.283 OA
ENDBRANCH   5  13
TORSDOF 2
ENDMDL
MODEL 5
REMARK VINA RESULT: -4.750726112      3.133      4.096
REMARK  2 active torsions:
REMARK  status: ('A' for Active; 'I' for Inactive)
REMARK    1  A    between atoms: N1_1  and  C1_4 
REMARK    2  A    between atoms: N3_8  and  C4_9 
ROOT
HETATM    1  C1  UNL     1      21.977  22.718  28.573  1.00  0.00     0.105 A 
HETATM    2  C2  UNL     1      23.040  22.200  27.864  1.00  0.00     0.094 A 
HETATM    3  C3  UNL     1      24.248  21.970  28.500  1.00  0.00     0.132 A 
HETATM    4  N2  UNL     1      25.343  21.442  27.788  1.00  0.00    -0.082 NA
HETATM    5  N3  UNL     1      24.418  22.240  29.808  1.00  0.00    -0.228 N 
HETATM    6  C5  UNL     1      23.364  22.749  30.491  1.00  0.00     0.335 A 
HETATM    7  O2  UNL     1      23.523  23.003  31.720  1.00  0.00    -0.246 OA
HETATM    8  N4  UNL     1      22.182  22.975  29.876  1.00  0.00    -0.294 N 
ATOM      9  H4  UNL     1      21.413  23.359  30.425  1.00  0.00     0.172 HD
ENDROOT
BRANCH   1  10
HETATM   10  N1  UNL     1      20.824  22.951  28.023  1.00  0.00    -0.385 N 
ATOM     11  H12 UNL     1      20.174  22.190  27.830  1.00  0.00     0.157 HD
ATOM     12  H11 UNL     1      20.524  23.891  27.763  1.00  0.00     0.157 HD
ENDBRANCH   1  10
BRANCH   5  13
HETATM   13  C4  UNL     1      25.627  22.024  30.497  1.00  0.00     0.365 C 
HETATM   14  O1  UNL     1      26.510  22.917  30.524  1.00  0.00    -0.283 OA
ENDBRANCH   5  13
TORSDOF 2
ENDMDL
