MODEL 1
REMARK VINA RESULT: -4.823267868      0.000      0.000
REMARK  2 active torsions:
REMARK  status: ('A' for Active; 'I' for Inactive)
REMARK    1  A    between atoms: C1_2  and  C2_4 
REMARK    2  A    between atoms: N3_7  and  N4_8 
ROOT
HETATM    1  C2  UNL     1      21.252  21.106  30.085  1.00  0.00     0.122 A 
HETATM    2  C3  UNL     1      21.306  22.146  29.179  1.00  0.00     0.156 A 
HETATM    3  N2  UNL     1      20.064  22.715  28.731  1.00  0.00    -0.080 NA
HETATM    4  N3  UNL     1      22.477  22.639  28.707  1.00  0.00    -0.259 N 
HETATM    5  C4  UNL     1      23.673  22.152  29.087  1.00  0.00     0.121 A 
HETATM    6  C5  UNL     1      23.664  21.109  29.994  1.00  0.00     0.075 A 
HETATM    7  C6  UNL     1      22.478  20.596  30.482  1.00  0.00     0.192 A 
HETATM    8  O2  UNL     1      22.448  19.640  31.315  1.00  0.00    -0.287 OA
ENDROOT
BRANCH   1   9
HETATM    9  C1  UNL     1      19.989  20.585  30.584  1.00  0.00     0.272 C 
HETATM   10  N1  UNL     1      19.304  19.546  29.915  1.00  0.00    -0.057 NA
HETATM   11  O1  UNL     1      19.497  21.066  31.628  1.00  0.00    -0.271 OA
ENDBRANCH   1   9
BRANCH   4  12
HETATM   12  N4  UNL     1      22.496  23.693  27.790  1.00  0.00    -0.338 N 
ATOM     13  H42 UNL     1      21.852  24.464  27.969  1.00  0.00     0.177 HD
ATOM     14  H41 UNL     1      23.125  23.680  26.987  1.00  0.00     0.177 HD
ENDBRANCH   4  12
TORSDOF 2
ENDMDL
MODEL 2
REMARK VINA RESULT: -4.808187400      2.431      2.846
REMARK  2 active torsions:
REMARK  status: ('A' for Active; 'I' for Inactive)
REMARK    1  A    between atoms: C1_2  and  C2_4 
REMARK    2  A    between atoms: N3_7  and  N4_8 
ROOT
HETATM    1  C2  UNL     1      23.034  22.061  29.915  1.00  0.00     0.122 A 
HETATM    2  C3  UNL     1      23.569  21.444  28.803  1.00  0.00     0.156 A 
HETATM    3  N2  UNL     1      22.662  20.858  27.855  1.00  0.00    -0.080 NA
HETATM    4  N3  UNL     1      24.905  21.374  28.583  1.00  0.00    -0.259 N 
HETATM    5  C4  UNL     1      25.807  21.902  29.432  1.00  0.00     0.121 A 
HETATM    6  C5  UNL     1      25.313  22.530  30.559  1.00  0.00     0.075 A 
HETATM    7  C6  UNL     1      23.954  22.608  30.796  1.00  0.00     0.192 A 
HETATM    8  O2  UNL     1      23.480  23.179  31.824  1.00  0.00    -0.287 OA
ENDROOT
BRANCH   1   9
HETATM    9  C1  UNL     1      21.598  22.129  30.141  1.00  0.00     0.272 C 
HETATM   10  N1  UNL     1      20.930  21.166  30.931  1.00  0.00    -0.057 NA
HETATM   11  O1  UNL     1      20.940  23.059  29.626  1.00  0.00    -0.271 OA
ENDBRANCH   1   9
BRANCH   4  12
HETATM   12  N4  UNL     1      25.415  20.742  27.446  1.00  0.00    -0.338 N 
ATOM     13  H42 UNL     1      24.751  20.207  26.886  1.00  0.00     0.177 HD
ATOM     14  H41 UNL     1      26.402  20.817  27.201  1.00  0.00     0.177 HD
ENDBRANCH   4  12
TORSDOF 2
ENDMDL
MODEL 3
REMARK VINA RESULT: -4.713973296      1.671      3.326
REMARK  2 active torsions:
REMARK  status: ('A' for Active; 'I' for Inactive)
REMARK    1  A    between atoms: C1_2  and  C2_4 
REMARK    2  A    between atoms: N3_7  and  N4_8 
ROOT
HETATM    1  C2  UNL     1      21.878  21.275  29.974  1.00  0.00     0.122 A 
HETATM    2  C3  UNL     1      20.926  21.767  29.103  1.00  0.00     0.156 A 
HETATM    3  N2  UNL     1      21.166  23.047  28.495  1.00  0.00    -0.080 NA
HETATM    4  N3  UNL     1      19.790  21.088  28.809  1.00  0.00    -0.259 N 
HETATM    5  C4  UNL     1      19.506  19.886  29.344  1.00  0.00     0.121 A 
HETATM    6  C5  UNL     1      20.433  19.357  30.222  1.00  0.00     0.075 A 
HETATM    7  C6  UNL     1      21.594  20.038  30.531  1.00  0.00     0.192 A 
HETATM    8  O2  UNL     1      22.457  19.571  31.334  1.00  0.00    -0.287 OA
ENDROOT
BRANCH   1   9
HETATM    9  C1  UNL     1      23.093  22.013  30.282  1.00  0.00     0.272 C 
HETATM   10  N1  UNL     1      23.180  22.850  31.417  1.00  0.00    -0.057 NA
HETATM   11  O1  UNL     1      24.083  21.906  29.527  1.00  0.00    -0.271 OA
ENDBRANCH   1   9
BRANCH   4  12
HETATM   12  N4  UNL     1      18.847  21.614  27.922  1.00  0.00    -0.338 N 
ATOM     13  H42 UNL     1      18.757  22.630  27.903  1.00  0.00     0.177 HD
ATOM     14  H41 UNL     1      18.282  21.003  27.332  1.00  0.00     0.177 HD
ENDBRANCH   4  12
TORSDOF 2
ENDMDL
MODEL 4
REMARK VINA RESULT: -4.630603571      2.501      3.978
REMARK  2 active torsions:
REMARK  status: ('A' for Active; 'I' for Inactive)
REMARK    1  A    between atoms: C1_2  and  C2_4 
REMARK    2  A    between atoms: N3_7  and  N4_8 
ROOT
HETATM    1  C2  UNL     1      23.395  20.856  28.111  1.00  0.00     0.122 A 
HETATM    2  C3  UNL     1      22.670  22.014  28.305  1.00  0.00     0.156 A 
HETATM    3  N2  UNL     1      23.016  23.166  27.518  1.00  0.00    -0.080 NA
HETATM    4  N3  UNL     1      21.657  22.096  29.203  1.00  0.00    -0.259 N 
HETATM    5  C4  UNL     1      21.285  21.054  29.971  1.00  0.00     0.121 A 
HETATM    6  C5  UNL     1      21.986  19.875  29.808  1.00  0.00     0.075 A 
HETATM    7  C6  UNL     1      23.020  19.778  28.897  1.00  0.00     0.192 A 
HETATM    8  O2  UNL     1      23.675  18.705  28.732  1.00  0.00    -0.287 OA
ENDROOT
BRANCH   1   9
HETATM    9  C1  UNL     1      24.480  20.780  27.145  1.00  0.00     0.272 C 
HETATM   10  N1  UNL     1      25.812  21.081  27.507  1.00  0.00    -0.057 NA
HETATM   11  O1  UNL     1      24.230  20.441  25.968  1.00  0.00    -0.271 OA
ENDBRANCH   1   9
BRANCH   4  12
HETATM   12  N4  UNL     1      20.943  23.284  29.375  1.00  0.00    -0.338 N 
ATOM     13  H42 UNL     1      20.996  23.962  28.615  1.00  0.00     0.177 HD
ATOM     14  H41 UNL     1      20.401  23.454  30.223  1.00  0.00     0.177 HD
ENDBRANCH   4  12
TORSDOF 2
ENDMDL
MODEL 5
REMARK VINA RESULT: -4.583222785      2.502      2.961
REMARK  2 active torsions:
REMARK  status: ('A' for Active; 'I' for Inactive)
REMARK    1  A    between atoms: C1_2  and  C2_4 
REMARK    2  A    between atoms: N3_7  and  N4_8 
ROOT
HETATM    1  C2  UNL     1      22.692  21.829  29.696  1.00  0.00     0.122 A 
HETATM    2  C3  UNL     1      23.761  22.328  30.413  1.00  0.00     0.156 A 
HETATM    3  N2  UNL     1      23.480  23.064  31.616  1.00  0.00    -0.080 NA
HETATM    4  N3  UNL     1      25.047  22.149  30.022  1.00  0.00    -0.259 N 
HETATM    5  C4  UNL     1      25.376  21.470  28.907  1.00  0.00     0.121 A 
HETATM    6  C5  UNL     1      24.335  20.953  28.159  1.00  0.00     0.075 A 
HETATM    7  C6  UNL     1      23.021  21.129  28.545  1.00  0.00     0.192 A 
HETATM    8  O2  UNL     1      22.052  20.663  27.873  1.00  0.00    -0.287 OA
ENDROOT
BRANCH   1   9
HETATM    9  C1  UNL     1      21.317  22.029  30.125  1.00  0.00     0.272 C 
HETATM   10  N1  UNL     1      20.686  21.136  31.020  1.00  0.00    -0.057 NA
HETATM   11  O1  UNL     1      20.676  23.012  29.692  1.00  0.00    -0.271 OA
ENDBRANCH   1   9
BRANCH   4  12
HETATM   12  N4  UNL     1      26.105  22.668  30.772  1.00  0.00    -0.338 N 
ATOM     13  H42 UNL     1      26.404  22.119  31.578  1.00  0.00     0.177 HD
ATOM     14  H41 UNL     1      26.547  23.551  30.516  1.00  0.00     0.177 HD
ENDBRANCH   4  12
TORSDOF 2
ENDMDL
