MODEL 1
REMARK VINA RESULT: -8.065311517      0.000      0.000
REMARK  9 active torsions:
REMARK  status: ('A' for Active; 'I' for Inactive)
REMARK    1  A    between atoms: C5_6  and  O1_7 
REMARK    2  A    between atoms: N2_11  and  C8_12 
REMARK    3  A    between atoms: C8_12  and  C9_13 
REMARK    4  A    between atoms: C9_13  and  C10_14 
REMARK    5  A    between atoms: N3_17  and  C13_18 
REMARK    6  A    between atoms: C13_18  and  C14_19 
REMARK    7  A    between atoms: C14_19  and  C15_20 
REMARK    8  A    between atoms: C15_20  and  C16_21 
REMARK    9  A    between atoms: C18_26  and  O2_27 
ROOT
HETATM    1  C10 UNL     1      -4.590  12.030  20.623  1.00  0.00    -0.054 A 
HETATM    2  C11 UNL     1      -3.280  11.686  20.375  1.00  0.00     0.024 A 
HETATM    3  C12 UNL     1      -2.337  11.841  21.388  1.00  0.00     0.091 A 
HETATM    4  N3  UNL     1      -2.661  12.319  22.611  1.00  0.00    -0.366 N 
HETATM    5  C20 UNL     1      -3.944  12.645  22.827  1.00  0.00     0.091 A 
HETATM    6  C21 UNL     1      -4.936  12.513  21.853  1.00  0.00     0.024 A 
ENDROOT
BRANCH   1   7
HETATM    7  C9  UNL     1      -5.610  11.873  19.560  1.00  0.00     0.058 C 
BRANCH   7   8
HETATM    8  C8  UNL     1      -6.985  11.726  20.207  1.00  0.00     0.133 C 
BRANCH   8   9
HETATM    9  N2  UNL     1      -7.376  10.346  20.320  1.00  0.00    -0.355 N 
HETATM   10  C7  UNL     1      -6.915   9.455  19.427  1.00  0.00     0.094 A 
HETATM   11  C6  UNL     1      -7.297   8.143  19.522  1.00  0.00     0.054 A 
HETATM   12  C5  UNL     1      -8.146   7.744  20.527  1.00  0.00     0.079 A 
HETATM   13  C4  UNL     1      -8.617   8.646  21.439  1.00  0.00     0.027 A 
HETATM   14  C3  UNL     1      -9.470   8.273  22.465  1.00  0.00     0.034 A 
HETATM   15  C22 UNL     1      -8.212   9.977  21.319  1.00  0.00     0.063 A 
HETATM   16  C2  UNL     1      -9.882   9.261  23.333  1.00  0.00     0.091 A 
HETATM   17  N1  UNL     1      -9.475  10.537  23.196  1.00  0.00    -0.368 N 
HETATM   18  C1  UNL     1      -9.956  11.510  24.149  1.00  0.00     0.154 C 
HETATM   19  C23 UNL     1      -8.645  10.935  22.207  1.00  0.00     0.120 A 
BRANCH  12  20
HETATM   20  O1  UNL     1      -8.565   6.424  20.669  1.00  0.00    -0.360 OA
ATOM     21  H1  UNL     1      -7.892   5.772  20.830  1.00  0.00     0.217 HD
ENDBRANCH  12  20
ENDBRANCH   8   9
ENDBRANCH   7   8
ENDBRANCH   1   7
BRANCH   4  22
HETATM   22  C13 UNL     1      -1.720  12.493  23.668  1.00  0.00     0.128 C 
BRANCH  22  23
HETATM   23  C14 UNL     1      -1.187  11.249  24.288  1.00  0.00     0.027 C 
BRANCH  23  24
HETATM   24  C15 UNL     1      -2.179  10.107  24.300  1.00  0.00     0.080 C 
BRANCH  24  25
HETATM   25  C16 UNL     1      -2.332   9.567  25.684  1.00  0.00     0.101 A 
HETATM   26  N4  UNL     1      -1.724   8.520  26.270  1.00  0.00    -0.284 N 
HETATM   27  N5  UNL     1      -2.160   8.394  27.524  1.00  0.00    -0.259 N 
ATOM     28  H4  UNL     1      -1.035   7.915  25.823  1.00  0.00     0.188 HD
HETATM   29  C17 UNL     1      -1.749   7.396  28.474  1.00  0.00     0.181 C 
HETATM   30  C18 UNL     1      -3.065   9.391  27.728  1.00  0.00     0.241 A 
HETATM   31  N6  UNL     1      -3.164  10.107  26.589  1.00  0.00    -0.305 N 
HETATM   32  C19 UNL     1      -4.018  11.254  26.388  1.00  0.00     0.161 C 
BRANCH  30  33
HETATM   33  O2  UNL     1      -3.737   9.581  28.928  1.00  0.00    -0.331 OA
ATOM     34  H2  UNL     1      -3.299   9.755  29.752  1.00  0.00     0.221 HD
ENDBRANCH  30  33
ENDBRANCH  24  25
ENDBRANCH  23  24
ENDBRANCH  22  23
ENDBRANCH   4  22
TORSDOF 9
ENDMDL
MODEL 2
REMARK VINA RESULT: -8.015277944      2.176      2.793
REMARK  9 active torsions:
REMARK  status: ('A' for Active; 'I' for Inactive)
REMARK    1  A    between atoms: C5_6  and  O1_7 
REMARK    2  A    between atoms: N2_11  and  C8_12 
REMARK    3  A    between atoms: C8_12  and  C9_13 
REMARK    4  A    between atoms: C9_13  and  C10_14 
REMARK    5  A    between atoms: N3_17  and  C13_18 
REMARK    6  A    between atoms: C13_18  and  C14_19 
REMARK    7  A    between atoms: C14_19  and  C15_20 
REMARK    8  A    between atoms: C15_20  and  C16_21 
REMARK    9  A    between atoms: C18_26  and  O2_27 
ROOT
HETATM    1  C10 UNL     1      -5.925  10.534  21.231  1.00  0.00    -0.054 A 
HETATM    2  C11 UNL     1      -4.983  11.124  20.418  1.00  0.00     0.024 A 
HETATM    3  C12 UNL     1      -3.694  11.318  20.906  1.00  0.00     0.091 A 
HETATM    4  N3  UNL     1      -3.331  10.947  22.155  1.00  0.00    -0.366 N 
HETATM    5  C20 UNL     1      -4.265  10.374  22.926  1.00  0.00     0.091 A 
HETATM    6  C21 UNL     1      -5.575  10.152  22.495  1.00  0.00     0.024 A 
ENDROOT
BRANCH   1   7
HETATM    7  C9  UNL     1      -7.303  10.317  20.731  1.00  0.00     0.058 C 
BRANCH   7   8
HETATM    8  C8  UNL     1      -7.237   9.646  19.362  1.00  0.00     0.133 C 
BRANCH   8   9
HETATM    9  N2  UNL     1      -7.887   8.362  19.365  1.00  0.00    -0.355 N 
HETATM   10  C7  UNL     1      -7.217   7.286  19.810  1.00  0.00     0.094 A 
HETATM   11  C6  UNL     1      -7.827   6.059  19.801  1.00  0.00     0.054 A 
HETATM   12  C5  UNL     1      -9.115   5.934  19.339  1.00  0.00     0.079 A 
HETATM   13  C4  UNL     1      -9.801   7.026  18.886  1.00  0.00     0.027 A 
HETATM   14  C3  UNL     1     -11.102   6.932  18.419  1.00  0.00     0.034 A 
HETATM   15  C22 UNL     1      -9.157   8.265  18.907  1.00  0.00     0.063 A 
HETATM   16  C2  UNL     1     -11.703   8.095  17.989  1.00  0.00     0.091 A 
HETATM   17  N1  UNL     1     -11.060   9.277  18.021  1.00  0.00    -0.368 N 
HETATM   18  C1  UNL     1     -11.764  10.448  17.551  1.00  0.00     0.154 C 
HETATM   19  C23 UNL     1      -9.791   9.404  18.470  1.00  0.00     0.120 A 
BRANCH  12  20
HETATM   20  O1  UNL     1      -9.781   4.712  19.308  1.00  0.00    -0.360 OA
ATOM     21  H1  UNL     1      -9.587   4.134  18.578  1.00  0.00     0.217 HD
ENDBRANCH  12  20
ENDBRANCH   8   9
ENDBRANCH   7   8
ENDBRANCH   1   7
BRANCH   4  22
HETATM   22  C13 UNL     1      -2.021  11.135  22.687  1.00  0.00     0.128 C 
BRANCH  22  23
HETATM   23  C14 UNL     1      -1.588  10.167  23.731  1.00  0.00     0.027 C 
BRANCH  23  24
HETATM   24  C15 UNL     1      -1.225  10.819  25.047  1.00  0.00     0.080 C 
BRANCH  24  25
HETATM   25  C16 UNL     1      -1.760  10.018  26.188  1.00  0.00     0.101 A 
HETATM   26  N4  UNL     1      -1.268   8.906  26.763  1.00  0.00    -0.284 N 
HETATM   27  N5  UNL     1      -2.070   8.523  27.757  1.00  0.00    -0.259 N 
ATOM     28  H4  UNL     1      -0.411   8.429  26.481  1.00  0.00     0.188 HD
HETATM   29  C17 UNL     1      -1.887   7.381  28.611  1.00  0.00     0.181 C 
HETATM   30  C18 UNL     1      -3.093   9.422  27.804  1.00  0.00     0.241 A 
HETATM   31  N6  UNL     1      -2.893  10.338  26.835  1.00  0.00    -0.305 N 
HETATM   32  C19 UNL     1      -3.752  11.463  26.550  1.00  0.00     0.161 C 
BRANCH  30  33
HETATM   33  O2  UNL     1      -4.134   9.349  28.720  1.00  0.00    -0.331 OA
ATOM     34  H2  UNL     1      -4.475  10.103  29.186  1.00  0.00     0.221 HD
ENDBRANCH  30  33
ENDBRANCH  24  25
ENDBRANCH  23  24
ENDBRANCH  22  23
ENDBRANCH   4  22
TORSDOF 9
ENDMDL
MODEL 3
REMARK VINA RESULT: -7.864116018      2.340      3.275
REMARK  9 active torsions:
REMARK  status: ('A' for Active; 'I' for Inactive)
REMARK    1  A    between atoms: C5_6  and  O1_7 
REMARK    2  A    between atoms: N2_11  and  C8_12 
REMARK    3  A    between atoms: C8_12  and  C9_13 
REMARK    4  A    between atoms: C9_13  and  C10_14 
REMARK    5  A    between atoms: N3_17  and  C13_18 
REMARK    6  A    between atoms: C13_18  and  C14_19 
REMARK    7  A    between atoms: C14_19  and  C15_20 
REMARK    8  A    between atoms: C15_20  and  C16_21 
REMARK    9  A    between atoms: C18_26  and  O2_27 
ROOT
HETATM    1  C10 UNL     1      -5.323  10.406  20.960  1.00  0.00    -0.054 A 
HETATM    2  C11 UNL     1      -5.328  11.702  20.495  1.00  0.00     0.024 A 
HETATM    3  C12 UNL     1      -4.130  12.411  20.457  1.00  0.00     0.091 A 
HETATM    4  N3  UNL     1      -2.957  11.872  20.860  1.00  0.00    -0.366 N 
HETATM    5  C20 UNL     1      -2.979  10.608  21.307  1.00  0.00     0.091 A 
HETATM    6  C21 UNL     1      -4.146   9.845  21.371  1.00  0.00     0.024 A 
ENDROOT
BRANCH   1   7
HETATM    7  C9  UNL     1      -6.586   9.632  21.010  1.00  0.00     0.058 C 
BRANCH   7   8
HETATM    8  C8  UNL     1      -7.055   9.354  19.585  1.00  0.00     0.133 C 
BRANCH   8   9
HETATM    9  N2  UNL     1      -7.822   8.139  19.504  1.00  0.00    -0.355 N 
HETATM   10  C7  UNL     1      -7.259   6.978  19.881  1.00  0.00     0.094 A 
HETATM   11  C6  UNL     1      -7.980   5.817  19.791  1.00  0.00     0.054 A 
HETATM   12  C5  UNL     1      -9.271   5.842  19.318  1.00  0.00     0.079 A 
HETATM   13  C4  UNL     1      -9.847   7.020  18.934  1.00  0.00     0.027 A 
HETATM   14  C3  UNL     1     -11.147   7.078  18.458  1.00  0.00     0.034 A 
HETATM   15  C22 UNL     1      -9.091   8.190  19.036  1.00  0.00     0.063 A 
HETATM   16  C2  UNL     1     -11.634   8.317  18.102  1.00  0.00     0.091 A 
HETATM   17  N1  UNL     1     -10.884   9.429  18.211  1.00  0.00    -0.368 N 
HETATM   18  C1  UNL     1     -11.472  10.688  17.815  1.00  0.00     0.154 C 
HETATM   19  C23 UNL     1      -9.613   9.409  18.671  1.00  0.00     0.120 A 
BRANCH  12  20
HETATM   20  O1  UNL     1     -10.046   4.692  19.206  1.00  0.00    -0.360 OA
ATOM     21  H1  UNL     1      -9.602   3.860  19.317  1.00  0.00     0.217 HD
ENDBRANCH  12  20
ENDBRANCH   8   9
ENDBRANCH   7   8
ENDBRANCH   1   7
BRANCH   4  22
HETATM   22  C13 UNL     1      -1.715  12.572  20.837  1.00  0.00     0.128 C 
BRANCH  22  23
HETATM   23  C14 UNL     1      -1.098  12.865  22.159  1.00  0.00     0.027 C 
BRANCH  23  24
HETATM   24  C15 UNL     1      -2.083  13.386  23.183  1.00  0.00     0.080 C 
BRANCH  24  25
HETATM   25  C16 UNL     1      -2.375  12.335  24.204  1.00  0.00     0.101 A 
HETATM   26  N4  UNL     1      -1.535  11.508  24.849  1.00  0.00    -0.284 N 
HETATM   27  N5  UNL     1      -2.227  10.726  25.680  1.00  0.00    -0.259 N 
ATOM     28  H4  UNL     1      -0.522  11.482  24.723  1.00  0.00     0.188 HD
HETATM   29  C17 UNL     1      -1.688   9.712  26.545  1.00  0.00     0.181 C 
HETATM   30  C18 UNL     1      -3.536  11.076  25.549  1.00  0.00     0.241 A 
HETATM   31  N6  UNL     1      -3.617  12.068  24.638  1.00  0.00    -0.305 N 
HETATM   32  C19 UNL     1      -4.832  12.721  24.211  1.00  0.00     0.161 C 
BRANCH  30  33
HETATM   33  O2  UNL     1      -4.565  10.475  26.263  1.00  0.00    -0.331 OA
ATOM     34  H2  UNL     1      -4.507  10.264  27.187  1.00  0.00     0.221 HD
ENDBRANCH  30  33
ENDBRANCH  24  25
ENDBRANCH  23  24
ENDBRANCH  22  23
ENDBRANCH   4  22
TORSDOF 9
ENDMDL
MODEL 4
REMARK VINA RESULT: -7.845996003      1.804      2.648
REMARK  9 active torsions:
REMARK  status: ('A' for Active; 'I' for Inactive)
REMARK    1  A    between atoms: C5_6  and  O1_7 
REMARK    2  A    between atoms: N2_11  and  C8_12 
REMARK    3  A    between atoms: C8_12  and  C9_13 
REMARK    4  A    between atoms: C9_13  and  C10_14 
REMARK    5  A    between atoms: N3_17  and  C13_18 
REMARK    6  A    between atoms: C13_18  and  C14_19 
REMARK    7  A    between atoms: C14_19  and  C15_20 
REMARK    8  A    between atoms: C15_20  and  C16_21 
REMARK    9  A    between atoms: C18_26  and  O2_27 
ROOT
HETATM    1  C10 UNL     1      -4.608  11.876  20.639  1.00  0.00    -0.054 A 
HETATM    2  C11 UNL     1      -3.282  11.585  20.408  1.00  0.00     0.024 A 
HETATM    3  C12 UNL     1      -2.357  11.791  21.427  1.00  0.00     0.091 A 
HETATM    4  N3  UNL     1      -2.713  12.270  22.641  1.00  0.00    -0.366 N 
HETATM    5  C20 UNL     1      -4.009  12.544  22.841  1.00  0.00     0.091 A 
HETATM    6  C21 UNL     1      -4.985  12.359  21.860  1.00  0.00     0.024 A 
ENDROOT
BRANCH   1   7
HETATM    7  C9  UNL     1      -5.610  11.664  19.568  1.00  0.00     0.058 C 
BRANCH   7   8
HETATM    8  C8  UNL     1      -6.913  11.176  20.196  1.00  0.00     0.133 C 
BRANCH   8   9
HETATM    9  N2  UNL     1      -7.292   9.880  19.699  1.00  0.00    -0.355 N 
HETATM   10  C7  UNL     1      -6.771   8.779  20.267  1.00  0.00     0.094 A 
HETATM   11  C6  UNL     1      -7.119   7.543  19.788  1.00  0.00     0.054 A 
HETATM   12  C5  UNL     1      -7.994   7.434  18.734  1.00  0.00     0.079 A 
HETATM   13  C4  UNL     1      -8.527   8.550  18.154  1.00  0.00     0.027 A 
HETATM   14  C3  UNL     1      -9.416   8.472  17.094  1.00  0.00     0.034 A 
HETATM   15  C22 UNL     1      -8.158   9.798  18.662  1.00  0.00     0.063 A 
HETATM   16  C2  UNL     1      -9.898   9.659  16.586  1.00  0.00     0.091 A 
HETATM   17  N1  UNL     1      -9.526  10.849  17.095  1.00  0.00    -0.368 N 
HETATM   18  C1  UNL     1     -10.078  12.045  16.502  1.00  0.00     0.154 C 
HETATM   19  C23 UNL     1      -8.661  10.961  18.128  1.00  0.00     0.120 A 
BRANCH  12  20
HETATM   20  O1  UNL     1      -8.379   6.204  18.209  1.00  0.00    -0.360 OA
ATOM     21  H1  UNL     1      -7.918   5.436  18.527  1.00  0.00     0.217 HD
ENDBRANCH  12  20
ENDBRANCH   8   9
ENDBRANCH   7   8
ENDBRANCH   1   7
BRANCH   4  22
HETATM   22  C13 UNL     1      -1.790  12.496  23.705  1.00  0.00     0.128 C 
BRANCH  22  23
HETATM   23  C14 UNL     1      -1.205  11.283  24.339  1.00  0.00     0.027 C 
BRANCH  23  24
HETATM   24  C15 UNL     1      -2.131  10.087  24.324  1.00  0.00     0.080 C 
BRANCH  24  25
HETATM   25  C16 UNL     1      -2.295   9.540  25.704  1.00  0.00     0.101 A 
HETATM   26  N4  UNL     1      -1.684   8.497  26.293  1.00  0.00    -0.284 N 
HETATM   27  N5  UNL     1      -2.134   8.362  27.541  1.00  0.00    -0.259 N 
ATOM     28  H4  UNL     1      -0.984   7.900  25.852  1.00  0.00     0.188 HD
HETATM   29  C17 UNL     1      -1.726   7.364  28.493  1.00  0.00     0.181 C 
HETATM   30  C18 UNL     1      -3.052   9.349  27.738  1.00  0.00     0.241 A 
HETATM   31  N6  UNL     1      -3.144  10.069  26.601  1.00  0.00    -0.305 N 
HETATM   32  C19 UNL     1      -4.007  11.208  26.394  1.00  0.00     0.161 C 
BRANCH  30  33
HETATM   33  O2  UNL     1      -3.741   9.529  28.930  1.00  0.00    -0.331 OA
ATOM     34  H2  UNL     1      -3.579   9.013  29.711  1.00  0.00     0.221 HD
ENDBRANCH  30  33
ENDBRANCH  24  25
ENDBRANCH  23  24
ENDBRANCH  22  23
ENDBRANCH   4  22
TORSDOF 9
ENDMDL
MODEL 5
REMARK VINA RESULT: -7.808151122      1.270      1.834
REMARK  9 active torsions:
REMARK  status: ('A' for Active; 'I' for Inactive)
REMARK    1  A    between atoms: C5_6  and  O1_7 
REMARK    2  A    between atoms: N2_11  and  C8_12 
REMARK    3  A    between atoms: C8_12  and  C9_13 
REMARK    4  A    between atoms: C9_13  and  C10_14 
REMARK    5  A    between atoms: N3_17  and  C13_18 
REMARK    6  A    between atoms: C13_18  and  C14_19 
REMARK    7  A    between atoms: C14_19  and  C15_20 
REMARK    8  A    between atoms: C15_20  and  C16_21 
REMARK    9  A    between atoms: C18_26  and  O2_27 
ROOT
HETATM    1  C10 UNL     1      -4.845  12.531  20.787  1.00  0.00    -0.054 A 
HETATM    2  C11 UNL     1      -4.706  13.271  21.940  1.00  0.00     0.024 A 
HETATM    3  C12 UNL     1      -3.536  13.150  22.685  1.00  0.00     0.091 A 
HETATM    4  N3  UNL     1      -2.526  12.329  22.316  1.00  0.00    -0.366 N 
HETATM    5  C20 UNL     1      -2.686  11.621  21.190  1.00  0.00     0.091 A 
HETATM    6  C21 UNL     1      -3.834  11.698  20.399  1.00  0.00     0.024 A 
ENDROOT
BRANCH   1   7
HETATM    7  C9  UNL     1      -6.082  12.644  19.978  1.00  0.00     0.058 C 
BRANCH   7   8
HETATM    8  C8  UNL     1      -7.140  11.706  20.554  1.00  0.00     0.133 C 
BRANCH   8   9
HETATM    9  N2  UNL     1      -7.515  10.684  19.614  1.00  0.00    -0.355 N 
HETATM   10  C7  UNL     1      -7.195  10.832  18.317  1.00  0.00     0.094 A 
HETATM   11  C6  UNL     1      -7.563   9.868  17.416  1.00  0.00     0.054 A 
HETATM   12  C5  UNL     1      -8.255   8.758  17.839  1.00  0.00     0.079 A 
HETATM   13  C4  UNL     1      -8.583   8.603  19.156  1.00  0.00     0.027 A 
HETATM   14  C3  UNL     1      -9.275   7.493  19.613  1.00  0.00     0.034 A 
HETATM   15  C22 UNL     1      -8.195   9.600  20.055  1.00  0.00     0.063 A 
HETATM   16  C2  UNL     1      -9.551   7.433  20.962  1.00  0.00     0.091 A 
HETATM   17  N1  UNL     1      -9.165   8.408  21.807  1.00  0.00    -0.368 N 
HETATM   18  C1  UNL     1      -9.495   8.266  23.206  1.00  0.00     0.154 C 
HETATM   19  C23 UNL     1      -8.488   9.503  21.395  1.00  0.00     0.120 A 
BRANCH  12  20
HETATM   20  O1  UNL     1      -8.653   7.750  16.966  1.00  0.00    -0.360 OA
ATOM     21  H1  UNL     1      -9.323   7.971  16.328  1.00  0.00     0.217 HD
ENDBRANCH  12  20
ENDBRANCH   8   9
ENDBRANCH   7   8
ENDBRANCH   1   7
BRANCH   4  22
HETATM   22  C13 UNL     1      -1.317  12.180  23.058  1.00  0.00     0.128 C 
BRANCH  22  23
HETATM   23  C14 UNL     1      -1.431  11.491  24.373  1.00  0.00     0.027 C 
BRANCH  23  24
HETATM   24  C15 UNL     1      -2.197  10.187  24.307  1.00  0.00     0.080 C 
BRANCH  24  25
HETATM   25  C16 UNL     1      -2.340   9.601  25.674  1.00  0.00     0.101 A 
HETATM   26  N4  UNL     1      -1.710   8.551  26.228  1.00  0.00    -0.284 N 
HETATM   27  N5  UNL     1      -2.146   8.376  27.477  1.00  0.00    -0.259 N 
ATOM     28  H4  UNL     1      -1.006   7.975  25.765  1.00  0.00     0.188 HD
HETATM   29  C17 UNL     1      -1.715   7.358  28.397  1.00  0.00     0.181 C 
HETATM   30  C18 UNL     1      -3.075   9.345  27.708  1.00  0.00     0.241 A 
HETATM   31  N6  UNL     1      -3.187  10.094  26.592  1.00  0.00    -0.305 N 
HETATM   32  C19 UNL     1      -4.067  11.227  26.424  1.00  0.00     0.161 C 
BRANCH  30  33
HETATM   33  O2  UNL     1      -3.755   9.483  28.911  1.00  0.00    -0.331 OA
ATOM     34  H2  UNL     1      -4.661   9.225  29.033  1.00  0.00     0.221 HD
ENDBRANCH  30  33
ENDBRANCH  24  25
ENDBRANCH  23  24
ENDBRANCH  22  23
ENDBRANCH   4  22
TORSDOF 9
ENDMDL
