MODEL 1
REMARK VINA RESULT: -7.411240287      0.000      0.000
REMARK  7 active torsions:
REMARK  status: ('A' for Active; 'I' for Inactive)
REMARK    1  A    between atoms: C2_2  and  N1_3 
REMARK       I    between atoms: N1_3  and  C3_5 
REMARK    2  A    between atoms: C3_5  and  C4_7 
REMARK    3  A    between atoms: C4_7  and  N2_8 
REMARK    4  A    between atoms: N3_11  and  C7_12 
REMARK    5  A    between atoms: C7_12  and  C8_13 
REMARK       I    between atoms: C8_13  and  N4_15 
REMARK    6  A    between atoms: N4_15  and  C9_17 
REMARK    7  A    between atoms: C9_17  and  C10_18 
REMARK       I    between atoms: C10_18  and  N5_20 
ROOT
HETATM    1  N2  UNL     1      -9.121  10.269  16.155  1.00  0.00    -0.014 N 
HETATM    2  C5  UNL     1      -9.284  10.401  14.769  1.00  0.00     0.273 C 
HETATM    3  C6  UNL     1      -7.964  11.053  14.298  1.00  0.00     0.273 C 
HETATM    4  N3  UNL     1      -7.413  11.498  15.528  1.00  0.00    -0.014 N 
HETATM    5  C17 UNL     1      -8.369  12.443  16.106  1.00  0.00     0.273 C 
HETATM    6  C18 UNL     1      -9.453  11.596  16.736  1.00  0.00     0.273 C 
HETATM    7  C19 UNL     1      -7.690  10.322  16.390  1.00  0.00     0.484 C 
ENDROOT
BRANCH   4   8
HETATM    8  C7  UNL     1      -6.084  11.917  15.600  1.00  0.00     0.278 C 
BRANCH   8   9
HETATM    9  C8  UNL     1      -5.634  12.775  16.671  1.00  0.00     0.265 C 
HETATM   10  O2  UNL     1      -5.427  13.990  16.507  1.00  0.00    -0.267 OA
HETATM   11  N4  UNL     1      -5.413  12.242  17.965  1.00  0.00    -0.348 N 
ATOM     12  H4  UNL     1      -5.578  11.247  18.117  1.00  0.00     0.163 HD
BRANCH  11  13
HETATM   13  C9  UNL     1      -4.962  13.049  19.078  1.00  0.00     0.225 C 
BRANCH  13  14
HETATM   14  C10 UNL     1      -3.628  12.625  19.559  1.00  0.00     0.237 C 
HETATM   15  O3  UNL     1      -2.704  12.514  18.724  1.00  0.00    -0.272 OA
HETATM   16  N5  UNL     1      -3.354  12.341  20.919  1.00  0.00    -0.348 N 
HETATM   17  C11 UNL     1      -4.368  12.444  21.951  1.00  0.00     0.154 C 
HETATM   18  C16 UNL     1      -2.029  11.929  21.336  1.00  0.00     0.154 C 
HETATM   19  C12 UNL     1      -4.107  11.395  23.015  1.00  0.00     0.256 C 
HETATM   20  N6  UNL     1      -2.821  11.516  23.628  1.00  0.00    -0.072 N 
HETATM   21  C13 UNL     1      -2.312  10.165  23.875  1.00  0.00     0.272 C 
HETATM   22  C14 UNL     1      -2.881  12.161  24.935  1.00  0.00     0.272 C 
HETATM   23  C15 UNL     1      -1.904  12.273  22.805  1.00  0.00     0.256 C 
ENDBRANCH  13  14
ENDBRANCH  11  13
ENDBRANCH   8   9
ENDBRANCH   4   8
BRANCH   1  24
HETATM   24  C4  UNL     1      -9.830   9.325  16.871  1.00  0.00     0.278 C 
BRANCH  24  25
HETATM   25  C3  UNL     1      -9.329   8.712  18.078  1.00  0.00     0.265 C 
HETATM   26  N1  UNL     1      -8.568   7.553  18.263  1.00  0.00    -0.348 N 
ATOM     27  H1  UNL     1      -8.291   7.014  17.443  1.00  0.00     0.163 HD
HETATM   28  O1  UNL     1      -9.642   9.340  19.154  1.00  0.00    -0.267 OA
BRANCH  26  29
HETATM   29  C2  UNL     1      -8.162   7.095  19.554  1.00  0.00     0.029 C 
HETATM   30  C1  UNL     1      -7.094   7.961  20.215  1.00  0.00     0.038 C 
HETATM   31  C20 UNL     1      -9.265   6.785  20.531  1.00  0.00     0.031 C 
HETATM   32  C21 UNL     1      -9.104   5.282  20.264  1.00  0.00     0.005 C 
HETATM   33  C22 UNL     1      -7.760   5.640  19.634  1.00  0.00     0.031 C 
ENDBRANCH  26  29
ENDBRANCH  24  25
ENDBRANCH   1  24
TORSDOF 7
ENDMDL
MODEL 2
REMARK VINA RESULT: -7.389481609      4.530      6.979
REMARK  7 active torsions:
REMARK  status: ('A' for Active; 'I' for Inactive)
REMARK    1  A    between atoms: C2_2  and  N1_3 
REMARK       I    between atoms: N1_3  and  C3_5 
REMARK    2  A    between atoms: C3_5  and  C4_7 
REMARK    3  A    between atoms: C4_7  and  N2_8 
REMARK    4  A    between atoms: N3_11  and  C7_12 
REMARK    5  A    between atoms: C7_12  and  C8_13 
REMARK       I    between atoms: C8_13  and  N4_15 
REMARK    6  A    between atoms: N4_15  and  C9_17 
REMARK    7  A    between atoms: C9_17  and  C10_18 
REMARK       I    between atoms: C10_18  and  N5_20 
ROOT
HETATM    1  N2  UNL     1      -5.498  10.532  22.059  1.00  0.00    -0.014 N 
HETATM    2  C5  UNL     1      -4.591   9.955  21.158  1.00  0.00     0.273 C 
HETATM    3  C6  UNL     1      -3.208  10.402  21.681  1.00  0.00     0.273 C 
HETATM    4  N3  UNL     1      -3.567  11.436  22.584  1.00  0.00    -0.014 N 
HETATM    5  C17 UNL     1      -4.266  12.458  21.805  1.00  0.00     0.273 C 
HETATM    6  C18 UNL     1      -5.675  11.940  21.617  1.00  0.00     0.273 C 
HETATM    7  C19 UNL     1      -4.733  10.814  23.259  1.00  0.00     0.484 C 
ENDROOT
BRANCH   4   8
HETATM    8  C7  UNL     1      -2.633  11.947  23.486  1.00  0.00     0.278 C 
BRANCH   8   9
HETATM    9  C8  UNL     1      -3.049  12.484  24.760  1.00  0.00     0.265 C 
HETATM   10  O2  UNL     1      -2.762  11.937  25.839  1.00  0.00    -0.267 OA
HETATM   11  N4  UNL     1      -3.814  13.676  24.814  1.00  0.00    -0.348 N 
ATOM     12  H4  UNL     1      -4.059  14.139  23.939  1.00  0.00     0.163 HD
BRANCH  11  13
HETATM   13  C9  UNL     1      -4.262  14.263  26.058  1.00  0.00     0.225 C 
BRANCH  13  14
HETATM   14  C10 UNL     1      -5.700  14.612  26.015  1.00  0.00     0.237 C 
HETATM   15  O3  UNL     1      -6.528  13.694  25.824  1.00  0.00    -0.272 OA
HETATM   16  N5  UNL     1      -6.178  15.935  26.181  1.00  0.00    -0.348 N 
HETATM   17  C11 UNL     1      -5.287  17.056  26.406  1.00  0.00     0.154 C 
HETATM   18  C16 UNL     1      -7.597  16.220  26.129  1.00  0.00     0.154 C 
HETATM   19  C12 UNL     1      -5.874  18.298  25.762  1.00  0.00     0.256 C 
HETATM   20  N6  UNL     1      -7.170  18.639  26.264  1.00  0.00    -0.072 N 
HETATM   21  C13 UNL     1      -7.967  19.141  25.143  1.00  0.00     0.272 C 
HETATM   22  C14 UNL     1      -7.127  19.725  27.236  1.00  0.00     0.272 C 
HETATM   23  C15 UNL     1      -7.814  17.508  26.894  1.00  0.00     0.256 C 
ENDBRANCH  13  14
ENDBRANCH  11  13
ENDBRANCH   8   9
ENDBRANCH   4   8
BRANCH   1  24
HETATM   24  C4  UNL     1      -6.760  10.003  22.240  1.00  0.00     0.278 C 
BRANCH  24  25
HETATM   25  C3  UNL     1      -7.440   9.225  21.234  1.00  0.00     0.265 C 
HETATM   26  N1  UNL     1      -7.286   7.886  20.858  1.00  0.00    -0.348 N 
ATOM     27  H1  UNL     1      -6.591   7.319  21.343  1.00  0.00     0.163 HD
HETATM   28  O1  UNL     1      -8.332   9.878  20.580  1.00  0.00    -0.267 OA
BRANCH  26  29
HETATM   29  C2  UNL     1      -8.062   7.281  19.821  1.00  0.00     0.029 C 
HETATM   30  C1  UNL     1      -8.018   8.030  18.493  1.00  0.00     0.038 C 
HETATM   31  C20 UNL     1      -7.849   5.808  19.601  1.00  0.00     0.031 C 
HETATM   32  C21 UNL     1      -9.144   5.488  20.361  1.00  0.00     0.005 C 
HETATM   33  C22 UNL     1      -9.496   6.963  20.180  1.00  0.00     0.031 C 
ENDBRANCH  26  29
ENDBRANCH  24  25
ENDBRANCH   1  24
TORSDOF 7
ENDMDL
MODEL 3
REMARK VINA RESULT: -7.372664744      1.216      1.585
REMARK  7 active torsions:
REMARK  status: ('A' for Active; 'I' for Inactive)
REMARK    1  A    between atoms: C2_2  and  N1_3 
REMARK       I    between atoms: N1_3  and  C3_5 
REMARK    2  A    between atoms: C3_5  and  C4_7 
REMARK    3  A    between atoms: C4_7  and  N2_8 
REMARK    4  A    between atoms: N3_11  and  C7_12 
REMARK    5  A    between atoms: C7_12  and  C8_13 
REMARK       I    between atoms: C8_13  and  N4_15 
REMARK    6  A    between atoms: N4_15  and  C9_17 
REMARK    7  A    between atoms: C9_17  and  C10_18 
REMARK       I    between atoms: C10_18  and  N5_20 
ROOT
HETATM    1  N2  UNL     1      -7.975  10.879  16.429  1.00  0.00    -0.014 N 
HETATM    2  C5  UNL     1      -7.033  10.736  15.400  1.00  0.00     0.273 C 
HETATM    3  C6  UNL     1      -5.962  11.800  15.724  1.00  0.00     0.273 C 
HETATM    4  N3  UNL     1      -6.636  12.601  16.682  1.00  0.00    -0.014 N 
HETATM    5  C17 UNL     1      -7.827  13.139  16.025  1.00  0.00     0.273 C 
HETATM    6  C18 UNL     1      -8.844  12.018  16.035  1.00  0.00     0.273 C 
HETATM    7  C19 UNL     1      -7.277  11.549  17.511  1.00  0.00     0.484 C 
ENDROOT
BRANCH   4   8
HETATM    8  C7  UNL     1      -5.937  13.535  17.446  1.00  0.00     0.278 C 
BRANCH   8   9
HETATM    9  C8  UNL     1      -4.530  13.362  17.724  1.00  0.00     0.265 C 
HETATM   10  O2  UNL     1      -3.644  13.840  16.995  1.00  0.00    -0.267 OA
HETATM   11  N4  UNL     1      -4.115  12.626  18.862  1.00  0.00    -0.348 N 
ATOM     12  H4  UNL     1      -4.829  12.227  19.472  1.00  0.00     0.163 HD
BRANCH  11  13
HETATM   13  C9  UNL     1      -2.723  12.417  19.195  1.00  0.00     0.225 C 
BRANCH  13  14
HETATM   14  C10 UNL     1      -2.356  13.079  20.467  1.00  0.00     0.237 C 
HETATM   15  O3  UNL     1      -1.914  14.247  20.421  1.00  0.00    -0.272 OA
HETATM   16  N5  UNL     1      -2.486  12.449  21.729  1.00  0.00    -0.348 N 
HETATM   17  C11 UNL     1      -2.991  11.097  21.870  1.00  0.00     0.154 C 
HETATM   18  C16 UNL     1      -2.112  13.143  22.944  1.00  0.00     0.154 C 
HETATM   19  C12 UNL     1      -2.304  10.428  23.046  1.00  0.00     0.256 C 
HETATM   20  N6  UNL     1      -2.500  11.118  24.284  1.00  0.00    -0.072 N 
HETATM   21  C13 UNL     1      -1.253  11.029  25.048  1.00  0.00     0.272 C 
HETATM   22  C14 UNL     1      -3.521  10.495  25.119  1.00  0.00     0.272 C 
HETATM   23  C15 UNL     1      -2.882  12.496  24.075  1.00  0.00     0.256 C 
ENDBRANCH  13  14
ENDBRANCH  11  13
ENDBRANCH   8   9
ENDBRANCH   4   8
BRANCH   1  24
HETATM   24  C4  UNL     1      -8.809   9.838  16.784  1.00  0.00     0.278 C 
BRANCH  24  25
HETATM   25  C3  UNL     1      -8.691   9.124  18.032  1.00  0.00     0.265 C 
HETATM   26  N1  UNL     1      -7.984   7.960  18.353  1.00  0.00    -0.348 N 
ATOM     27  H1  UNL     1      -7.444   7.499  17.622  1.00  0.00     0.163 HD
HETATM   28  O1  UNL     1      -9.350   9.650  19.002  1.00  0.00    -0.267 OA
BRANCH  26  29
HETATM   29  C2  UNL     1      -7.988   7.392  19.665  1.00  0.00     0.029 C 
HETATM   30  C1  UNL     1      -7.175   8.180  20.687  1.00  0.00     0.038 C 
HETATM   31  C20 UNL     1      -9.334   7.029  20.232  1.00  0.00     0.031 C 
HETATM   32  C21 UNL     1      -9.093   5.549  19.904  1.00  0.00     0.005 C 
HETATM   33  C22 UNL     1      -7.623   5.927  19.743  1.00  0.00     0.031 C 
ENDBRANCH  26  29
ENDBRANCH  24  25
ENDBRANCH   1  24
TORSDOF 7
ENDMDL
MODEL 4
REMARK VINA RESULT: -7.345257653      2.665      3.601
REMARK  7 active torsions:
REMARK  status: ('A' for Active; 'I' for Inactive)
REMARK    1  A    between atoms: C2_2  and  N1_3 
REMARK       I    between atoms: N1_3  and  C3_5 
REMARK    2  A    between atoms: C3_5  and  C4_7 
REMARK    3  A    between atoms: C4_7  and  N2_8 
REMARK    4  A    between atoms: N3_11  and  C7_12 
REMARK    5  A    between atoms: C7_12  and  C8_13 
REMARK       I    between atoms: C8_13  and  N4_15 
REMARK    6  A    between atoms: N4_15  and  C9_17 
REMARK    7  A    between atoms: C9_17  and  C10_18 
REMARK       I    between atoms: C10_18  and  N5_20 
ROOT
HETATM    1  N2  UNL     1      -7.369  11.243  21.267  1.00  0.00    -0.014 N 
HETATM    2  C5  UNL     1      -8.533  11.907  20.853  1.00  0.00     0.273 C 
HETATM    3  C6  UNL     1      -8.010  13.052  19.957  1.00  0.00     0.273 C 
HETATM    4  N3  UNL     1      -6.629  13.061  20.284  1.00  0.00    -0.014 N 
HETATM    5  C17 UNL     1      -6.533  13.338  21.718  1.00  0.00     0.273 C 
HETATM    6  C18 UNL     1      -6.834  12.027  22.411  1.00  0.00     0.273 C 
HETATM    7  C19 UNL     1      -6.346  11.604  20.304  1.00  0.00     0.484 C 
ENDROOT
BRANCH   4   8
HETATM    8  C7  UNL     1      -5.719  13.775  19.505  1.00  0.00     0.278 C 
BRANCH   8   9
HETATM    9  C8  UNL     1      -4.390  13.264  19.261  1.00  0.00     0.265 C 
HETATM   10  O2  UNL     1      -4.097  12.638  18.227  1.00  0.00    -0.267 OA
HETATM   11  N4  UNL     1      -3.363  13.469  20.215  1.00  0.00    -0.348 N 
ATOM     12  H4  UNL     1      -3.585  13.981  21.069  1.00  0.00     0.163 HD
BRANCH  11  13
HETATM   13  C9  UNL     1      -2.013  12.982  20.031  1.00  0.00     0.225 C 
BRANCH  13  14
HETATM   14  C10 UNL     1      -1.297  12.846  21.319  1.00  0.00     0.237 C 
HETATM   15  O3  UNL     1      -0.161  13.358  21.423  1.00  0.00    -0.272 OA
HETATM   16  N5  UNL     1      -1.841  12.164  22.435  1.00  0.00    -0.348 N 
HETATM   17  C11 UNL     1      -3.150  11.542  22.399  1.00  0.00     0.154 C 
HETATM   18  C16 UNL     1      -1.096  12.060  23.673  1.00  0.00     0.154 C 
HETATM   19  C12 UNL     1      -3.140  10.303  23.275  1.00  0.00     0.256 C 
HETATM   20  N6  UNL     1      -2.804  10.576  24.638  1.00  0.00    -0.072 N 
HETATM   21  C13 UNL     1      -1.984   9.466  25.129  1.00  0.00     0.272 C 
HETATM   22  C14 UNL     1      -3.975  10.618  25.507  1.00  0.00     0.272 C 
HETATM   23  C15 UNL     1      -2.107  11.835  24.776  1.00  0.00     0.256 C 
ENDBRANCH  13  14
ENDBRANCH  11  13
ENDBRANCH   8   9
ENDBRANCH   4   8
BRANCH   1  24
HETATM   24  C4  UNL     1      -7.404   9.921  21.664  1.00  0.00     0.278 C 
BRANCH  24  25
HETATM   25  C3  UNL     1      -7.568   8.825  20.740  1.00  0.00     0.265 C 
HETATM   26  N1  UNL     1      -8.716   8.134  20.339  1.00  0.00    -0.348 N 
ATOM     27  H1  UNL     1      -9.615   8.410  20.733  1.00  0.00     0.163 HD
HETATM   28  O1  UNL     1      -6.471   8.423  20.205  1.00  0.00    -0.267 OA
BRANCH  26  29
HETATM   29  C2  UNL     1      -8.680   7.057  19.400  1.00  0.00     0.029 C 
HETATM   30  C1  UNL     1      -8.381   7.490  17.968  1.00  0.00     0.038 C 
HETATM   31  C20 UNL     1      -7.837   5.869  19.777  1.00  0.00     0.031 C 
HETATM   32  C21 UNL     1      -9.090   5.086  20.191  1.00  0.00     0.005 C 
HETATM   33  C22 UNL     1      -9.880   6.138  19.415  1.00  0.00     0.031 C 
ENDBRANCH  26  29
ENDBRANCH  24  25
ENDBRANCH   1  24
TORSDOF 7
ENDMDL
MODEL 5
REMARK VINA RESULT: -7.344642045      3.488      5.157
REMARK  7 active torsions:
REMARK  status: ('A' for Active; 'I' for Inactive)
REMARK    1  A    between atoms: C2_2  and  N1_3 
REMARK       I    between atoms: N1_3  and  C3_5 
REMARK    2  A    between atoms: C3_5  and  C4_7 
REMARK    3  A    between atoms: C4_7  and  N2_8 
REMARK    4  A    between atoms: N3_11  and  C7_12 
REMARK    5  A    between atoms: C7_12  and  C8_13 
REMARK       I    between atoms: C8_13  and  N4_15 
REMARK    6  A    between atoms: N4_15  and  C9_17 
REMARK    7  A    between atoms: C9_17  and  C10_18 
REMARK       I    between atoms: C10_18  and  N5_20 
ROOT
HETATM    1  N2  UNL     1      -9.804  10.923  21.782  1.00  0.00    -0.014 N 
HETATM    2  C5  UNL     1      -8.639  11.253  21.074  1.00  0.00     0.273 C 
HETATM    3  C6  UNL     1      -7.773  12.002  22.111  1.00  0.00     0.273 C 
HETATM    4  N3  UNL     1      -8.721  12.275  23.130  1.00  0.00    -0.014 N 
HETATM    5  C17 UNL     1      -9.770  13.099  22.528  1.00  0.00     0.273 C 
HETATM    6  C18 UNL     1     -10.656  12.140  21.763  1.00  0.00     0.273 C 
HETATM    7  C19 UNL     1      -9.440  10.978  23.186  1.00  0.00     0.484 C 
ENDROOT
BRANCH   4   8
HETATM    8  C7  UNL     1      -8.306  12.714  24.388  1.00  0.00     0.278 C 
BRANCH   8   9
HETATM    9  C8  UNL     1      -6.908  12.944  24.669  1.00  0.00     0.265 C 
HETATM   10  O2  UNL     1      -6.397  14.076  24.619  1.00  0.00    -0.267 OA
HETATM   11  N4  UNL     1      -6.065  11.860  25.016  1.00  0.00    -0.348 N 
ATOM     12  H4  UNL     1      -6.467  10.924  25.062  1.00  0.00     0.163 HD
BRANCH  11  13
HETATM   13  C9  UNL     1      -4.657  12.024  25.308  1.00  0.00     0.225 C 
BRANCH  13  14
HETATM   14  C10 UNL     1      -3.808  11.257  24.369  1.00  0.00     0.237 C 
HETATM   15  O3  UNL     1      -3.429  10.116  24.709  1.00  0.00    -0.272 OA
HETATM   16  N5  UNL     1      -3.409  11.759  23.106  1.00  0.00    -0.348 N 
HETATM   17  C11 UNL     1      -3.805  13.072  22.634  1.00  0.00     0.154 C 
HETATM   18  C16 UNL     1      -2.577  10.966  22.225  1.00  0.00     0.154 C 
HETATM   19  C12 UNL     1      -2.695  13.650  21.776  1.00  0.00     0.256 C 
HETATM   20  N6  UNL     1      -2.374  12.838  20.643  1.00  0.00    -0.072 N 
HETATM   21  C13 UNL     1      -0.923  12.899  20.445  1.00  0.00     0.272 C 
HETATM   22  C14 UNL     1      -2.962  13.341  19.407  1.00  0.00     0.272 C 
HETATM   23  C15 UNL     1      -2.815  11.473  20.819  1.00  0.00     0.256 C 
ENDBRANCH  13  14
ENDBRANCH  11  13
ENDBRANCH   8   9
ENDBRANCH   4   8
BRANCH   1  24
HETATM   24  C4  UNL     1     -10.601   9.865  21.392  1.00  0.00     0.278 C 
BRANCH  24  25
HETATM   25  C3  UNL     1     -10.159   8.842  20.475  1.00  0.00     0.265 C 
HETATM   26  N1  UNL     1      -9.092   7.941  20.559  1.00  0.00    -0.348 N 
ATOM     27  H1  UNL     1      -8.494   7.968  21.385  1.00  0.00     0.163 HD
HETATM   28  O1  UNL     1     -10.869   8.752  19.408  1.00  0.00    -0.267 OA
BRANCH  26  29
HETATM   29  C2  UNL     1      -8.806   6.986  19.536  1.00  0.00     0.029 C 
HETATM   30  C1  UNL     1      -8.430   7.605  18.194  1.00  0.00     0.038 C 
HETATM   31  C20 UNL     1      -7.840   5.889  19.896  1.00  0.00     0.031 C 
HETATM   32  C21 UNL     1      -9.002   4.905  20.090  1.00  0.00     0.005 C 
HETATM   33  C22 UNL     1      -9.854   5.917  19.329  1.00  0.00     0.031 C 
ENDBRANCH  26  29
ENDBRANCH  24  25
ENDBRANCH   1  24
TORSDOF 7
ENDMDL
