MODEL 1
REMARK VINA RESULT: -7.997681874      0.000      0.000
REMARK  8 active torsions:
REMARK  status: ('A' for Active; 'I' for Inactive)
REMARK    1  A    between atoms: C6_7  and  C7_8 
REMARK    2  A    between atoms: C7_8  and  N2_9 
REMARK    3  A    between atoms: N5_19  and  C12_20 
REMARK    4  A    between atoms: C12_20  and  C13_21 
REMARK    5  A    between atoms: C13_21  and  C14_22 
REMARK    6  A    between atoms: N6_25  and  C17_26 
REMARK    7  A    between atoms: C17_26  and  C18_27 
REMARK    8  A    between atoms: C22_31  and  O1_32 
ROOT
HETATM    1  C1  UNL     1      -5.985  13.033  25.682  1.00  0.00     0.068 C 
HETATM    2  C2  UNL     1      -4.875  12.129  25.241  1.00  0.00     0.014 A 
HETATM    3  C3  UNL     1      -4.263  11.392  26.261  1.00  0.00     0.042 A 
HETATM    4  C4  UNL     1      -3.218  10.557  26.006  1.00  0.00     0.094 A 
HETATM    5  N1  UNL     1      -2.782  10.463  24.705  1.00  0.00    -0.349 N 
HETATM    6  C5  UNL     1      -1.650   9.547  24.530  1.00  0.00     0.156 C 
HETATM    7  C6  UNL     1      -3.353  11.154  23.721  1.00  0.00     0.108 A 
HETATM    8  N5  UNL     1      -4.429  12.014  23.987  1.00  0.00    -0.318 N 
ENDROOT
BRANCH   8   9
HETATM    9  C12 UNL     1      -5.008  12.756  22.936  1.00  0.00     0.077 C 
BRANCH   9  10
HETATM   10  C13 UNL     1      -6.316  12.446  22.357  1.00  0.00     0.102 C 
BRANCH  10  11
HETATM   11  C14 UNL     1      -6.559  11.187  21.683  1.00  0.00     0.020 A 
HETATM   12  C15 UNL     1      -6.665  10.030  22.449  1.00  0.00     0.043 A 
HETATM   13  C16 UNL     1      -6.880   8.821  21.826  1.00  0.00     0.096 A 
HETATM   14  N6  UNL     1      -6.992   8.731  20.466  1.00  0.00    -0.322 N 
HETATM   15  C22 UNL     1      -6.888   9.847  19.748  1.00  0.00     0.225 A 
HETATM   16  N7  UNL     1      -6.678  11.033  20.353  1.00  0.00    -0.321 N 
HETATM   17  C23 UNL     1      -6.562  12.240  19.522  1.00  0.00     0.160 C 
BRANCH  14  18
HETATM   18  C17 UNL     1      -7.204   7.457  19.844  1.00  0.00     0.140 C 
BRANCH  18  19
HETATM   19  C18 UNL     1      -8.593   6.931  19.906  1.00  0.00    -0.035 C 
HETATM   20  C19 UNL     1      -9.395   7.358  21.089  1.00  0.00     0.016 C 
HETATM   21  C20 UNL     1      -9.397   7.291  18.665  1.00  0.00     0.016 C 
HETATM   22  C21 UNL     1      -8.558   5.398  19.932  1.00  0.00     0.016 C 
ENDBRANCH  18  19
ENDBRANCH  14  18
BRANCH  15  23
HETATM   23  O1  UNL     1      -6.991   9.856  18.352  1.00  0.00    -0.332 OA
ATOM     24  H1  UNL     1      -6.340  10.265  17.794  1.00  0.00     0.221 HD
ENDBRANCH  15  23
ENDBRANCH  10  11
ENDBRANCH   9  10
ENDBRANCH   8   9
BRANCH   7  25
HETATM   25  C7  UNL     1      -2.880  11.100  22.345  1.00  0.00     0.224 C 
BRANCH  25  26
HETATM   26  N2  UNL     1      -2.069  12.156  21.790  1.00  0.00    -0.187 N 
HETATM   27  C8  UNL     1      -1.252  12.770  22.665  1.00  0.00     0.111 A 
HETATM   28  C9  UNL     1      -0.511  13.843  22.277  1.00  0.00     0.035 A 
HETATM   29  C10 UNL     1      -0.618  14.287  20.962  1.00  0.00     0.107 A 
HETATM   30  N3  UNL     1      -1.438  13.651  20.122  1.00  0.00    -0.202 N 
HETATM   31  C11 UNL     1      -2.160  12.580  20.550  1.00  0.00     0.678 A 
ATOM     32  H3  UNL     1      -1.524  13.969  19.157  1.00  0.00     0.183 HD
HETATM   33  N4  UNL     1      -2.838  12.017  19.619  1.00  0.00    -0.234 N 
ATOM     34  H42 UNL     1      -3.378  11.214  19.941  1.00  0.00     0.174 HD
ATOM     35  H41 UNL     1      -2.908  12.346  18.657  1.00  0.00     0.174 HD
ENDBRANCH  25  26
ENDBRANCH   7  25
TORSDOF 8
ENDMDL
MODEL 2
REMARK VINA RESULT: -7.721698485      1.013      1.262
REMARK  8 active torsions:
REMARK  status: ('A' for Active; 'I' for Inactive)
REMARK    1  A    between atoms: C6_7  and  C7_8 
REMARK    2  A    between atoms: C7_8  and  N2_9 
REMARK    3  A    between atoms: N5_19  and  C12_20 
REMARK    4  A    between atoms: C12_20  and  C13_21 
REMARK    5  A    between atoms: C13_21  and  C14_22 
REMARK    6  A    between atoms: N6_25  and  C17_26 
REMARK    7  A    between atoms: C17_26  and  C18_27 
REMARK    8  A    between atoms: C22_31  and  O1_32 
ROOT
HETATM    1  C1  UNL     1      -6.088  12.618  25.518  1.00  0.00     0.068 C 
HETATM    2  C2  UNL     1      -4.892  11.791  25.158  1.00  0.00     0.014 A 
HETATM    3  C3  UNL     1      -4.273  11.136  26.228  1.00  0.00     0.042 A 
HETATM    4  C4  UNL     1      -3.155  10.379  26.047  1.00  0.00     0.094 A 
HETATM    5  N1  UNL     1      -2.654  10.279  24.771  1.00  0.00    -0.349 N 
HETATM    6  C5  UNL     1      -1.447   9.451  24.676  1.00  0.00     0.156 C 
HETATM    7  C6  UNL     1      -3.231  10.894  23.739  1.00  0.00     0.108 A 
HETATM    8  N5  UNL     1      -4.381  11.673  23.928  1.00  0.00    -0.318 N 
ENDROOT
BRANCH   8   9
HETATM    9  C12 UNL     1      -4.966  12.335  22.828  1.00  0.00     0.077 C 
BRANCH   9  10
HETATM   10  C13 UNL     1      -6.389  12.244  22.498  1.00  0.00     0.102 C 
BRANCH  10  11
HETATM   11  C14 UNL     1      -6.894  11.191  21.642  1.00  0.00     0.020 A 
HETATM   12  C15 UNL     1      -6.092  10.079  21.408  1.00  0.00     0.043 A 
HETATM   13  C16 UNL     1      -6.548   9.074  20.584  1.00  0.00     0.096 A 
HETATM   14  N6  UNL     1      -7.776   9.146  19.987  1.00  0.00    -0.322 N 
HETATM   15  C22 UNL     1      -8.531  10.218  20.220  1.00  0.00     0.225 A 
HETATM   16  N7  UNL     1      -8.089  11.203  21.026  1.00  0.00    -0.321 N 
HETATM   17  C23 UNL     1      -8.952  12.372  21.252  1.00  0.00     0.160 C 
BRANCH  14  18
HETATM   18  C17 UNL     1      -8.220   8.091  19.123  1.00  0.00     0.140 C 
BRANCH  18  19
HETATM   19  C18 UNL     1      -8.851   6.926  19.799  1.00  0.00    -0.035 C 
HETATM   20  C19 UNL     1      -8.037   5.677  19.833  1.00  0.00     0.016 C 
HETATM   21  C20 UNL     1      -9.248   7.243  21.233  1.00  0.00     0.016 C 
HETATM   22  C21 UNL     1     -10.163   6.573  19.088  1.00  0.00     0.016 C 
ENDBRANCH  18  19
ENDBRANCH  14  18
BRANCH  15  23
HETATM   23  O1  UNL     1      -9.802  10.380  19.656  1.00  0.00    -0.332 OA
ATOM     24  H1  UNL     1     -10.409  11.049  19.949  1.00  0.00     0.221 HD
ENDBRANCH  15  23
ENDBRANCH  10  11
ENDBRANCH   9  10
ENDBRANCH   8   9
BRANCH   7  25
HETATM   25  C7  UNL     1      -2.691  10.835  22.388  1.00  0.00     0.224 C 
BRANCH  25  26
HETATM   26  N2  UNL     1      -2.007  11.963  21.806  1.00  0.00    -0.187 N 
HETATM   27  C8  UNL     1      -1.202  12.640  22.646  1.00  0.00     0.111 A 
HETATM   28  C9  UNL     1      -0.579  13.777  22.234  1.00  0.00     0.035 A 
HETATM   29  C10 UNL     1      -0.793  14.221  20.932  1.00  0.00     0.107 A 
HETATM   30  N3  UNL     1      -1.597  13.523  20.127  1.00  0.00    -0.202 N 
HETATM   31  C11 UNL     1      -2.199  12.389  20.578  1.00  0.00     0.678 A 
ATOM     32  H3  UNL     1      -1.761  13.840  19.172  1.00  0.00     0.183 HD
HETATM   33  N4  UNL     1      -2.872  11.775  19.676  1.00  0.00    -0.234 N 
ATOM     34  H42 UNL     1      -3.323  10.925  20.014  1.00  0.00     0.174 HD
ATOM     35  H41 UNL     1      -3.021  12.105  18.723  1.00  0.00     0.174 HD
ENDBRANCH  25  26
ENDBRANCH   7  25
TORSDOF 8
ENDMDL
MODEL 3
REMARK VINA RESULT: -7.694386510      1.693      4.095
REMARK  8 active torsions:
REMARK  status: ('A' for Active; 'I' for Inactive)
REMARK    1  A    between atoms: C6_7  and  C7_8 
REMARK    2  A    between atoms: C7_8  and  N2_9 
REMARK    3  A    between atoms: N5_19  and  C12_20 
REMARK    4  A    between atoms: C12_20  and  C13_21 
REMARK    5  A    between atoms: C13_21  and  C14_22 
REMARK    6  A    between atoms: N6_25  and  C17_26 
REMARK    7  A    between atoms: C17_26  and  C18_27 
REMARK    8  A    between atoms: C22_31  and  O1_32 
ROOT
HETATM    1  C1  UNL     1      -3.911  13.297  18.297  1.00  0.00     0.068 C 
HETATM    2  C2  UNL     1      -3.504  12.921  19.689  1.00  0.00     0.014 A 
HETATM    3  C3  UNL     1      -2.128  12.942  19.936  1.00  0.00     0.042 A 
HETATM    4  C4  UNL     1      -1.618  12.588  21.149  1.00  0.00     0.094 A 
HETATM    5  N1  UNL     1      -2.506  12.210  22.127  1.00  0.00    -0.349 N 
HETATM    6  C5  UNL     1      -1.865  11.841  23.393  1.00  0.00     0.156 C 
HETATM    7  C6  UNL     1      -3.820  12.186  21.911  1.00  0.00     0.108 A 
HETATM    8  N5  UNL     1      -4.343  12.549  20.662  1.00  0.00    -0.318 N 
ENDROOT
BRANCH   8   9
HETATM    9  C12 UNL     1      -5.735  12.497  20.444  1.00  0.00     0.077 C 
BRANCH   9  10
HETATM   10  C13 UNL     1      -6.339  11.957  19.225  1.00  0.00     0.102 C 
BRANCH  10  11
HETATM   11  C14 UNL     1      -6.787  10.581  19.155  1.00  0.00     0.020 A 
HETATM   12  C15 UNL     1      -6.462   9.721  20.198  1.00  0.00     0.043 A 
HETATM   13  C16 UNL     1      -6.865   8.404  20.143  1.00  0.00     0.096 A 
HETATM   14  N6  UNL     1      -7.579   7.923  19.081  1.00  0.00    -0.322 N 
HETATM   15  C22 UNL     1      -7.881   8.760  18.091  1.00  0.00     0.225 A 
HETATM   16  N7  UNL     1      -7.490  10.048  18.140  1.00  0.00    -0.321 N 
HETATM   17  C23 UNL     1      -7.839  10.937  17.022  1.00  0.00     0.160 C 
BRANCH  14  18
HETATM   18  C17 UNL     1      -7.975   6.545  19.045  1.00  0.00     0.140 C 
BRANCH  18  19
HETATM   19  C18 UNL     1      -9.195   6.203  19.822  1.00  0.00    -0.035 C 
HETATM   20  C19 UNL     1      -9.396   6.971  21.085  1.00  0.00     0.016 C 
HETATM   21  C20 UNL     1     -10.463   6.361  18.994  1.00  0.00     0.016 C 
HETATM   22  C21 UNL     1      -9.153   4.721  20.214  1.00  0.00     0.016 C 
ENDBRANCH  18  19
ENDBRANCH  14  18
BRANCH  15  23
HETATM   23  O1  UNL     1      -8.610   8.360  16.964  1.00  0.00    -0.332 OA
ATOM     24  H1  UNL     1      -9.221   8.936  16.521  1.00  0.00     0.221 HD
ENDBRANCH  15  23
ENDBRANCH  10  11
ENDBRANCH   9  10
ENDBRANCH   8   9
BRANCH   7  25
HETATM   25  C7  UNL     1      -4.775  11.748  22.920  1.00  0.00     0.224 C 
BRANCH  25  26
HETATM   26  N2  UNL     1      -5.124  12.591  24.037  1.00  0.00    -0.187 N 
HETATM   27  C8  UNL     1      -5.404  13.870  23.723  1.00  0.00     0.111 A 
HETATM   28  C9  UNL     1      -5.653  14.779  24.702  1.00  0.00     0.035 A 
HETATM   29  C10 UNL     1      -5.612  14.359  26.029  1.00  0.00     0.107 A 
HETATM   30  N3  UNL     1      -5.332  13.082  26.302  1.00  0.00    -0.202 N 
HETATM   31  C11 UNL     1      -5.091  12.204  25.291  1.00  0.00     0.678 A 
ATOM     32  H3  UNL     1      -5.299  12.764  27.270  1.00  0.00     0.183 HD
HETATM   33  N4  UNL     1      -4.922  10.998  25.693  1.00  0.00    -0.234 N 
ATOM     34  H42 UNL     1      -4.742  10.340  24.935  1.00  0.00     0.174 HD
ATOM     35  H41 UNL     1      -4.897  10.697  26.667  1.00  0.00     0.174 HD
ENDBRANCH  25  26
ENDBRANCH   7  25
TORSDOF 8
ENDMDL
MODEL 4
REMARK VINA RESULT: -7.621858349      1.347      1.633
REMARK  8 active torsions:
REMARK  status: ('A' for Active; 'I' for Inactive)
REMARK    1  A    between atoms: C6_7  and  C7_8 
REMARK    2  A    between atoms: C7_8  and  N2_9 
REMARK    3  A    between atoms: N5_19  and  C12_20 
REMARK    4  A    between atoms: C12_20  and  C13_21 
REMARK    5  A    between atoms: C13_21  and  C14_22 
REMARK    6  A    between atoms: N6_25  and  C17_26 
REMARK    7  A    between atoms: C17_26  and  C18_27 
REMARK    8  A    between atoms: C22_31  and  O1_32 
ROOT
HETATM    1  C1  UNL     1      -6.814  13.575  24.786  1.00  0.00     0.068 C 
HETATM    2  C2  UNL     1      -5.674  12.613  24.647  1.00  0.00     0.014 A 
HETATM    3  C3  UNL     1      -5.220  12.046  25.842  1.00  0.00     0.042 A 
HETATM    4  C4  UNL     1      -4.168  11.182  25.864  1.00  0.00     0.094 A 
HETATM    5  N1  UNL     1      -3.564  10.885  24.665  1.00  0.00    -0.349 N 
HETATM    6  C5  UNL     1      -2.437   9.954  24.790  1.00  0.00     0.156 C 
HETATM    7  C6  UNL     1      -3.983  11.413  23.517  1.00  0.00     0.108 A 
HETATM    8  N5  UNL     1      -5.066  12.303  23.497  1.00  0.00    -0.318 N 
ENDROOT
BRANCH   8   9
HETATM    9  C12 UNL     1      -5.483  12.871  22.275  1.00  0.00     0.077 C 
BRANCH   9  10
HETATM   10  C13 UNL     1      -6.709  12.475  21.581  1.00  0.00     0.102 C 
BRANCH  10  11
HETATM   11  C14 UNL     1      -7.046  11.079  21.388  1.00  0.00     0.020 A 
HETATM   12  C15 UNL     1      -6.358  10.355  20.420  1.00  0.00     0.043 A 
HETATM   13  C16 UNL     1      -6.675   9.031  20.210  1.00  0.00     0.096 A 
HETATM   14  N6  UNL     1      -7.653   8.410  20.936  1.00  0.00    -0.322 N 
HETATM   15  C22 UNL     1      -8.301   9.118  21.858  1.00  0.00     0.225 A 
HETATM   16  N7  UNL     1      -7.996  10.413  22.067  1.00  0.00    -0.321 N 
HETATM   17  C23 UNL     1      -8.741  11.159  23.092  1.00  0.00     0.160 C 
BRANCH  14  18
HETATM   18  C17 UNL     1      -7.970   7.034  20.688  1.00  0.00     0.140 C 
BRANCH  18  19
HETATM   19  C18 UNL     1      -8.934   6.782  19.585  1.00  0.00    -0.035 C 
HETATM   20  C19 UNL     1     -10.135   7.667  19.558  1.00  0.00     0.016 C 
HETATM   21  C20 UNL     1      -8.276   6.878  18.216  1.00  0.00     0.016 C 
HETATM   22  C21 UNL     1      -9.455   5.343  19.680  1.00  0.00     0.016 C 
ENDBRANCH  18  19
ENDBRANCH  14  18
BRANCH  15  23
HETATM   23  O1  UNL     1      -9.317   8.568  22.652  1.00  0.00    -0.332 OA
ATOM     24  H1  UNL     1      -9.359   8.702  23.591  1.00  0.00     0.221 HD
ENDBRANCH  15  23
ENDBRANCH  10  11
ENDBRANCH   9  10
ENDBRANCH   8   9
BRANCH   7  25
HETATM   25  C7  UNL     1      -3.330  11.144  22.243  1.00  0.00     0.224 C 
BRANCH  25  26
HETATM   26  N2  UNL     1      -2.379  12.070  21.679  1.00  0.00    -0.187 N 
HETATM   27  C8  UNL     1      -1.537  12.636  22.563  1.00  0.00     0.111 A 
HETATM   28  C9  UNL     1      -0.661  13.596  22.161  1.00  0.00     0.035 A 
HETATM   29  C10 UNL     1      -0.657  13.976  20.821  1.00  0.00     0.107 A 
HETATM   30  N3  UNL     1      -1.506  13.392  19.973  1.00  0.00    -0.202 N 
HETATM   31  C11 UNL     1      -2.365  12.434  20.417  1.00  0.00     0.678 A 
ATOM     32  H3  UNL     1      -1.512  13.663  18.991  1.00  0.00     0.183 HD
HETATM   33  N4  UNL     1      -3.060  11.899  19.481  1.00  0.00    -0.234 N 
ATOM     34  H42 UNL     1      -3.704  11.182  19.814  1.00  0.00     0.174 HD
ATOM     35  H41 UNL     1      -3.049  12.181  18.502  1.00  0.00     0.174 HD
ENDBRANCH  25  26
ENDBRANCH   7  25
TORSDOF 8
ENDMDL
MODEL 5
REMARK VINA RESULT: -7.619891302      1.422      3.910
REMARK  8 active torsions:
REMARK  status: ('A' for Active; 'I' for Inactive)
REMARK    1  A    between atoms: C6_7  and  C7_8 
REMARK    2  A    between atoms: C7_8  and  N2_9 
REMARK    3  A    between atoms: N5_19  and  C12_20 
REMARK    4  A    between atoms: C12_20  and  C13_21 
REMARK    5  A    between atoms: C13_21  and  C14_22 
REMARK    6  A    between atoms: N6_25  and  C17_26 
REMARK    7  A    between atoms: C17_26  and  C18_27 
REMARK    8  A    between atoms: C22_31  and  O1_32 
ROOT
HETATM    1  C1  UNL     1      -3.291  13.914  19.192  1.00  0.00     0.068 C 
HETATM    2  C2  UNL     1      -2.618  13.443  20.446  1.00  0.00     0.014 A 
HETATM    3  C3  UNL     1      -1.703  14.340  21.006  1.00  0.00     0.042 A 
HETATM    4  C4  UNL     1      -0.994  14.026  22.126  1.00  0.00     0.094 A 
HETATM    5  N1  UNL     1      -1.211  12.791  22.690  1.00  0.00    -0.349 N 
HETATM    6  C5  UNL     1      -0.399  12.541  23.886  1.00  0.00     0.156 C 
HETATM    7  C6  UNL     1      -2.080  11.925  22.173  1.00  0.00     0.108 A 
HETATM    8  N5  UNL     1      -2.807  12.250  21.019  1.00  0.00    -0.318 N 
ENDROOT
BRANCH   8   9
HETATM    9  C12 UNL     1      -3.706  11.312  20.471  1.00  0.00     0.077 C 
BRANCH   9  10
HETATM   10  C13 UNL     1      -5.151  11.355  20.697  1.00  0.00     0.102 C 
BRANCH  10  11
HETATM   11  C14 UNL     1      -6.029  10.347  20.139  1.00  0.00     0.020 A 
HETATM   12  C15 UNL     1      -6.057   9.088  20.728  1.00  0.00     0.043 A 
HETATM   13  C16 UNL     1      -6.873   8.110  20.202  1.00  0.00     0.096 A 
HETATM   14  N6  UNL     1      -7.659   8.352  19.109  1.00  0.00    -0.322 N 
HETATM   15  C22 UNL     1      -7.619   9.562  18.557  1.00  0.00     0.225 A 
HETATM   16  N7  UNL     1      -6.823  10.522  19.068  1.00  0.00    -0.321 N 
HETATM   17  C23 UNL     1      -6.805  11.843  18.424  1.00  0.00     0.160 C 
BRANCH  14  18
HETATM   18  C17 UNL     1      -8.489   7.311  18.576  1.00  0.00     0.140 C 
BRANCH  18  19
HETATM   19  C18 UNL     1      -9.649   6.916  19.418  1.00  0.00    -0.035 C 
HETATM   20  C19 UNL     1      -9.855   7.720  20.657  1.00  0.00     0.016 C 
HETATM   21  C20 UNL     1     -10.957   6.945  18.641  1.00  0.00     0.016 C 
HETATM   22  C21 UNL     1      -9.480   5.459  19.867  1.00  0.00     0.016 C 
ENDBRANCH  18  19
ENDBRANCH  14  18
BRANCH  15  23
HETATM   23  O1  UNL     1      -8.388   9.904  17.438  1.00  0.00    -0.332 OA
ATOM     24  H1  UNL     1      -8.963  10.661  17.425  1.00  0.00     0.221 HD
ENDBRANCH  15  23
ENDBRANCH  10  11
ENDBRANCH   9  10
ENDBRANCH   8   9
BRANCH   7  25
HETATM   25  C7  UNL     1      -2.293  10.597  22.730  1.00  0.00     0.224 C 
BRANCH  25  26
HETATM   26  N2  UNL     1      -2.781  10.419  24.076  1.00  0.00    -0.187 N 
HETATM   27  C8  UNL     1      -3.866  11.149  24.392  1.00  0.00     0.111 A 
HETATM   28  C9  UNL     1      -4.358  11.136  25.660  1.00  0.00     0.035 A 
HETATM   29  C10 UNL     1      -3.715  10.355  26.617  1.00  0.00     0.107 A 
HETATM   30  N3  UNL     1      -2.641   9.643  26.266  1.00  0.00    -0.202 N 
HETATM   31  C11 UNL     1      -2.183   9.683  24.985  1.00  0.00     0.678 A 
ATOM     32  H3  UNL     1      -2.163   9.069  26.959  1.00  0.00     0.183 HD
HETATM   33  N4  UNL     1      -1.201   8.888  24.770  1.00  0.00    -0.234 N 
ATOM     34  H42 UNL     1      -0.858   8.918  23.810  1.00  0.00     0.174 HD
ATOM     35  H41 UNL     1      -0.738   8.316  25.476  1.00  0.00     0.174 HD
ENDBRANCH  25  26
ENDBRANCH   7  25
TORSDOF 8
ENDMDL
