MODEL 1
REMARK VINA RESULT: -8.710555487      0.000      0.000
REMARK  9 active torsions:
REMARK  status: ('A' for Active; 'I' for Inactive)
REMARK    1  A    between atoms: C2_2  and  N1_3 
REMARK    2  A    between atoms: C2_2  and  C17_22 
REMARK       I    between atoms: N1_3  and  C3_5 
REMARK    3  A    between atoms: C3_5  and  C4_7 
REMARK    4  A    between atoms: C4_7  and  C5_8 
REMARK    5  A    between atoms: C5_8  and  N2_9 
REMARK    6  A    between atoms: C10_14  and  C11_15 
REMARK    7  A    between atoms: C17_22  and  O2_23 
REMARK    8  A    between atoms: C18_25  and  C19_26 
REMARK    9  A    between atoms: C19_26  and  N5_30 
ROOT
HETATM    1  N1  UNL     1      -3.917  10.340  22.868  1.00  0.00    -0.351 N 
ATOM      2  H1  UNL     1      -3.255   9.696  22.435  1.00  0.00     0.163 HD
HETATM    3  C3  UNL     1      -5.300  10.349  22.415  1.00  0.00     0.219 C 
HETATM    4  O1  UNL     1      -6.055  11.158  22.983  1.00  0.00    -0.274 OA
ENDROOT
BRANCH   1   5
HETATM    5  C2  UNL     1      -3.465  11.213  23.905  1.00  0.00     0.137 C 
HETATM    6  C1  UNL     1      -2.025  11.596  23.673  1.00  0.00     0.039 C 
BRANCH   5   7
HETATM    7  C17 UNL     1      -3.527  10.528  25.244  1.00  0.00     0.069 C 
HETATM    8  C18 UNL     1      -2.528   9.844  25.722  1.00  0.00     0.083 C 
BRANCH   7   9
HETATM    9  O2  UNL     1      -4.706  10.668  25.933  1.00  0.00    -0.363 OA
ATOM     10  H2  UNL     1      -5.474  10.292  25.520  1.00  0.00     0.217 HD
ENDBRANCH   7   9
BRANCH   8  11
HETATM   11  C19 UNL     1      -2.456   9.148  26.974  1.00  0.00     0.115 C 
HETATM   12  N4  UNL     1      -2.053   7.979  27.178  1.00  0.00    -0.384 N 
ATOM     13  H42 UNL     1      -1.740   7.468  26.353  1.00  0.00     0.157 HD
ATOM     14  H41 UNL     1      -2.001   7.484  28.069  1.00  0.00     0.157 HD
BRANCH  11  15
HETATM   15  N5  UNL     1      -2.901   9.876  28.150  1.00  0.00    -0.292 N 
HETATM   16  N6  UNL     1      -3.789   9.402  28.903  1.00  0.00    -0.344 N 
ATOM     17  H62 UNL     1      -4.192   8.494  28.672  1.00  0.00     0.176 HD
ATOM     18  H61 UNL     1      -4.102   9.913  29.728  1.00  0.00     0.176 HD
ATOM     19  H5  UNL     1      -2.489  10.783  28.368  1.00  0.00     0.188 HD
ENDBRANCH  11  15
ENDBRANCH   8  11
ENDBRANCH   5   7
ENDBRANCH   1   5
BRANCH   3  20
HETATM   20  C4  UNL     1      -5.729   9.455  21.362  1.00  0.00     0.123 C 
BRANCH  20  21
HETATM   21  C5  UNL     1      -7.107   9.471  20.843  1.00  0.00     0.138 C 
BRANCH  21  22
HETATM   22  N2  UNL     1      -7.729   8.197  20.648  1.00  0.00    -0.356 N 
HETATM   23  C6  UNL     1      -7.024   7.243  19.954  1.00  0.00     0.091 A 
HETATM   24  C7  UNL     1      -7.597   6.025  19.681  1.00  0.00     0.017 A 
HETATM   25  C8  UNL     1      -8.878   5.735  20.091  1.00  0.00     0.004 A 
HETATM   26  C9  UNL     1      -9.573   6.694  20.780  1.00  0.00     0.030 A 
HETATM   27  C10 UNL     1      -8.977   7.948  21.060  1.00  0.00     0.044 A 
BRANCH  27  28
HETATM   28  C11 UNL     1      -9.778   8.944  21.748  1.00  0.00    -0.007 A 
HETATM   29  C12 UNL     1     -10.606   9.780  21.028  1.00  0.00     0.031 A 
HETATM   30  C13 UNL     1     -11.377  10.747  21.632  1.00  0.00     0.090 A 
HETATM   31  N3  UNL     1     -11.350  10.914  22.962  1.00  0.00    -0.371 N 
HETATM   32  C14 UNL     1     -12.174  11.945  23.594  1.00  0.00     0.154 C 
HETATM   33  C15 UNL     1     -10.552  10.116  23.722  1.00  0.00     0.090 A 
HETATM   34  C16 UNL     1      -9.782   9.150  23.111  1.00  0.00     0.031 A 
ENDBRANCH  27  28
ENDBRANCH  21  22
ENDBRANCH  20  21
ENDBRANCH   3  20
TORSDOF 9
ENDMDL
MODEL 2
REMARK VINA RESULT: -8.415441994      0.492      1.248
REMARK  9 active torsions:
REMARK  status: ('A' for Active; 'I' for Inactive)
REMARK    1  A    between atoms: C2_2  and  N1_3 
REMARK    2  A    between atoms: C2_2  and  C17_22 
REMARK       I    between atoms: N1_3  and  C3_5 
REMARK    3  A    between atoms: C3_5  and  C4_7 
REMARK    4  A    between atoms: C4_7  and  C5_8 
REMARK    5  A    between atoms: C5_8  and  N2_9 
REMARK    6  A    between atoms: C10_14  and  C11_15 
REMARK    7  A    between atoms: C17_22  and  O2_23 
REMARK    8  A    between atoms: C18_25  and  C19_26 
REMARK    9  A    between atoms: C19_26  and  N5_30 
ROOT
HETATM    1  N1  UNL     1      -3.967  10.338  23.183  1.00  0.00    -0.351 N 
ATOM      2  H1  UNL     1      -3.359   9.587  22.855  1.00  0.00     0.163 HD
HETATM    3  C3  UNL     1      -5.292  10.485  22.600  1.00  0.00     0.219 C 
HETATM    4  O1  UNL     1      -5.982  11.419  23.044  1.00  0.00    -0.274 OA
ENDROOT
BRANCH   1   5
HETATM    5  C2  UNL     1      -3.497  11.220  24.204  1.00  0.00     0.137 C 
HETATM    6  C1  UNL     1      -2.002  11.387  24.102  1.00  0.00     0.039 C 
BRANCH   5   7
HETATM    7  C17 UNL     1      -3.784  10.657  25.571  1.00  0.00     0.069 C 
HETATM    8  C18 UNL     1      -2.889  10.007  26.257  1.00  0.00     0.083 C 
BRANCH   7   9
HETATM    9  O2  UNL     1      -5.053  10.870  26.051  1.00  0.00    -0.363 OA
ATOM     10  H2  UNL     1      -5.163  10.767  26.988  1.00  0.00     0.217 HD
ENDBRANCH   7   9
BRANCH   8  11
HETATM   11  C19 UNL     1      -3.030   9.423  27.560  1.00  0.00     0.115 C 
HETATM   12  N4  UNL     1      -3.572   9.928  28.570  1.00  0.00    -0.384 N 
ATOM     13  H42 UNL     1      -3.957  10.864  28.445  1.00  0.00     0.157 HD
ATOM     14  H41 UNL     1      -3.673   9.513  29.497  1.00  0.00     0.157 HD
BRANCH  11  15
HETATM   15  N5  UNL     1      -2.481   8.090  27.738  1.00  0.00    -0.292 N 
HETATM   16  N6  UNL     1      -1.973   7.744  28.834  1.00  0.00    -0.344 N 
ATOM     17  H62 UNL     1      -1.954   8.419  29.598  1.00  0.00     0.176 HD
ATOM     18  H61 UNL     1      -1.587   6.808  28.959  1.00  0.00     0.176 HD
ATOM     19  H5  UNL     1      -2.508   7.426  26.964  1.00  0.00     0.188 HD
ENDBRANCH  11  15
ENDBRANCH   8  11
ENDBRANCH   5   7
ENDBRANCH   1   5
BRANCH   3  20
HETATM   20  C4  UNL     1      -5.740   9.577  21.567  1.00  0.00     0.123 C 
BRANCH  20  21
HETATM   21  C5  UNL     1      -7.115   9.616  21.043  1.00  0.00     0.138 C 
BRANCH  21  22
HETATM   22  N2  UNL     1      -7.728   8.351  20.768  1.00  0.00    -0.356 N 
HETATM   23  C6  UNL     1      -6.987   7.420  20.081  1.00  0.00     0.091 A 
HETATM   24  C7  UNL     1      -7.545   6.214  19.734  1.00  0.00     0.017 A 
HETATM   25  C8  UNL     1      -8.848   5.915  20.061  1.00  0.00     0.004 A 
HETATM   26  C9  UNL     1      -9.579   6.851  20.744  1.00  0.00     0.030 A 
HETATM   27  C10 UNL     1      -8.997   8.092  21.101  1.00  0.00     0.044 A 
BRANCH  27  28
HETATM   28  C11 UNL     1      -9.834   9.066  21.778  1.00  0.00    -0.007 A 
HETATM   29  C12 UNL     1      -9.828   9.140  23.156  1.00  0.00     0.031 A 
HETATM   30  C13 UNL     1     -10.612  10.039  23.845  1.00  0.00     0.090 A 
HETATM   31  N3  UNL     1     -11.419  10.886  23.193  1.00  0.00    -0.371 N 
HETATM   32  C14 UNL     1     -12.247  11.837  23.935  1.00  0.00     0.154 C 
HETATM   33  C15 UNL     1     -11.463  10.857  21.833  1.00  0.00     0.090 A 
HETATM   34  C16 UNL     1     -10.678   9.956  21.149  1.00  0.00     0.031 A 
ENDBRANCH  27  28
ENDBRANCH  21  22
ENDBRANCH  20  21
ENDBRANCH   3  20
TORSDOF 9
ENDMDL
MODEL 3
REMARK VINA RESULT: -8.266445190      2.188      8.483
REMARK  9 active torsions:
REMARK  status: ('A' for Active; 'I' for Inactive)
REMARK    1  A    between atoms: C2_2  and  N1_3 
REMARK    2  A    between atoms: C2_2  and  C17_22 
REMARK       I    between atoms: N1_3  and  C3_5 
REMARK    3  A    between atoms: C3_5  and  C4_7 
REMARK    4  A    between atoms: C4_7  and  C5_8 
REMARK    5  A    between atoms: C5_8  and  N2_9 
REMARK    6  A    between atoms: C10_14  and  C11_15 
REMARK    7  A    between atoms: C17_22  and  O2_23 
REMARK    8  A    between atoms: C18_25  and  C19_26 
REMARK    9  A    between atoms: C19_26  and  N5_30 
ROOT
HETATM    1  N1  UNL     1      -7.104   9.143  22.518  1.00  0.00    -0.351 N 
ATOM      2  H1  UNL     1      -6.940   8.635  23.388  1.00  0.00     0.163 HD
HETATM    3  C3  UNL     1      -6.145  10.152  22.092  1.00  0.00     0.219 C 
HETATM    4  O1  UNL     1      -6.404  10.734  21.025  1.00  0.00    -0.274 OA
ENDROOT
BRANCH   1   5
HETATM    5  C2  UNL     1      -8.270   8.847  21.746  1.00  0.00     0.137 C 
HETATM    6  C1  UNL     1      -9.397   8.414  22.649  1.00  0.00     0.039 C 
BRANCH   5   7
HETATM    7  C17 UNL     1      -8.007   7.711  20.795  1.00  0.00     0.069 C 
HETATM    8  C18 UNL     1      -8.850   6.734  20.630  1.00  0.00     0.083 C 
BRANCH   7   9
HETATM    9  O2  UNL     1      -6.818   7.767  20.110  1.00  0.00    -0.363 OA
ATOM     10  H2  UNL     1      -6.888   7.869  19.169  1.00  0.00     0.217 HD
ENDBRANCH   7   9
BRANCH   8  11
HETATM   11  C19 UNL     1      -8.724   5.598  19.763  1.00  0.00     0.115 C 
HETATM   12  N4  UNL     1      -8.955   4.397  20.035  1.00  0.00    -0.384 N 
ATOM     13  H42 UNL     1      -9.270   4.211  20.987  1.00  0.00     0.157 HD
ATOM     14  H41 UNL     1      -8.866   3.589  19.418  1.00  0.00     0.157 HD
BRANCH  11  15
HETATM   15  N5  UNL     1      -8.275   5.862  18.406  1.00  0.00    -0.292 N 
HETATM   16  N6  UNL     1      -8.661   6.885  17.787  1.00  0.00    -0.344 N 
ATOM     17  H62 UNL     1      -9.298   7.528  18.257  1.00  0.00     0.176 HD
ATOM     18  H61 UNL     1      -8.346   7.070  16.835  1.00  0.00     0.176 HD
ATOM     19  H5  UNL     1      -7.638   5.208  17.951  1.00  0.00     0.188 HD
ENDBRANCH  11  15
ENDBRANCH   8  11
ENDBRANCH   5   7
ENDBRANCH   1   5
BRANCH   3  20
HETATM   20  C4  UNL     1      -4.975  10.431  22.895  1.00  0.00     0.123 C 
BRANCH  20  21
HETATM   21  C5  UNL     1      -3.613  10.176  22.397  1.00  0.00     0.138 C 
BRANCH  21  22
HETATM   22  N2  UNL     1      -2.682  11.258  22.506  1.00  0.00    -0.356 N 
HETATM   23  C6  UNL     1      -2.492  12.049  21.398  1.00  0.00     0.091 A 
HETATM   24  C7  UNL     1      -1.564  13.061  21.424  1.00  0.00     0.017 A 
HETATM   25  C8  UNL     1      -0.810  13.303  22.549  1.00  0.00     0.004 A 
HETATM   26  C9  UNL     1      -1.005  12.507  23.647  1.00  0.00     0.030 A 
HETATM   27  C10 UNL     1      -1.964  11.466  23.615  1.00  0.00     0.044 A 
BRANCH  27  28
HETATM   28  C11 UNL     1      -2.092  10.622  24.788  1.00  0.00    -0.007 A 
HETATM   29  C12 UNL     1      -2.837  11.051  25.868  1.00  0.00     0.031 A 
HETATM   30  C13 UNL     1      -2.980  10.292  27.008  1.00  0.00     0.090 A 
HETATM   31  N3  UNL     1      -2.391   9.092  27.111  1.00  0.00    -0.371 N 
HETATM   32  C14 UNL     1      -2.550   8.294  28.327  1.00  0.00     0.154 C 
HETATM   33  C15 UNL     1      -1.646   8.619  26.077  1.00  0.00     0.090 A 
HETATM   34  C16 UNL     1      -1.506   9.383  24.938  1.00  0.00     0.031 A 
ENDBRANCH  27  28
ENDBRANCH  21  22
ENDBRANCH  20  21
ENDBRANCH   3  20
TORSDOF 9
ENDMDL
MODEL 4
REMARK VINA RESULT: -8.130943008      2.380      3.871
REMARK  9 active torsions:
REMARK  status: ('A' for Active; 'I' for Inactive)
REMARK    1  A    between atoms: C2_2  and  N1_3 
REMARK    2  A    between atoms: C2_2  and  C17_22 
REMARK       I    between atoms: N1_3  and  C3_5 
REMARK    3  A    between atoms: C3_5  and  C4_7 
REMARK    4  A    between atoms: C4_7  and  C5_8 
REMARK    5  A    between atoms: C5_8  and  N2_9 
REMARK    6  A    between atoms: C10_14  and  C11_15 
REMARK    7  A    between atoms: C17_22  and  O2_23 
REMARK    8  A    between atoms: C18_25  and  C19_26 
REMARK    9  A    between atoms: C19_26  and  N5_30 
ROOT
HETATM    1  N1  UNL     1      -3.411  10.295  23.761  1.00  0.00    -0.351 N 
ATOM      2  H1  UNL     1      -2.857   9.528  23.379  1.00  0.00     0.163 HD
HETATM    3  C3  UNL     1      -4.694  10.616  23.152  1.00  0.00     0.219 C 
HETATM    4  O1  UNL     1      -5.319  11.560  23.665  1.00  0.00    -0.274 OA
ENDROOT
BRANCH   1   5
HETATM    5  C2  UNL     1      -2.911  11.027  24.880  1.00  0.00     0.137 C 
HETATM    6  C1  UNL     1      -1.405  10.964  24.915  1.00  0.00     0.039 C 
BRANCH   5   7
HETATM    7  C17 UNL     1      -3.405  10.434  26.172  1.00  0.00     0.069 C 
HETATM    8  C18 UNL     1      -2.624   9.773  26.977  1.00  0.00     0.083 C 
BRANCH   7   9
HETATM    9  O2  UNL     1      -4.735  10.631  26.451  1.00  0.00    -0.363 OA
ATOM     10  H2  UNL     1      -5.077  11.493  26.247  1.00  0.00     0.217 HD
ENDBRANCH   7   9
BRANCH   8  11
HETATM   11  C19 UNL     1      -2.964   9.160  28.229  1.00  0.00     0.115 C 
HETATM   12  N4  UNL     1      -3.876   9.491  29.021  1.00  0.00    -0.384 N 
ATOM     13  H42 UNL     1      -4.441  10.291  28.736  1.00  0.00     0.157 HD
ATOM     14  H41 UNL     1      -4.118   9.055  29.911  1.00  0.00     0.157 HD
BRANCH  11  15
HETATM   15  N5  UNL     1      -2.160   8.020  28.635  1.00  0.00    -0.292 N 
HETATM   16  N6  UNL     1      -2.003   7.037  27.868  1.00  0.00    -0.344 N 
ATOM     17  H62 UNL     1      -2.452   7.055  26.952  1.00  0.00     0.176 HD
ATOM     18  H61 UNL     1      -1.439   6.236  28.153  1.00  0.00     0.176 HD
ATOM     19  H5  UNL     1      -1.717   8.017  29.553  1.00  0.00     0.188 HD
ENDBRANCH  11  15
ENDBRANCH   8  11
ENDBRANCH   5   7
ENDBRANCH   1   5
BRANCH   3  20
HETATM   20  C4  UNL     1      -5.174   9.857  22.019  1.00  0.00     0.123 C 
BRANCH  20  21
HETATM   21  C5  UNL     1      -6.552   9.998  21.518  1.00  0.00     0.138 C 
BRANCH  21  22
HETATM   22  N2  UNL     1      -6.695  10.475  20.175  1.00  0.00    -0.356 N 
HETATM   23  C6  UNL     1      -6.221  11.733  19.892  1.00  0.00     0.091 A 
HETATM   24  C7  UNL     1      -6.389  12.268  18.639  1.00  0.00     0.017 A 
HETATM   25  C8  UNL     1      -7.033  11.564  17.647  1.00  0.00     0.004 A 
HETATM   26  C9  UNL     1      -7.505  10.311  17.941  1.00  0.00     0.030 A 
HETATM   27  C10 UNL     1      -7.326   9.764  19.235  1.00  0.00     0.044 A 
BRANCH  27  28
HETATM   28  C11 UNL     1      -7.892   8.455  19.504  1.00  0.00    -0.007 A 
HETATM   29  C12 UNL     1      -7.067   7.350  19.581  1.00  0.00     0.031 A 
HETATM   30  C13 UNL     1      -7.556   6.086  19.823  1.00  0.00     0.090 A 
HETATM   31  N3  UNL     1      -8.869   5.880  19.995  1.00  0.00    -0.371 N 
HETATM   32  C14 UNL     1      -9.377   4.532  20.252  1.00  0.00     0.154 C 
HETATM   33  C15 UNL     1      -9.728   6.933  19.931  1.00  0.00     0.090 A 
HETATM   34  C16 UNL     1      -9.233   8.196  19.688  1.00  0.00     0.031 A 
ENDBRANCH  27  28
ENDBRANCH  21  22
ENDBRANCH  20  21
ENDBRANCH   3  20
TORSDOF 9
ENDMDL
MODEL 5
REMARK VINA RESULT: -7.901252712      2.203      3.936
REMARK  9 active torsions:
REMARK  status: ('A' for Active; 'I' for Inactive)
REMARK    1  A    between atoms: C2_2  and  N1_3 
REMARK    2  A    between atoms: C2_2  and  C17_22 
REMARK       I    between atoms: N1_3  and  C3_5 
REMARK    3  A    between atoms: C3_5  and  C4_7 
REMARK    4  A    between atoms: C4_7  and  C5_8 
REMARK    5  A    between atoms: C5_8  and  N2_9 
REMARK    6  A    between atoms: C10_14  and  C11_15 
REMARK    7  A    between atoms: C17_22  and  O2_23 
REMARK    8  A    between atoms: C18_25  and  C19_26 
REMARK    9  A    between atoms: C19_26  and  N5_30 
ROOT
HETATM    1  N1  UNL     1      -3.391  10.263  23.967  1.00  0.00    -0.351 N 
ATOM      2  H1  UNL     1      -2.897   9.544  23.438  1.00  0.00     0.163 HD
HETATM    3  C3  UNL     1      -4.691  10.722  23.498  1.00  0.00     0.219 C 
HETATM    4  O1  UNL     1      -5.240  11.599  24.187  1.00  0.00    -0.274 OA
ENDROOT
BRANCH   1   5
HETATM    5  C2  UNL     1      -2.793  10.795  25.150  1.00  0.00     0.137 C 
HETATM    6  C1  UNL     1      -1.334  11.090  24.909  1.00  0.00     0.039 C 
BRANCH   5   7
HETATM    7  C17 UNL     1      -2.860   9.800  26.277  1.00  0.00     0.069 C 
HETATM    8  C18 UNL     1      -1.946   8.892  26.458  1.00  0.00     0.083 C 
BRANCH   7   9
HETATM    9  O2  UNL     1      -3.949   9.909  27.106  1.00  0.00    -0.363 OA
ATOM     10  H2  UNL     1      -4.742  10.246  26.706  1.00  0.00     0.217 HD
ENDBRANCH   7   9
BRANCH   8  11
HETATM   11  C19 UNL     1      -1.890   7.890  27.484  1.00  0.00     0.115 C 
HETATM   12  N4  UNL     1      -2.077   8.042  28.713  1.00  0.00    -0.384 N 
ATOM     13  H42 UNL     1      -2.297   8.992  29.014  1.00  0.00     0.157 HD
ATOM     14  H41 UNL     1      -2.038   7.330  29.443  1.00  0.00     0.157 HD
BRANCH  11  15
HETATM   15  N5  UNL     1      -1.577   6.537  27.056  1.00  0.00    -0.292 N 
HETATM   16  N6  UNL     1      -0.922   5.762  27.798  1.00  0.00    -0.344 N 
ATOM     17  H62 UNL     1      -0.614   6.103  28.708  1.00  0.00     0.176 HD
ATOM     18  H61 UNL     1      -0.702   4.813  27.497  1.00  0.00     0.176 HD
ATOM     19  H5  UNL     1      -1.893   6.212  26.142  1.00  0.00     0.188 HD
ENDBRANCH  11  15
ENDBRANCH   8  11
ENDBRANCH   5   7
ENDBRANCH   1   5
BRANCH   3  20
HETATM   20  C4  UNL     1      -5.272  10.165  22.296  1.00  0.00     0.123 C 
BRANCH  20  21
HETATM   21  C5  UNL     1      -6.724  10.179  22.058  1.00  0.00     0.138 C 
BRANCH  21  22
HETATM   22  N2  UNL     1      -7.170  10.860  20.880  1.00  0.00    -0.356 N 
HETATM   23  C6  UNL     1      -6.966  12.217  20.813  1.00  0.00     0.091 A 
HETATM   24  C7  UNL     1      -7.430  12.932  19.737  1.00  0.00     0.017 A 
HETATM   25  C8  UNL     1      -8.106  12.312  18.711  1.00  0.00     0.004 A 
HETATM   26  C9  UNL     1      -8.307  10.958  18.789  1.00  0.00     0.030 A 
HETATM   27  C10 UNL     1      -7.823  10.226  19.900  1.00  0.00     0.044 A 
BRANCH  27  28
HETATM   28  C11 UNL     1      -8.109   8.804  19.954  1.00  0.00    -0.007 A 
HETATM   29  C12 UNL     1      -9.354   8.366  20.358  1.00  0.00     0.031 A 
HETATM   30  C13 UNL     1      -9.671   7.028  20.437  1.00  0.00     0.090 A 
HETATM   31  N3  UNL     1      -8.768   6.091  20.119  1.00  0.00    -0.371 N 
HETATM   32  C14 UNL     1      -9.116   4.672  20.206  1.00  0.00     0.154 C 
HETATM   33  C15 UNL     1      -7.525   6.466  19.714  1.00  0.00     0.090 A 
HETATM   34  C16 UNL     1      -7.213   7.805  19.637  1.00  0.00     0.031 A 
ENDBRANCH  27  28
ENDBRANCH  21  22
ENDBRANCH  20  21
ENDBRANCH   3  20
TORSDOF 9
ENDMDL
