MODEL 1
REMARK VINA RESULT: -8.422203675      0.000      0.000
REMARK  4 active torsions:
REMARK  status: ('A' for Active; 'I' for Inactive)
REMARK    1  A    between atoms: C7_7  and  N1_8 
REMARK       I    between atoms: N1_8  and  C8_10 
REMARK    2  A    between atoms: C8_10  and  C9_12 
REMARK    3  A    between atoms: C9_12  and  N2_13 
REMARK    4  A    between atoms: C15_19  and  N3_20 
ROOT
HETATM    1  N2  UNL     1      -9.441 205.491 113.928  1.00  0.00     0.097 N 
HETATM    2  C10 UNL     1      -8.918 204.910 112.740  1.00  0.00     0.273 C 
HETATM    3  C11 UNL     1      -7.631 204.209 113.018  1.00  0.00     0.040 C 
HETATM    4  C12 UNL     1      -6.596 205.117 113.558  1.00  0.00    -0.035 C 
HETATM    5  C13 UNL     1      -5.863 204.464 114.725  1.00  0.00     0.012 C 
HETATM    6  C14 UNL     1      -4.540 203.961 114.192  1.00  0.00     0.036 C 
HETATM    7  C15 UNL     1      -4.700 204.077 112.697  1.00  0.00     0.222 C 
HETATM    8  C18 UNL     1      -5.446 205.378 112.579  1.00  0.00     0.045 C 
HETATM    9  C19 UNL     1      -7.188 206.430 113.956  1.00  0.00     0.040 C 
HETATM   10  C20 UNL     1      -8.512 206.253 114.687  1.00  0.00     0.273 C 
ENDROOT
BRANCH   1  11
HETATM   11  C9  UNL     1     -10.258 204.566 114.644  1.00  0.00     0.374 C 
BRANCH  11  12
HETATM   12  C8  UNL     1     -11.583 204.308 114.094  1.00  0.00     0.246 C 
HETATM   13  N1  UNL     1     -11.957 203.308 113.171  1.00  0.00    -0.355 N 
ATOM     14  H1  UNL     1     -11.239 202.672 112.822  1.00  0.00     0.162 HD
HETATM   15  O1  UNL     1     -12.518 205.086 114.497  1.00  0.00    -0.272 OA
BRANCH  13  16
HETATM   16  C7  UNL     1     -13.319 203.145 112.699  1.00  0.00     0.088 C 
HETATM   17  C2  UNL     1     -13.824 201.772 113.059  1.00  0.00     0.004 C 
HETATM   18  C1  UNL     1     -14.243 201.707 114.508  1.00  0.00     0.012 C 
HETATM   19  C3  UNL     1     -14.972 201.439 112.129  1.00  0.00     0.006 C 
HETATM   20  C4  UNL     1     -15.792 202.682 111.801  1.00  0.00     0.001 C 
HETATM   21  C5  UNL     1     -14.973 203.692 111.015  1.00  0.00     0.002 C 
HETATM   22  C6  UNL     1     -13.493 203.365 111.234  1.00  0.00     0.025 C 
ENDBRANCH  13  16
ENDBRANCH  11  12
ENDBRANCH   1  11
BRANCH   7  23
HETATM   23  N3  UNL     1      -3.503 204.086 111.944  1.00  0.00     0.084 N 
HETATM   24  C16 UNL     1      -2.993 205.454 111.875  1.00  0.00     0.309 C 
HETATM   25  C17 UNL     1      -3.507 203.462 110.667  1.00  0.00     0.309 C 
ENDBRANCH   7  23
TORSDOF 4
ENDMDL
MODEL 2
REMARK VINA RESULT: -8.337281759      2.223      3.784
REMARK  4 active torsions:
REMARK  status: ('A' for Active; 'I' for Inactive)
REMARK    1  A    between atoms: C7_7  and  N1_8 
REMARK       I    between atoms: N1_8  and  C8_10 
REMARK    2  A    between atoms: C8_10  and  C9_12 
REMARK    3  A    between atoms: C9_12  and  N2_13 
REMARK    4  A    between atoms: C15_19  and  N3_20 
ROOT
HETATM    1  N2  UNL     1     -11.342 202.532 116.616  1.00  0.00     0.097 N 
HETATM    2  C10 UNL     1     -10.470 203.616 116.913  1.00  0.00     0.273 C 
HETATM    3  C11 UNL     1     -10.274 204.479 115.712  1.00  0.00     0.040 C 
HETATM    4  C12 UNL     1      -9.686 203.740 114.574  1.00  0.00    -0.035 C 
HETATM    5  C13 UNL     1     -10.402 204.096 113.275  1.00  0.00     0.012 C 
HETATM    6  C14 UNL     1      -9.521 205.082 112.539  1.00  0.00     0.036 C 
HETATM    7  C15 UNL     1      -8.497 205.473 113.575  1.00  0.00     0.222 C 
HETATM    8  C18 UNL     1      -8.246 204.156 114.256  1.00  0.00     0.045 C 
HETATM    9  C19 UNL     1      -9.712 202.266 114.820  1.00  0.00     0.040 C 
HETATM   10  C20 UNL     1     -11.035 201.818 115.427  1.00  0.00     0.273 C 
ENDROOT
BRANCH   1  11
HETATM   11  C9  UNL     1     -12.708 202.892 116.820  1.00  0.00     0.374 C 
BRANCH  11  12
HETATM   12  C8  UNL     1     -13.582 202.811 115.655  1.00  0.00     0.246 C 
HETATM   13  N1  UNL     1     -13.630 203.683 114.547  1.00  0.00    -0.355 N 
ATOM     14  H1  UNL     1     -12.994 204.481 114.525  1.00  0.00     0.162 HD
HETATM   15  O1  UNL     1     -14.405 201.829 115.641  1.00  0.00    -0.272 OA
BRANCH  13  16
HETATM   16  C7  UNL     1     -14.546 203.493 113.438  1.00  0.00     0.088 C 
HETATM   17  C2  UNL     1     -13.790 203.550 112.136  1.00  0.00     0.004 C 
HETATM   18  C1  UNL     1     -13.076 202.249 111.861  1.00  0.00     0.012 C 
HETATM   19  C3  UNL     1     -14.778 203.889 111.039  1.00  0.00     0.006 C 
HETATM   20  C4  UNL     1     -16.137 203.249 111.305  1.00  0.00     0.001 C 
HETATM   21  C5  UNL     1     -16.780 203.822 112.557  1.00  0.00     0.002 C 
HETATM   22  C6  UNL     1     -15.673 204.469 113.397  1.00  0.00     0.025 C 
ENDBRANCH  13  16
ENDBRANCH  11  12
ENDBRANCH   1  11
BRANCH   7  23
HETATM   23  N3  UNL     1      -7.303 206.047 113.081  1.00  0.00     0.084 N 
HETATM   24  C16 UNL     1      -6.695 205.128 112.118  1.00  0.00     0.309 C 
HETATM   25  C17 UNL     1      -6.351 206.532 114.017  1.00  0.00     0.309 C 
ENDBRANCH   7  23
TORSDOF 4
ENDMDL
MODEL 3
REMARK VINA RESULT: -8.234613013      1.491      1.858
REMARK  4 active torsions:
REMARK  status: ('A' for Active; 'I' for Inactive)
REMARK    1  A    between atoms: C7_7  and  N1_8 
REMARK       I    between atoms: N1_8  and  C8_10 
REMARK    2  A    between atoms: C8_10  and  C9_12 
REMARK    3  A    between atoms: C9_12  and  N2_13 
REMARK    4  A    between atoms: C15_19  and  N3_20 
ROOT
HETATM    1  N2  UNL     1      -9.147 205.171 113.352  1.00  0.00     0.097 N 
HETATM    2  C10 UNL     1      -8.312 206.196 112.826  1.00  0.00     0.273 C 
HETATM    3  C11 UNL     1      -6.938 205.678 112.571  1.00  0.00     0.040 C 
HETATM    4  C12 UNL     1      -6.288 205.166 113.797  1.00  0.00    -0.035 C 
HETATM    5  C13 UNL     1      -5.583 203.843 113.520  1.00  0.00     0.012 C 
HETATM    6  C14 UNL     1      -4.108 204.146 113.376  1.00  0.00     0.036 C 
HETATM    7  C15 UNL     1      -4.072 205.651 113.276  1.00  0.00     0.222 C 
HETATM    8  C18 UNL     1      -5.124 206.040 114.278  1.00  0.00     0.045 C 
HETATM    9  C19 UNL     1      -7.274 205.033 114.912  1.00  0.00     0.040 C 
HETATM   10  C20 UNL     1      -8.590 204.434 114.432  1.00  0.00     0.273 C 
ENDROOT
BRANCH   1  11
HETATM   11  C9  UNL     1      -9.770 204.421 112.310  1.00  0.00     0.374 C 
BRANCH  11  12
HETATM   12  C8  UNL     1     -11.209 204.217 112.428  1.00  0.00     0.246 C 
HETATM   13  N1  UNL     1     -12.044 203.442 111.595  1.00  0.00    -0.355 N 
ATOM     14  H1  UNL     1     -11.626 202.953 110.802  1.00  0.00     0.162 HD
HETATM   15  O1  UNL     1     -11.781 204.818 113.404  1.00  0.00    -0.272 OA
BRANCH  13  16
HETATM   16  C7  UNL     1     -13.472 203.311 111.819  1.00  0.00     0.088 C 
HETATM   17  C2  UNL     1     -13.780 201.934 112.347  1.00  0.00     0.004 C 
HETATM   18  C1  UNL     1     -13.468 201.832 113.821  1.00  0.00     0.012 C 
HETATM   19  C3  UNL     1     -15.239 201.642 112.063  1.00  0.00     0.006 C 
HETATM   20  C4  UNL     1     -16.086 202.905 112.186  1.00  0.00     0.001 C 
HETATM   21  C5  UNL     1     -15.710 203.927 111.127  1.00  0.00     0.002 C 
HETATM   22  C6  UNL     1     -14.310 203.575 110.614  1.00  0.00     0.025 C 
ENDBRANCH  13  16
ENDBRANCH  11  12
ENDBRANCH   1  11
BRANCH   7  23
HETATM   23  N3  UNL     1      -2.827 206.261 113.557  1.00  0.00     0.084 N 
HETATM   24  C16 UNL     1      -2.060 205.392 114.449  1.00  0.00     0.309 C 
HETATM   25  C17 UNL     1      -2.824 207.609 114.006  1.00  0.00     0.309 C 
ENDBRANCH   7  23
TORSDOF 4
ENDMDL
MODEL 4
REMARK VINA RESULT: -8.154035536      2.311      3.891
REMARK  4 active torsions:
REMARK  status: ('A' for Active; 'I' for Inactive)
REMARK    1  A    between atoms: C7_7  and  N1_8 
REMARK       I    between atoms: N1_8  and  C8_10 
REMARK    2  A    between atoms: C8_10  and  C9_12 
REMARK    3  A    between atoms: C9_12  and  N2_13 
REMARK    4  A    between atoms: C15_19  and  N3_20 
ROOT
HETATM    1  N2  UNL     1     -11.940 204.355 117.534  1.00  0.00     0.097 N 
HETATM    2  C10 UNL     1     -11.165 205.546 117.463  1.00  0.00     0.273 C 
HETATM    3  C11 UNL     1     -10.772 205.837 116.055  1.00  0.00     0.040 C 
HETATM    4  C12 UNL     1      -9.967 204.752 115.454  1.00  0.00    -0.035 C 
HETATM    5  C13 UNL     1     -10.441 204.453 114.035  1.00  0.00     0.012 C 
HETATM    6  C14 UNL     1      -9.466 205.121 113.092  1.00  0.00     0.036 C 
HETATM    7  C15 UNL     1      -8.660 206.015 114.001  1.00  0.00     0.222 C 
HETATM    8  C18 UNL     1      -8.504 205.139 115.215  1.00  0.00     0.045 C 
HETATM    9  C19 UNL     1     -10.001 203.524 116.306  1.00  0.00     0.040 C 
HETATM   10  C20 UNL     1     -11.401 203.242 116.834  1.00  0.00     0.273 C 
ENDROOT
BRANCH   1  11
HETATM   11  C9  UNL     1     -13.328 204.626 117.347  1.00  0.00     0.374 C 
BRANCH  11  12
HETATM   12  C8  UNL     1     -13.959 204.015 116.183  1.00  0.00     0.246 C 
HETATM   13  N1  UNL     1     -13.939 204.472 114.848  1.00  0.00    -0.355 N 
ATOM     14  H1  UNL     1     -13.436 205.333 114.634  1.00  0.00     0.162 HD
HETATM   15  O1  UNL     1     -14.610 202.934 116.403  1.00  0.00    -0.272 OA
BRANCH  13  16
HETATM   16  C7  UNL     1     -14.604 203.768 113.768  1.00  0.00     0.088 C 
HETATM   17  C2  UNL     1     -13.601 203.395 112.708  1.00  0.00     0.004 C 
HETATM   18  C1  UNL     1     -12.809 202.174 113.110  1.00  0.00     0.012 C 
HETATM   19  C3  UNL     1     -14.354 203.172 111.413  1.00  0.00     0.006 C 
HETATM   20  C4  UNL     1     -15.720 202.545 111.671  1.00  0.00     0.001 C 
HETATM   21  C5  UNL     1     -16.620 203.487 112.453  1.00  0.00     0.002 C 
HETATM   22  C6  UNL     1     -15.726 204.524 113.140  1.00  0.00     0.025 C 
ENDBRANCH  13  16
ENDBRANCH  11  12
ENDBRANCH   1  11
BRANCH   7  23
HETATM   23  N3  UNL     1      -7.409 206.444 113.499  1.00  0.00     0.084 N 
HETATM   24  C16 UNL     1      -6.995 205.550 112.419  1.00  0.00     0.309 C 
HETATM   25  C17 UNL     1      -6.356 206.675 114.424  1.00  0.00     0.309 C 
ENDBRANCH   7  23
TORSDOF 4
ENDMDL
MODEL 5
REMARK VINA RESULT: -7.980902732      2.375      4.012
REMARK  4 active torsions:
REMARK  status: ('A' for Active; 'I' for Inactive)
REMARK    1  A    between atoms: C7_7  and  N1_8 
REMARK       I    between atoms: N1_8  and  C8_10 
REMARK    2  A    between atoms: C8_10  and  C9_12 
REMARK    3  A    between atoms: C9_12  and  N2_13 
REMARK    4  A    between atoms: C15_19  and  N3_20 
ROOT
HETATM    1  N2  UNL     1     -12.100 203.911 117.604  1.00  0.00     0.097 N 
HETATM    2  C10 UNL     1     -11.803 205.227 117.151  1.00  0.00     0.273 C 
HETATM    3  C11 UNL     1     -11.159 205.190 115.807  1.00  0.00     0.040 C 
HETATM    4  C12 UNL     1      -9.892 204.427 115.806  1.00  0.00    -0.035 C 
HETATM    5  C13 UNL     1      -9.813 203.517 114.585  1.00  0.00     0.012 C 
HETATM    6  C14 UNL     1      -8.910 204.198 113.581  1.00  0.00     0.036 C 
HETATM    7  C15 UNL     1      -8.756 205.590 114.140  1.00  0.00     0.222 C 
HETATM    8  C18 UNL     1      -8.652 205.308 115.614  1.00  0.00     0.045 C 
HETATM    9  C19 UNL     1      -9.731 203.651 117.073  1.00  0.00     0.040 C 
HETATM   10  C20 UNL     1     -11.032 202.979 117.492  1.00  0.00     0.273 C 
ENDROOT
BRANCH   1  11
HETATM   11  C9  UNL     1     -13.383 203.482 117.151  1.00  0.00     0.374 C 
BRANCH  11  12
HETATM   12  C8  UNL     1     -13.434 202.863 115.832  1.00  0.00     0.246 C 
HETATM   13  N1  UNL     1     -13.770 203.472 114.604  1.00  0.00    -0.355 N 
ATOM     14  H1  UNL     1     -14.017 204.462 114.600  1.00  0.00     0.162 HD
HETATM   15  O1  UNL     1     -13.139 201.617 115.786  1.00  0.00    -0.272 OA
BRANCH  13  16
HETATM   16  C7  UNL     1     -13.779 202.748 113.346  1.00  0.00     0.088 C 
HETATM   17  C2  UNL     1     -13.595 203.710 112.202  1.00  0.00     0.004 C 
HETATM   18  C1  UNL     1     -12.145 204.103 112.046  1.00  0.00     0.012 C 
HETATM   19  C3  UNL     1     -14.134 203.052 110.949  1.00  0.00     0.006 C 
HETATM   20  C4  UNL     1     -13.872 201.550 110.960  1.00  0.00     0.001 C 
HETATM   21  C5  UNL     1     -14.634 200.865 112.082  1.00  0.00     0.002 C 
HETATM   22  C6  UNL     1     -15.008 201.935 113.114  1.00  0.00     0.025 C 
ENDBRANCH  13  16
ENDBRANCH  11  12
ENDBRANCH   1  11
BRANCH   7  23
HETATM   23  N3  UNL     1      -7.648 206.330 113.666  1.00  0.00     0.084 N 
HETATM   24  C16 UNL     1      -7.053 205.625 112.532  1.00  0.00     0.309 C 
HETATM   25  C17 UNL     1      -6.664 206.742 114.604  1.00  0.00     0.309 C 
ENDBRANCH   7  23
TORSDOF 4
ENDMDL
