MODEL 1
REMARK VINA RESULT: -7.862846466      0.000      0.000
REMARK  6 active torsions:
REMARK  status: ('A' for Active; 'I' for Inactive)
REMARK    1  A    between atoms: C2_2  and  C3_3 
REMARK    2  A    between atoms: C3_3  and  C4_4 
REMARK    3  A    between atoms: N1_7  and  N2_8 
REMARK       I    between atoms: N2_8  and  C7_10 
REMARK    4  A    between atoms: C7_10  and  C8_12 
REMARK    5  A    between atoms: C9_13  and  C10_14 
REMARK    6  A    between atoms: C10_14  and  C11_15 
ROOT
HETATM    1  C8  UNL     1      -9.946 204.587 113.378  1.00  0.00    -0.004 C 
HETATM    2  C9  UNL     1     -11.055 204.178 113.637  1.00  0.00    -0.086 C 
ENDROOT
BRANCH   1   3
HETATM    3  C7  UNL     1      -8.622 205.063 113.097  1.00  0.00     0.310 C 
HETATM    4  N2  UNL     1      -7.460 204.302 113.313  1.00  0.00    -0.278 N 
ATOM      5  H2  UNL     1      -7.609 203.367 113.694  1.00  0.00     0.184 HD
HETATM    6  O1  UNL     1      -8.503 206.219 112.633  1.00  0.00    -0.257 OA
BRANCH   4   7
HETATM    7  N1  UNL     1      -6.171 204.642 113.086  1.00  0.00    -0.228 NA
HETATM    8  C6  UNL     1      -5.728 204.363 111.757  1.00  0.00     0.114 C 
HETATM    9  C5  UNL     1      -4.218 204.222 111.800  1.00  0.00     0.022 C 
HETATM   10  C4  UNL     1      -3.881 204.515 113.234  1.00  0.00     0.005 C 
HETATM   11  C21 UNL     1      -5.171 204.166 113.983  1.00  0.00     0.118 C 
BRANCH  10  12
HETATM   12  C3  UNL     1      -3.487 205.928 113.409  1.00  0.00     0.032 C 
BRANCH  12  13
HETATM   13  C2  UNL     1      -2.146 206.206 112.882  1.00  0.00    -0.036 C 
HETATM   14  C1  UNL     1      -1.850 207.076 111.940  1.00  0.00     0.007 C 
ENDBRANCH  12  13
ENDBRANCH  10  12
ENDBRANCH   4   7
ENDBRANCH   1   3
BRANCH   2  15
HETATM   15  C10 UNL     1     -12.416 203.658 113.979  1.00  0.00     0.031 C 
HETATM   16  C17 UNL     1     -12.891 204.615 115.078  1.00  0.00     0.049 C 
HETATM   17  C18 UNL     1     -12.060 204.203 116.285  1.00  0.00     0.169 C 
HETATM   18  O2  UNL     1     -12.579 203.032 116.766  1.00  0.00    -0.391 OA
HETATM   19  C19 UNL     1     -12.829 202.050 115.862  1.00  0.00     0.169 C 
HETATM   20  C20 UNL     1     -12.294 202.267 114.471  1.00  0.00     0.049 C 
BRANCH  15  21
HETATM   21  C11 UNL     1     -13.230 203.851 112.719  1.00  0.00     0.006 C 
HETATM   22  C12 UNL     1     -13.221 202.617 111.855  1.00  0.00     0.006 C 
HETATM   23  C13 UNL     1     -14.475 201.842 111.774  1.00  0.00     0.000 C 
HETATM   24  C14 UNL     1     -15.746 202.620 111.770  1.00  0.00     0.000 C 
HETATM   25  C15 UNL     1     -15.732 203.527 112.969  1.00  0.00     0.000 C 
HETATM   26  C16 UNL     1     -14.562 204.470 112.893  1.00  0.00     0.006 C 
ENDBRANCH  15  21
ENDBRANCH   2  15
TORSDOF 6
ENDMDL
MODEL 2
REMARK VINA RESULT: -7.815796216      1.779      2.586
REMARK  6 active torsions:
REMARK  status: ('A' for Active; 'I' for Inactive)
REMARK    1  A    between atoms: C2_2  and  C3_3 
REMARK    2  A    between atoms: C3_3  and  C4_4 
REMARK    3  A    between atoms: N1_7  and  N2_8 
REMARK       I    between atoms: N2_8  and  C7_10 
REMARK    4  A    between atoms: C7_10  and  C8_12 
REMARK    5  A    between atoms: C9_13  and  C10_14 
REMARK    6  A    between atoms: C10_14  and  C11_15 
ROOT
HETATM    1  C8  UNL     1     -11.824 204.182 113.439  1.00  0.00    -0.004 C 
HETATM    2  C9  UNL     1     -12.940 204.060 113.887  1.00  0.00    -0.086 C 
ENDROOT
BRANCH   1   3
HETATM    3  C7  UNL     1     -10.493 204.301 112.915  1.00  0.00     0.310 C 
HETATM    4  N2  UNL     1      -9.343 204.360 113.720  1.00  0.00    -0.278 N 
ATOM      5  H2  UNL     1      -9.506 204.315 114.727  1.00  0.00     0.184 HD
HETATM    6  O1  UNL     1     -10.358 204.354 111.672  1.00  0.00    -0.257 OA
BRANCH   4   7
HETATM    7  N1  UNL     1      -8.049 204.469 113.342  1.00  0.00    -0.228 NA
HETATM    8  C6  UNL     1      -7.118 204.086 114.355  1.00  0.00     0.114 C 
HETATM    9  C5  UNL     1      -5.805 204.783 114.056  1.00  0.00     0.022 C 
HETATM   10  C4  UNL     1      -6.082 205.510 112.770  1.00  0.00     0.005 C 
HETATM   11  C21 UNL     1      -7.601 205.704 112.789  1.00  0.00     0.118 C 
BRANCH  10  12
HETATM   12  C3  UNL     1      -5.624 204.724 111.607  1.00  0.00     0.032 C 
BRANCH  12  13
HETATM   13  C2  UNL     1      -4.239 204.260 111.754  1.00  0.00    -0.036 C 
HETATM   14  C1  UNL     1      -3.558 203.565 110.868  1.00  0.00     0.007 C 
ENDBRANCH  12  13
ENDBRANCH  10  12
ENDBRANCH   4   7
ENDBRANCH   1   3
BRANCH   2  15
HETATM   15  C10 UNL     1     -14.318 203.880 114.444  1.00  0.00     0.031 C 
HETATM   16  C17 UNL     1     -14.816 205.318 114.622  1.00  0.00     0.049 C 
HETATM   17  C18 UNL     1     -14.028 205.814 115.828  1.00  0.00     0.169 C 
HETATM   18  O2  UNL     1     -14.576 205.246 116.945  1.00  0.00    -0.391 OA
HETATM   19  C19 UNL     1     -14.810 203.908 116.905  1.00  0.00     0.169 C 
HETATM   20  C20 UNL     1     -14.229 203.159 115.735  1.00  0.00     0.049 C 
BRANCH  15  21
HETATM   21  C11 UNL     1     -15.090 203.184 113.345  1.00  0.00     0.006 C 
HETATM   22  C12 UNL     1     -15.297 204.083 112.153  1.00  0.00     0.006 C 
HETATM   23  C13 UNL     1     -14.532 203.769 110.931  1.00  0.00     0.000 C 
HETATM   24  C14 UNL     1     -14.329 202.326 110.618  1.00  0.00     0.000 C 
HETATM   25  C15 UNL     1     -13.725 201.675 111.831  1.00  0.00     0.000 C 
HETATM   26  C16 UNL     1     -14.651 201.812 113.009  1.00  0.00     0.006 C 
ENDBRANCH  15  21
ENDBRANCH   2  15
TORSDOF 6
ENDMDL
MODEL 3
REMARK VINA RESULT: -7.735349392      1.089      1.579
REMARK  6 active torsions:
REMARK  status: ('A' for Active; 'I' for Inactive)
REMARK    1  A    between atoms: C2_2  and  C3_3 
REMARK    2  A    between atoms: C3_3  and  C4_4 
REMARK    3  A    between atoms: N1_7  and  N2_8 
REMARK       I    between atoms: N2_8  and  C7_10 
REMARK    4  A    between atoms: C7_10  and  C8_12 
REMARK    5  A    between atoms: C9_13  and  C10_14 
REMARK    6  A    between atoms: C10_14  and  C11_15 
ROOT
HETATM    1  C8  UNL     1     -10.123 204.674 113.633  1.00  0.00    -0.004 C 
HETATM    2  C9  UNL     1     -11.270 204.414 113.914  1.00  0.00    -0.086 C 
ENDROOT
BRANCH   1   3
HETATM    3  C7  UNL     1      -8.757 204.955 113.294  1.00  0.00     0.310 C 
HETATM    4  N2  UNL     1      -7.695 204.071 113.548  1.00  0.00    -0.278 N 
ATOM      5  H2  UNL     1      -7.950 203.192 114.000  1.00  0.00     0.184 HD
HETATM    6  O1  UNL     1      -8.506 206.050 112.741  1.00  0.00    -0.257 OA
BRANCH   4   7
HETATM    7  N1  UNL     1      -6.380 204.225 113.273  1.00  0.00    -0.228 NA
HETATM    8  C6  UNL     1      -5.693 205.069 114.198  1.00  0.00     0.114 C 
HETATM    9  C5  UNL     1      -4.470 205.621 113.491  1.00  0.00     0.022 C 
HETATM   10  C4  UNL     1      -4.516 204.956 112.144  1.00  0.00     0.005 C 
HETATM   11  C21 UNL     1      -6.000 204.627 111.958  1.00  0.00     0.118 C 
BRANCH  10  12
HETATM   12  C3  UNL     1      -3.659 203.753 112.117  1.00  0.00     0.032 C 
BRANCH  12  13
HETATM   13  C2  UNL     1      -3.401 203.279 110.752  1.00  0.00    -0.036 C 
HETATM   14  C1  UNL     1      -2.616 203.856 109.869  1.00  0.00     0.007 C 
ENDBRANCH  12  13
ENDBRANCH  10  12
ENDBRANCH   4   7
ENDBRANCH   1   3
BRANCH   2  15
HETATM   15  C10 UNL     1     -12.686 204.066 114.250  1.00  0.00     0.031 C 
HETATM   16  C17 UNL     1     -13.180 205.301 115.011  1.00  0.00     0.049 C 
HETATM   17  C18 UNL     1     -12.478 205.186 116.358  1.00  0.00     0.169 C 
HETATM   18  O2  UNL     1     -13.113 204.210 117.076  1.00  0.00    -0.391 OA
HETATM   19  C19 UNL     1     -13.357 203.035 116.439  1.00  0.00     0.169 C 
HETATM   20  C20 UNL     1     -12.699 202.851 115.096  1.00  0.00     0.049 C 
BRANCH  15  21
HETATM   21  C11 UNL     1     -13.383 203.954 112.912  1.00  0.00     0.006 C 
HETATM   22  C12 UNL     1     -13.157 202.607 112.276  1.00  0.00     0.006 C 
HETATM   23  C13 UNL     1     -14.309 201.685 112.226  1.00  0.00     0.000 C 
HETATM   24  C14 UNL     1     -15.647 202.294 111.981  1.00  0.00     0.000 C 
HETATM   25  C15 UNL     1     -15.850 203.377 113.003  1.00  0.00     0.000 C 
HETATM   26  C16 UNL     1     -14.783 204.429 112.865  1.00  0.00     0.006 C 
ENDBRANCH  15  21
ENDBRANCH   2  15
TORSDOF 6
ENDMDL
MODEL 4
REMARK VINA RESULT: -7.722525487      1.465      1.914
REMARK  6 active torsions:
REMARK  status: ('A' for Active; 'I' for Inactive)
REMARK    1  A    between atoms: C2_2  and  C3_3 
REMARK    2  A    between atoms: C3_3  and  C4_4 
REMARK    3  A    between atoms: N1_7  and  N2_8 
REMARK       I    between atoms: N2_8  and  C7_10 
REMARK    4  A    between atoms: C7_10  and  C8_12 
REMARK    5  A    between atoms: C9_13  and  C10_14 
REMARK    6  A    between atoms: C10_14  and  C11_15 
ROOT
HETATM    1  C8  UNL     1     -10.622 204.752 114.394  1.00  0.00    -0.004 C 
HETATM    2  C9  UNL     1     -11.728 204.269 114.464  1.00  0.00    -0.086 C 
ENDROOT
BRANCH   1   3
HETATM    3  C7  UNL     1      -9.300 205.303 114.294  1.00  0.00     0.310 C 
HETATM    4  N2  UNL     1      -8.204 204.602 113.763  1.00  0.00    -0.278 N 
ATOM      5  H2  UNL     1      -8.399 203.653 113.444  1.00  0.00     0.184 HD
HETATM    6  O1  UNL     1      -9.123 206.472 114.704  1.00  0.00    -0.257 OA
BRANCH   4   7
HETATM    7  N1  UNL     1      -6.924 205.016 113.617  1.00  0.00    -0.228 NA
HETATM    8  C6  UNL     1      -6.433 204.910 112.281  1.00  0.00     0.114 C 
HETATM    9  C5  UNL     1      -4.921 204.824 112.356  1.00  0.00     0.022 C 
HETATM   10  C4  UNL     1      -4.636 204.962 113.825  1.00  0.00     0.005 C 
HETATM   11  C21 UNL     1      -5.930 204.479 114.486  1.00  0.00     0.118 C 
BRANCH  10  12
HETATM   12  C3  UNL     1      -4.308 206.360 114.173  1.00  0.00     0.032 C 
BRANCH  12  13
HETATM   13  C2  UNL     1      -2.940 206.728 113.788  1.00  0.00    -0.036 C 
HETATM   14  C1  UNL     1      -2.413 207.931 113.861  1.00  0.00     0.007 C 
ENDBRANCH  12  13
ENDBRANCH  10  12
ENDBRANCH   4   7
ENDBRANCH   1   3
BRANCH   2  15
HETATM   15  C10 UNL     1     -13.091 203.654 114.530  1.00  0.00     0.031 C 
HETATM   16  C17 UNL     1     -13.983 204.703 113.859  1.00  0.00     0.049 C 
HETATM   17  C18 UNL     1     -14.064 205.811 114.900  1.00  0.00     0.169 C 
HETATM   18  O2  UNL     1     -14.913 205.392 115.888  1.00  0.00    -0.391 OA
HETATM   19  C19 UNL     1     -14.721 204.140 116.377  1.00  0.00     0.169 C 
HETATM   20  C20 UNL     1     -13.457 203.439 115.949  1.00  0.00     0.049 C 
BRANCH  15  21
HETATM   21  C11 UNL     1     -12.994 202.412 113.672  1.00  0.00     0.006 C 
HETATM   22  C12 UNL     1     -14.302 201.666 113.621  1.00  0.00     0.006 C 
HETATM   23  C13 UNL     1     -15.051 201.703 112.349  1.00  0.00     0.000 C 
HETATM   24  C14 UNL     1     -14.246 201.674 111.095  1.00  0.00     0.000 C 
HETATM   25  C15 UNL     1     -13.234 202.783 111.175  1.00  0.00     0.000 C 
HETATM   26  C16 UNL     1     -12.330 202.578 112.361  1.00  0.00     0.006 C 
ENDBRANCH  15  21
ENDBRANCH   2  15
TORSDOF 6
ENDMDL
MODEL 5
REMARK VINA RESULT: -7.587031394      1.688      2.390
REMARK  6 active torsions:
REMARK  status: ('A' for Active; 'I' for Inactive)
REMARK    1  A    between atoms: C2_2  and  C3_3 
REMARK    2  A    between atoms: C3_3  and  C4_4 
REMARK    3  A    between atoms: N1_7  and  N2_8 
REMARK       I    between atoms: N2_8  and  C7_10 
REMARK    4  A    between atoms: C7_10  and  C8_12 
REMARK    5  A    between atoms: C9_13  and  C10_14 
REMARK    6  A    between atoms: C10_14  and  C11_15 
ROOT
HETATM    1  C8  UNL     1     -10.922 204.500 114.219  1.00  0.00    -0.004 C 
HETATM    2  C9  UNL     1     -12.090 204.202 114.312  1.00  0.00    -0.086 C 
ENDROOT
BRANCH   1   3
HETATM    3  C7  UNL     1      -9.538 204.854 114.079  1.00  0.00     0.310 C 
HETATM    4  N2  UNL     1      -8.539 203.946 113.688  1.00  0.00    -0.278 N 
ATOM      5  H2  UNL     1      -8.856 202.994 113.504  1.00  0.00     0.184 HD
HETATM    6  O1  UNL     1      -9.211 206.038 114.320  1.00  0.00    -0.257 OA
BRANCH   4   7
HETATM    7  N1  UNL     1      -7.215 204.164 113.523  1.00  0.00    -0.228 NA
HETATM    8  C6  UNL     1      -6.584 204.767 114.653  1.00  0.00     0.114 C 
HETATM    9  C5  UNL     1      -5.337 205.473 114.158  1.00  0.00     0.022 C 
HETATM   10  C4  UNL     1      -5.309 205.145 112.691  1.00  0.00     0.005 C 
HETATM   11  C21 UNL     1      -6.778 204.866 112.361  1.00  0.00     0.118 C 
BRANCH  10  12
HETATM   12  C3  UNL     1      -4.436 203.984 112.423  1.00  0.00     0.032 C 
BRANCH  12  13
HETATM   13  C2  UNL     1      -3.643 204.150 111.199  1.00  0.00    -0.036 C 
HETATM   14  C1  UNL     1      -3.358 203.206 110.329  1.00  0.00     0.007 C 
ENDBRANCH  12  13
ENDBRANCH  10  12
ENDBRANCH   4   7
ENDBRANCH   1   3
BRANCH   2  15
HETATM   15  C10 UNL     1     -13.540 203.840 114.400  1.00  0.00     0.031 C 
HETATM   16  C17 UNL     1     -14.252 205.166 114.113  1.00  0.00     0.049 C 
HETATM   17  C18 UNL     1     -14.027 205.967 115.388  1.00  0.00     0.169 C 
HETATM   18  O2  UNL     1     -14.865 205.466 116.347  1.00  0.00    -0.391 OA
HETATM   19  C19 UNL     1     -14.891 204.116 116.497  1.00  0.00     0.169 C 
HETATM   20  C20 UNL     1     -13.832 203.337 115.762  1.00  0.00     0.049 C 
BRANCH  15  21
HETATM   21  C11 UNL     1     -13.762 202.863 113.267  1.00  0.00     0.006 C 
HETATM   22  C12 UNL     1     -15.165 202.947 112.724  1.00  0.00     0.006 C 
HETATM   23  C13 UNL     1     -15.334 203.544 111.385  1.00  0.00     0.000 C 
HETATM   24  C14 UNL     1     -14.274 203.250 110.380  1.00  0.00     0.000 C 
HETATM   25  C15 UNL     1     -12.951 203.623 110.988  1.00  0.00     0.000 C 
HETATM   26  C16 UNL     1     -12.705 202.815 112.233  1.00  0.00     0.006 C 
ENDBRANCH  15  21
ENDBRANCH   2  15
TORSDOF 6
ENDMDL
