MODEL 1
REMARK VINA RESULT: -9.322337106      0.000      0.000
REMARK  5 active torsions:
REMARK  status: ('A' for Active; 'I' for Inactive)
REMARK    1  A    between atoms: C2_2  and  O1_3 
REMARK    2  A    between atoms: O1_3  and  C3_4 
REMARK       I    between atoms: C3_4  and  N1_6 
REMARK    3  A    between atoms: N1_6  and  C4_8 
REMARK    4  A    between atoms: C4_8  and  C5_9 
REMARK       I    between atoms: N2_14  and  C10_15 
REMARK    5  A    between atoms: C10_15  and  C11_17 
ROOT
HETATM    1  C5  UNL     1     -10.823 204.103 116.014  1.00  0.00     0.105 C 
HETATM    2  C6  UNL     1     -11.058 203.625 117.449  1.00  0.00     0.027 C 
HETATM    3  C7  UNL     1     -10.927 202.133 117.556  1.00  0.00     0.004 C 
HETATM    4  C8  UNL     1     -11.657 201.404 116.457  1.00  0.00     0.020 C 
HETATM    5  C9  UNL     1     -11.224 201.938 115.075  1.00  0.00     0.126 C 
HETATM    6  N2  UNL     1     -11.602 203.335 115.079  1.00  0.00    -0.345 N 
HETATM    7  C10 UNL     1     -12.589 203.862 114.293  1.00  0.00     0.229 C 
HETATM    8  O3  UNL     1     -12.806 205.134 114.440  1.00  0.00    -0.272 OA
ENDROOT
BRANCH   1   9
HETATM    9  C4  UNL     1     -10.870 205.566 115.971  1.00  0.00     0.150 C 
BRANCH   9  10
HETATM   10  N1  UNL     1      -9.924 206.068 114.982  1.00  0.00    -0.335 N 
HETATM   11  C3  UNL     1      -8.521 206.004 115.123  1.00  0.00     0.360 C 
HETATM   12  O2  UNL     1      -7.963 205.497 116.117  1.00  0.00    -0.239 OA
ATOM     13  H1  UNL     1     -10.300 206.492 114.135  1.00  0.00     0.164 HD
BRANCH  11  14
HETATM   14  O1  UNL     1      -7.651 206.508 114.154  1.00  0.00    -0.304 OA
BRANCH  14  15
HETATM   15  C2  UNL     1      -7.884 206.310 112.770  1.00  0.00     0.176 C 
HETATM   16  C1  UNL     1      -7.517 204.943 112.306  1.00  0.00     0.034 C 
ENDBRANCH  14  15
ENDBRANCH  11  14
ENDBRANCH   9  10
ENDBRANCH   1   9
BRANCH   7  17
HETATM   17  C11 UNL     1     -13.485 203.270 113.281  1.00  0.00     0.042 C 
HETATM   18  C12 UNL     1     -14.068 201.953 113.576  1.00  0.00     0.024 C 
HETATM   19  C13 UNL     1     -14.955 201.546 112.390  1.00  0.00    -0.013 C 
HETATM   20  C14 UNL     1     -16.007 202.570 112.082  1.00  0.00     0.009 C 
HETATM   21  C18 UNL     1     -14.127 201.348 111.147  1.00  0.00     0.009 C 
HETATM   22  C15 UNL     1     -15.349 203.890 111.710  1.00  0.00    -0.013 C 
HETATM   23  C16 UNL     1     -14.412 203.733 110.556  1.00  0.00     0.009 C 
HETATM   24  C20 UNL     1     -14.535 204.293 112.928  1.00  0.00     0.024 C 
HETATM   25  C17 UNL     1     -13.416 202.649 110.851  1.00  0.00    -0.013 C 
HETATM   26  C19 UNL     1     -12.590 203.028 112.024  1.00  0.00     0.024 C 
ENDBRANCH   7  17
TORSDOF 5
ENDMDL
MODEL 2
REMARK VINA RESULT: -9.108107932      0.318      1.505
REMARK  5 active torsions:
REMARK  status: ('A' for Active; 'I' for Inactive)
REMARK    1  A    between atoms: C2_2  and  O1_3 
REMARK    2  A    between atoms: O1_3  and  C3_4 
REMARK       I    between atoms: C3_4  and  N1_6 
REMARK    3  A    between atoms: N1_6  and  C4_8 
REMARK    4  A    between atoms: C4_8  and  C5_9 
REMARK       I    between atoms: N2_14  and  C10_15 
REMARK    5  A    between atoms: C10_15  and  C11_17 
ROOT
HETATM    1  C5  UNL     1     -10.976 204.013 116.251  1.00  0.00     0.105 C 
HETATM    2  C6  UNL     1     -11.353 203.378 117.591  1.00  0.00     0.027 C 
HETATM    3  C7  UNL     1     -11.153 201.890 117.565  1.00  0.00     0.004 C 
HETATM    4  C8  UNL     1     -11.709 201.251 116.316  1.00  0.00     0.020 C 
HETATM    5  C9  UNL     1     -11.145 201.944 115.059  1.00  0.00     0.126 C 
HETATM    6  N2  UNL     1     -11.597 203.317 115.156  1.00  0.00    -0.345 N 
HETATM    7  C10 UNL     1     -12.511 203.882 114.310  1.00  0.00     0.229 C 
HETATM    8  O3  UNL     1     -12.813 205.121 114.556  1.00  0.00    -0.272 OA
ENDROOT
BRANCH   1   9
HETATM    9  C4  UNL     1     -11.097 205.470 116.349  1.00  0.00     0.150 C 
BRANCH   9  10
HETATM   10  N1  UNL     1     -10.187 206.111 115.409  1.00  0.00    -0.335 N 
HETATM   11  C3  UNL     1      -8.783 205.960 115.435  1.00  0.00     0.360 C 
HETATM   12  O2  UNL     1      -8.196 205.246 116.273  1.00  0.00    -0.239 OA
ATOM     13  H1  UNL     1     -10.589 206.707 114.686  1.00  0.00     0.164 HD
BRANCH  11  14
HETATM   14  O1  UNL     1      -7.948 206.603 114.520  1.00  0.00    -0.304 OA
BRANCH  14  15
HETATM   15  C2  UNL     1      -8.207 206.574 113.127  1.00  0.00     0.176 C 
HETATM   16  C1  UNL     1      -8.014 205.225 112.525  1.00  0.00     0.034 C 
ENDBRANCH  14  15
ENDBRANCH  11  14
ENDBRANCH   9  10
ENDBRANCH   1   9
BRANCH   7  17
HETATM   17  C11 UNL     1     -13.248 203.363 113.142  1.00  0.00     0.042 C 
HETATM   18  C12 UNL     1     -12.505 203.213 111.882  1.00  0.00     0.024 C 
HETATM   19  C13 UNL     1     -13.472 202.664 110.820  1.00  0.00    -0.013 C 
HETATM   20  C14 UNL     1     -14.124 201.382 111.246  1.00  0.00     0.009 C 
HETATM   21  C18 UNL     1     -14.563 203.661 110.526  1.00  0.00     0.009 C 
HETATM   22  C15 UNL     1     -14.938 201.612 112.509  1.00  0.00    -0.013 C 
HETATM   23  C16 UNL     1     -15.961 202.686 112.318  1.00  0.00     0.009 C 
HETATM   24  C20 UNL     1     -13.942 202.089 113.552  1.00  0.00     0.024 C 
HETATM   25  C17 UNL     1     -15.300 203.937 111.817  1.00  0.00    -0.013 C 
HETATM   26  C19 UNL     1     -14.336 204.439 112.827  1.00  0.00     0.024 C 
ENDBRANCH   7  17
TORSDOF 5
ENDMDL
MODEL 3
REMARK VINA RESULT: -9.035637470      1.305      2.186
REMARK  5 active torsions:
REMARK  status: ('A' for Active; 'I' for Inactive)
REMARK    1  A    between atoms: C2_2  and  O1_3 
REMARK    2  A    between atoms: O1_3  and  C3_4 
REMARK       I    between atoms: C3_4  and  N1_6 
REMARK    3  A    between atoms: N1_6  and  C4_8 
REMARK    4  A    between atoms: C4_8  and  C5_9 
REMARK       I    between atoms: N2_14  and  C10_15 
REMARK    5  A    between atoms: C10_15  and  C11_17 
ROOT
HETATM    1  C5  UNL     1     -11.572 203.724 116.587  1.00  0.00     0.105 C 
HETATM    2  C6  UNL     1     -11.745 205.016 117.388  1.00  0.00     0.027 C 
HETATM    3  C7  UNL     1     -13.122 205.114 117.977  1.00  0.00     0.004 C 
HETATM    4  C8  UNL     1     -14.205 204.765 116.986  1.00  0.00     0.020 C 
HETATM    5  C9  UNL     1     -13.930 203.386 116.350  1.00  0.00     0.126 C 
HETATM    6  N2  UNL     1     -12.662 203.536 115.667  1.00  0.00    -0.345 N 
HETATM    7  C10 UNL     1     -12.519 203.509 114.308  1.00  0.00     0.229 C 
HETATM    8  O3  UNL     1     -11.309 203.678 113.867  1.00  0.00    -0.272 OA
ENDROOT
BRANCH   1   9
HETATM    9  C4  UNL     1     -10.191 203.625 116.109  1.00  0.00     0.150 C 
BRANCH   9  10
HETATM   10  N1  UNL     1      -9.690 204.945 115.749  1.00  0.00    -0.335 N 
HETATM   11  C3  UNL     1      -8.321 205.270 115.634  1.00  0.00     0.360 C 
HETATM   12  O2  UNL     1      -7.411 204.438 115.825  1.00  0.00    -0.239 OA
ATOM     13  H1  UNL     1     -10.372 205.681 115.569  1.00  0.00     0.164 HD
BRANCH  11  14
HETATM   14  O1  UNL     1      -7.886 206.552 115.297  1.00  0.00    -0.304 OA
BRANCH  14  15
HETATM   15  C2  UNL     1      -7.257 206.823 114.055  1.00  0.00     0.176 C 
HETATM   16  C1  UNL     1      -8.160 206.619 112.887  1.00  0.00     0.034 C 
ENDBRANCH  14  15
ENDBRANCH  11  14
ENDBRANCH   9  10
ENDBRANCH   1   9
BRANCH   7  17
HETATM   17  C11 UNL     1     -13.480 203.324 113.203  1.00  0.00     0.042 C 
HETATM   18  C12 UNL     1     -14.613 204.257 113.125  1.00  0.00     0.024 C 
HETATM   19  C13 UNL     1     -15.468 203.870 111.908  1.00  0.00    -0.013 C 
HETATM   20  C14 UNL     1     -14.675 203.840 110.636  1.00  0.00     0.009 C 
HETATM   21  C18 UNL     1     -16.083 202.508 112.100  1.00  0.00     0.009 C 
HETATM   22  C15 UNL     1     -13.565 202.806 110.744  1.00  0.00    -0.013 C 
HETATM   23  C16 UNL     1     -14.104 201.448 111.061  1.00  0.00     0.009 C 
HETATM   24  C20 UNL     1     -12.704 203.257 111.912  1.00  0.00     0.024 C 
HETATM   25  C17 UNL     1     -14.960 201.514 112.293  1.00  0.00    -0.013 C 
HETATM   26  C19 UNL     1     -14.139 201.931 113.456  1.00  0.00     0.024 C 
ENDBRANCH   7  17
TORSDOF 5
ENDMDL
MODEL 4
REMARK VINA RESULT: -9.035399434      1.356      1.693
REMARK  5 active torsions:
REMARK  status: ('A' for Active; 'I' for Inactive)
REMARK    1  A    between atoms: C2_2  and  O1_3 
REMARK    2  A    between atoms: O1_3  and  C3_4 
REMARK       I    between atoms: C3_4  and  N1_6 
REMARK    3  A    between atoms: N1_6  and  C4_8 
REMARK    4  A    between atoms: C4_8  and  C5_9 
REMARK       I    between atoms: N2_14  and  C10_15 
REMARK    5  A    between atoms: C10_15  and  C11_17 
ROOT
HETATM    1  C5  UNL     1     -11.630 203.704 116.748  1.00  0.00     0.105 C 
HETATM    2  C6  UNL     1     -11.901 205.059 117.405  1.00  0.00     0.027 C 
HETATM    3  C7  UNL     1     -13.300 205.135 117.944  1.00  0.00     0.004 C 
HETATM    4  C8  UNL     1     -14.328 204.623 116.967  1.00  0.00     0.020 C 
HETATM    5  C9  UNL     1     -13.956 203.205 116.486  1.00  0.00     0.126 C 
HETATM    6  N2  UNL     1     -12.678 203.358 115.825  1.00  0.00    -0.345 N 
HETATM    7  C10 UNL     1     -12.489 203.200 114.480  1.00  0.00     0.229 C 
HETATM    8  O3  UNL     1     -11.277 203.394 114.055  1.00  0.00    -0.272 OA
ENDROOT
BRANCH   1   9
HETATM    9  C4  UNL     1     -10.231 203.638 116.320  1.00  0.00     0.150 C 
BRANCH   9  10
HETATM   10  N1  UNL     1      -9.790 204.945 115.850  1.00  0.00    -0.335 N 
HETATM   11  C3  UNL     1      -8.437 205.309 115.676  1.00  0.00     0.360 C 
HETATM   12  O2  UNL     1      -7.491 204.528 115.904  1.00  0.00    -0.239 OA
ATOM     13  H1  UNL     1     -10.503 205.640 115.633  1.00  0.00     0.164 HD
BRANCH  11  14
HETATM   14  O1  UNL     1      -8.059 206.578 115.233  1.00  0.00    -0.304 OA
BRANCH  14  15
HETATM   15  C2  UNL     1      -7.344 206.762 114.023  1.00  0.00     0.176 C 
HETATM   16  C1  UNL     1      -8.202 206.626 112.812  1.00  0.00     0.034 C 
ENDBRANCH  14  15
ENDBRANCH  11  14
ENDBRANCH   9  10
ENDBRANCH   1   9
BRANCH   7  17
HETATM   17  C11 UNL     1     -13.403 202.846 113.376  1.00  0.00     0.042 C 
HETATM   18  C12 UNL     1     -14.149 201.584 113.490  1.00  0.00     0.024 C 
HETATM   19  C13 UNL     1     -15.023 201.431 112.236  1.00  0.00    -0.013 C 
HETATM   20  C14 UNL     1     -15.932 202.605 112.023  1.00  0.00     0.009 C 
HETATM   21  C18 UNL     1     -14.168 201.280 111.005  1.00  0.00     0.009 C 
HETATM   22  C15 UNL     1     -15.107 203.869 111.835  1.00  0.00    -0.013 C 
HETATM   23  C16 UNL     1     -14.143 203.735 110.700  1.00  0.00     0.009 C 
HETATM   24  C20 UNL     1     -14.307 204.024 113.118  1.00  0.00     0.024 C 
HETATM   25  C17 UNL     1     -13.296 202.510 110.892  1.00  0.00    -0.013 C 
HETATM   26  C19 UNL     1     -12.486 202.644 112.127  1.00  0.00     0.024 C 
ENDBRANCH   7  17
TORSDOF 5
ENDMDL
MODEL 5
REMARK VINA RESULT: -8.922972075      1.082      1.311
REMARK  5 active torsions:
REMARK  status: ('A' for Active; 'I' for Inactive)
REMARK    1  A    between atoms: C2_2  and  O1_3 
REMARK    2  A    between atoms: O1_3  and  C3_4 
REMARK       I    between atoms: C3_4  and  N1_6 
REMARK    3  A    between atoms: N1_6  and  C4_8 
REMARK    4  A    between atoms: C4_8  and  C5_9 
REMARK       I    between atoms: N2_14  and  C10_15 
REMARK    5  A    between atoms: C10_15  and  C11_17 
ROOT
HETATM    1  C5  UNL     1     -11.467 204.613 116.346  1.00  0.00     0.105 C 
HETATM    2  C6  UNL     1     -12.202 205.186 117.559  1.00  0.00     0.027 C 
HETATM    3  C7  UNL     1     -12.960 204.117 118.293  1.00  0.00     0.004 C 
HETATM    4  C8  UNL     1     -13.746 203.222 117.368  1.00  0.00     0.020 C 
HETATM    5  C9  UNL     1     -12.831 202.648 116.267  1.00  0.00     0.126 C 
HETATM    6  N2  UNL     1     -12.345 203.804 115.543  1.00  0.00    -0.345 N 
HETATM    7  C10 UNL     1     -12.687 204.097 114.252  1.00  0.00     0.229 C 
HETATM    8  O3  UNL     1     -12.171 205.185 113.767  1.00  0.00    -0.272 OA
ENDROOT
BRANCH   1   9
HETATM    9  C4  UNL     1     -10.668 205.666 115.715  1.00  0.00     0.150 C 
BRANCH   9  10
HETATM   10  N1  UNL     1      -9.486 205.090 115.088  1.00  0.00    -0.335 N 
HETATM   11  C3  UNL     1      -8.521 205.838 114.377  1.00  0.00     0.360 C 
HETATM   12  O2  UNL     1      -8.597 207.074 114.232  1.00  0.00    -0.239 OA
ATOM     13  H1  UNL     1      -9.346 204.083 115.167  1.00  0.00     0.164 HD
BRANCH  11  14
HETATM   14  O1  UNL     1      -7.408 205.242 113.783  1.00  0.00    -0.304 OA
BRANCH  14  15
HETATM   15  C2  UNL     1      -7.312 205.078 112.378  1.00  0.00     0.176 C 
HETATM   16  C1  UNL     1      -6.031 204.447 111.950  1.00  0.00     0.034 C 
ENDBRANCH  14  15
ENDBRANCH  11  14
ENDBRANCH   9  10
ENDBRANCH   1   9
BRANCH   7  17
HETATM   17  C11 UNL     1     -13.545 203.414 113.265  1.00  0.00     0.042 C 
HETATM   18  C12 UNL     1     -13.986 202.047 113.578  1.00  0.00     0.024 C 
HETATM   19  C13 UNL     1     -14.858 201.548 112.415  1.00  0.00    -0.013 C 
HETATM   20  C14 UNL     1     -16.014 202.461 112.132  1.00  0.00     0.009 C 
HETATM   21  C18 UNL     1     -14.046 201.428 111.152  1.00  0.00     0.009 C 
HETATM   22  C15 UNL     1     -15.501 203.838 111.741  1.00  0.00    -0.013 C 
HETATM   23  C16 UNL     1     -14.582 203.770 110.564  1.00  0.00     0.009 C 
HETATM   24  C20 UNL     1     -14.700 204.326 112.937  1.00  0.00     0.024 C 
HETATM   25  C17 UNL     1     -13.476 202.792 110.835  1.00  0.00    -0.013 C 
HETATM   26  C19 UNL     1     -12.662 203.256 111.986  1.00  0.00     0.024 C 
ENDBRANCH   7  17
TORSDOF 5
ENDMDL
