MODEL 1
REMARK VINA RESULT: -9.406991984      0.000      0.000
REMARK  4 active torsions:
REMARK  status: ('A' for Active; 'I' for Inactive)
REMARK    1  A    between atoms: C4_4  and  C5_5 
REMARK    2  A    between atoms: C7_7  and  C8_8 
REMARK    3  A    between atoms: C13_13  and  C14_14 
REMARK    4  A    between atoms: C14_14  and  C15_16 
REMARK       I    between atoms: C15_16  and  N2_18 
ROOT
HETATM    1  C8  UNL     1     -13.541 202.918 111.614  1.00  0.00    -0.032 C 
HETATM    2  C9  UNL     1     -14.253 203.674 110.508  1.00  0.00     0.016 C 
HETATM    3  C10 UNL     1     -13.571 201.462 111.008  1.00  0.00     0.010 C 
HETATM    4  C11 UNL     1     -14.601 200.686 111.700  1.00  0.00     0.002 C 
HETATM    5  C12 UNL     1     -15.449 201.752 112.374  1.00  0.00     0.011 C 
HETATM    6  C13 UNL     1     -14.295 202.664 112.827  1.00  0.00     0.047 C 
ENDROOT
BRANCH   6   7
HETATM    7  C14 UNL     1     -14.780 203.592 113.811  1.00  0.00     0.096 C 
HETATM    8  N1  UNL     1     -16.070 204.205 113.622  1.00  0.00    -0.101 NA
BRANCH   7   9
HETATM    9  C15 UNL     1     -14.677 203.278 115.250  1.00  0.00     0.264 C 
HETATM   10  O1  UNL     1     -15.459 202.395 115.772  1.00  0.00    -0.267 OA
HETATM   11  N2  UNL     1     -13.790 203.840 116.182  1.00  0.00    -0.343 N 
HETATM   12  C16 UNL     1     -12.790 204.804 115.831  1.00  0.00     0.152 C 
HETATM   13  C19 UNL     1     -13.849 203.456 117.577  1.00  0.00     0.152 C 
HETATM   14  C17 UNL     1     -11.695 204.831 116.934  1.00  0.00     0.187 C 
HETATM   15  O2  UNL     1     -12.287 205.239 118.114  1.00  0.00    -0.388 OA
HETATM   16  C18 UNL     1     -13.398 204.544 118.498  1.00  0.00     0.187 C 
ENDBRANCH   7   9
ENDBRANCH   6   7
BRANCH   1  17
HETATM   17  C7  UNL     1     -12.086 203.214 111.647  1.00  0.00    -0.004 C 
HETATM   18  C6  UNL     1     -11.368 203.303 112.960  1.00  0.00     0.014 C 
HETATM   19  C5  UNL     1     -10.589 204.466 112.519  1.00  0.00     0.009 C 
HETATM   20  C20 UNL     1     -11.462 204.458 111.232  1.00  0.00     0.014 C 
BRANCH  19  21
HETATM   21  C4  UNL     1      -9.165 204.462 112.257  1.00  0.00    -0.020 C 
HETATM   22  C2  UNL     1      -8.181 205.259 112.432  1.00  0.00    -0.091 C 
HETATM   23  C1  UNL     1      -6.801 204.820 111.988  1.00  0.00     0.042 C 
HETATM   24  C3  UNL     1      -8.261 206.598 113.018  1.00  0.00     0.042 C 
ENDBRANCH  19  21
ENDBRANCH   1  17
TORSDOF 4
ENDMDL
MODEL 2
REMARK VINA RESULT: -9.121472048      1.286      1.519
REMARK  4 active torsions:
REMARK  status: ('A' for Active; 'I' for Inactive)
REMARK    1  A    between atoms: C4_4  and  C5_5 
REMARK    2  A    between atoms: C7_7  and  C8_8 
REMARK    3  A    between atoms: C13_13  and  C14_14 
REMARK    4  A    between atoms: C14_14  and  C15_16 
REMARK       I    between atoms: C15_16  and  N2_18 
ROOT
HETATM    1  C8  UNL     1     -13.532 203.099 111.515  1.00  0.00    -0.032 C 
HETATM    2  C9  UNL     1     -14.186 203.652 110.263  1.00  0.00     0.016 C 
HETATM    3  C10 UNL     1     -13.573 201.557 111.183  1.00  0.00     0.010 C 
HETATM    4  C11 UNL     1     -14.645 200.937 111.963  1.00  0.00     0.002 C 
HETATM    5  C12 UNL     1     -15.492 202.121 112.398  1.00  0.00     0.011 C 
HETATM    6  C13 UNL     1     -14.334 203.081 112.723  1.00  0.00     0.047 C 
ENDROOT
BRANCH   6   7
HETATM    7  C14 UNL     1     -14.833 204.181 113.502  1.00  0.00     0.096 C 
HETATM    8  N1  UNL     1     -16.132 204.074 114.117  1.00  0.00    -0.101 NA
BRANCH   7   9
HETATM    9  C15 UNL     1     -13.963 204.855 114.488  1.00  0.00     0.264 C 
HETATM   10  O1  UNL     1     -13.867 206.141 114.486  1.00  0.00    -0.267 OA
HETATM   11  N2  UNL     1     -13.185 204.251 115.488  1.00  0.00    -0.343 N 
HETATM   12  C16 UNL     1     -13.167 202.837 115.722  1.00  0.00     0.152 C 
HETATM   13  C19 UNL     1     -12.343 205.053 116.350  1.00  0.00     0.152 C 
HETATM   14  C17 UNL     1     -12.636 202.562 117.157  1.00  0.00     0.187 C 
HETATM   15  O2  UNL     1     -11.335 203.023 117.227  1.00  0.00    -0.388 OA
HETATM   16  C18 UNL     1     -11.137 204.316 116.835  1.00  0.00     0.187 C 
ENDBRANCH   7   9
ENDBRANCH   6   7
BRANCH   1  17
HETATM   17  C7  UNL     1     -12.073 203.373 111.551  1.00  0.00    -0.004 C 
HETATM   18  C6  UNL     1     -11.288 203.096 112.798  1.00  0.00     0.014 C 
HETATM   19  C5  UNL     1     -10.514 204.334 112.654  1.00  0.00     0.009 C 
HETATM   20  C20 UNL     1     -11.451 204.682 111.464  1.00  0.00     0.014 C 
BRANCH  19  21
HETATM   21  C4  UNL     1      -9.106 204.401 112.327  1.00  0.00    -0.020 C 
HETATM   22  C2  UNL     1      -8.155 205.246 112.459  1.00  0.00    -0.091 C 
HETATM   23  C1  UNL     1      -6.778 204.877 111.950  1.00  0.00     0.042 C 
HETATM   24  C3  UNL     1      -8.274 206.579 113.052  1.00  0.00     0.042 C 
ENDBRANCH  19  21
ENDBRANCH   1  17
TORSDOF 4
ENDMDL
MODEL 3
REMARK VINA RESULT: -9.060556519      1.374      1.462
REMARK  4 active torsions:
REMARK  status: ('A' for Active; 'I' for Inactive)
REMARK    1  A    between atoms: C4_4  and  C5_5 
REMARK    2  A    between atoms: C7_7  and  C8_8 
REMARK    3  A    between atoms: C13_13  and  C14_14 
REMARK    4  A    between atoms: C14_14  and  C15_16 
REMARK       I    between atoms: C15_16  and  N2_18 
ROOT
HETATM    1  C8  UNL     1     -13.197 202.963 112.399  1.00  0.00    -0.032 C 
HETATM    2  C9  UNL     1     -14.034 204.112 111.869  1.00  0.00     0.016 C 
HETATM    3  C10 UNL     1     -13.436 201.904 111.255  1.00  0.00     0.010 C 
HETATM    4  C11 UNL     1     -14.383 200.898 111.736  1.00  0.00     0.002 C 
HETATM    5  C12 UNL     1     -15.023 201.567 112.941  1.00  0.00     0.011 C 
HETATM    6  C13 UNL     1     -13.745 202.209 113.510  1.00  0.00     0.047 C 
ENDROOT
BRANCH   6   7
HETATM    7  C14 UNL     1     -13.984 202.625 114.865  1.00  0.00     0.096 C 
HETATM    8  N1  UNL     1     -15.218 202.250 115.507  1.00  0.00    -0.101 NA
BRANCH   7   9
HETATM    9  C15 UNL     1     -12.927 202.486 115.887  1.00  0.00     0.264 C 
HETATM   10  O1  UNL     1     -12.574 201.313 116.291  1.00  0.00    -0.267 OA
HETATM   11  N2  UNL     1     -12.210 203.517 116.513  1.00  0.00    -0.343 N 
HETATM   12  C16 UNL     1     -12.386 204.903 116.193  1.00  0.00     0.152 C 
HETATM   13  C19 UNL     1     -11.231 203.216 117.537  1.00  0.00     0.152 C 
HETATM   14  C17 UNL     1     -11.138 205.701 116.665  1.00  0.00     0.187 C 
HETATM   15  O2  UNL     1     -11.053 205.587 118.040  1.00  0.00    -0.388 OA
HETATM   16  C18 UNL     1     -11.080 204.316 118.538  1.00  0.00     0.187 C 
ENDBRANCH   7   9
ENDBRANCH   6   7
BRANCH   1  17
HETATM   17  C7  UNL     1     -11.741 203.230 112.280  1.00  0.00    -0.004 C 
HETATM   18  C6  UNL     1     -11.117 204.349 113.059  1.00  0.00     0.014 C 
HETATM   19  C5  UNL     1     -10.278 204.747 111.922  1.00  0.00     0.009 C 
HETATM   20  C20 UNL     1     -11.056 203.693 111.086  1.00  0.00     0.014 C 
BRANCH  19  21
HETATM   21  C4  UNL     1      -8.840 204.596 111.858  1.00  0.00    -0.020 C 
HETATM   22  C2  UNL     1      -7.815 205.214 112.307  1.00  0.00    -0.091 C 
HETATM   23  C1  UNL     1      -6.438 204.675 111.979  1.00  0.00     0.042 C 
HETATM   24  C3  UNL     1      -7.840 206.435 113.114  1.00  0.00     0.042 C 
ENDBRANCH  19  21
ENDBRANCH   1  17
TORSDOF 4
ENDMDL
MODEL 4
REMARK VINA RESULT: -8.725370258      1.250      1.608
REMARK  4 active torsions:
REMARK  status: ('A' for Active; 'I' for Inactive)
REMARK    1  A    between atoms: C4_4  and  C5_5 
REMARK    2  A    between atoms: C7_7  and  C8_8 
REMARK    3  A    between atoms: C13_13  and  C14_14 
REMARK    4  A    between atoms: C14_14  and  C15_16 
REMARK       I    between atoms: C15_16  and  N2_18 
ROOT
HETATM    1  C8  UNL     1     -13.941 203.478 111.715  1.00  0.00    -0.032 C 
HETATM    2  C9  UNL     1     -14.685 203.933 110.474  1.00  0.00     0.016 C 
HETATM    3  C10 UNL     1     -13.477 202.046 111.244  1.00  0.00     0.010 C 
HETATM    4  C11 UNL     1     -14.328 201.042 111.884  1.00  0.00     0.002 C 
HETATM    5  C12 UNL     1     -15.524 201.848 112.360  1.00  0.00     0.011 C 
HETATM    6  C13 UNL     1     -14.746 203.081 112.855  1.00  0.00     0.047 C 
ENDROOT
BRANCH   6   7
HETATM    7  C14 UNL     1     -15.599 203.879 113.691  1.00  0.00     0.096 C 
HETATM    8  N1  UNL     1     -16.848 203.327 114.150  1.00  0.00    -0.101 NA
BRANCH   7   9
HETATM    9  C15 UNL     1     -15.037 204.634 114.829  1.00  0.00     0.264 C 
HETATM   10  O1  UNL     1     -15.466 205.823 115.086  1.00  0.00    -0.267 OA
HETATM   11  N2  UNL     1     -14.045 204.207 115.725  1.00  0.00    -0.343 N 
HETATM   12  C16 UNL     1     -13.452 202.903 115.678  1.00  0.00     0.152 C 
HETATM   13  C19 UNL     1     -13.565 205.090 116.767  1.00  0.00     0.152 C 
HETATM   14  C17 UNL     1     -12.802 202.585 117.053  1.00  0.00     0.187 C 
HETATM   15  O2  UNL     1     -11.794 203.504 117.273  1.00  0.00    -0.388 OA
HETATM   16  C18 UNL     1     -12.147 204.818 117.153  1.00  0.00     0.187 C 
ENDBRANCH   7   9
ENDBRANCH   6   7
BRANCH   1  17
HETATM   17  C7  UNL     1     -12.647 204.187 111.883  1.00  0.00    -0.004 C 
HETATM   18  C6  UNL     1     -11.584 204.068 110.833  1.00  0.00     0.014 C 
HETATM   19  C5  UNL     1     -10.522 203.955 111.839  1.00  0.00     0.009 C 
HETATM   20  C20 UNL     1     -11.652 203.911 112.905  1.00  0.00     0.014 C 
BRANCH  19  21
HETATM   21  C4  UNL     1      -9.513 204.960 112.100  1.00  0.00    -0.020 C 
HETATM   22  C2  UNL     1      -8.488 205.080 112.853  1.00  0.00    -0.091 C 
HETATM   23  C1  UNL     1      -7.687 206.364 112.793  1.00  0.00     0.042 C 
HETATM   24  C3  UNL     1      -8.007 204.079 113.807  1.00  0.00     0.042 C 
ENDBRANCH  19  21
ENDBRANCH   1  17
TORSDOF 4
ENDMDL
MODEL 5
REMARK VINA RESULT: -8.443593194      1.571      1.817
REMARK  4 active torsions:
REMARK  status: ('A' for Active; 'I' for Inactive)
REMARK    1  A    between atoms: C4_4  and  C5_5 
REMARK    2  A    between atoms: C7_7  and  C8_8 
REMARK    3  A    between atoms: C13_13  and  C14_14 
REMARK    4  A    between atoms: C14_14  and  C15_16 
REMARK       I    between atoms: C15_16  and  N2_18 
ROOT
HETATM    1  C8  UNL     1     -13.372 202.878 112.015  1.00  0.00    -0.032 C 
HETATM    2  C9  UNL     1     -14.154 203.936 111.260  1.00  0.00     0.016 C 
HETATM    3  C10 UNL     1     -13.405 201.710 110.956  1.00  0.00     0.010 C 
HETATM    4  C11 UNL     1     -14.383 200.710 111.388  1.00  0.00     0.002 C 
HETATM    5  C12 UNL     1     -15.215 201.457 112.417  1.00  0.00     0.011 C 
HETATM    6  C13 UNL     1     -14.057 202.204 113.102  1.00  0.00     0.047 C 
ENDROOT
BRANCH   6   7
HETATM    7  C14 UNL     1     -14.508 202.731 114.361  1.00  0.00     0.096 C 
HETATM    8  N1  UNL     1     -15.160 201.851 115.297  1.00  0.00    -0.101 NA
BRANCH   7   9
HETATM    9  C15 UNL     1     -13.631 203.610 115.161  1.00  0.00     0.264 C 
HETATM   10  O1  UNL     1     -13.861 204.878 115.205  1.00  0.00    -0.267 OA
HETATM   11  N2  UNL     1     -12.519 203.230 115.928  1.00  0.00    -0.343 N 
HETATM   12  C16 UNL     1     -12.096 201.869 116.079  1.00  0.00     0.152 C 
HETATM   13  C19 UNL     1     -11.729 204.226 116.621  1.00  0.00     0.152 C 
HETATM   14  C17 UNL     1     -11.199 201.748 117.342  1.00  0.00     0.187 C 
HETATM   15  O2  UNL     1     -10.074 202.525 117.143  1.00  0.00    -0.388 OA
HETATM   16  C18 UNL     1     -10.299 203.823 116.785  1.00  0.00     0.187 C 
ENDBRANCH   7   9
ENDBRANCH   6   7
BRANCH   1  17
HETATM   17  C7  UNL     1     -11.923 203.196 112.084  1.00  0.00    -0.004 C 
HETATM   18  C6  UNL     1     -11.462 204.448 112.769  1.00  0.00     0.014 C 
HETATM   19  C5  UNL     1     -10.460 204.715 111.730  1.00  0.00     0.009 C 
HETATM   20  C20 UNL     1     -11.066 203.511 110.955  1.00  0.00     0.014 C 
BRANCH  19  21
HETATM   21  C4  UNL     1      -9.027 204.628 111.914  1.00  0.00    -0.020 C 
HETATM   22  C2  UNL     1      -8.107 205.350 112.429  1.00  0.00    -0.091 C 
HETATM   23  C1  UNL     1      -6.681 204.841 112.400  1.00  0.00     0.042 C 
HETATM   24  C3  UNL     1      -8.296 206.664 113.046  1.00  0.00     0.042 C 
ENDBRANCH  19  21
ENDBRANCH   1  17
TORSDOF 4
ENDMDL
