MODEL 1
REMARK VINA RESULT: -8.420536753      0.000      0.000
REMARK  4 active torsions:
REMARK  status: ('A' for Active; 'I' for Inactive)
REMARK    1  A    between atoms: C2_2  and  N1_3 
REMARK       I    between atoms: N1_3  and  C4_5 
REMARK    2  A    between atoms: C4_5  and  C5_7 
REMARK    3  A    between atoms: C7_9  and  C8_10 
REMARK       I    between atoms: C8_10  and  N2_12 
REMARK    4  A    between atoms: N2_12  and  C9_14 
ROOT
HETATM    1  C8  UNL     1     -10.680 203.979 113.125  1.00  0.00     0.223 C 
HETATM    2  O2  UNL     1     -10.900 203.928 111.910  1.00  0.00    -0.273 OA
HETATM    3  N2  UNL     1     -11.777 203.777 113.996  1.00  0.00    -0.353 N 
ATOM      4  H2  UNL     1     -11.610 203.816 115.002  1.00  0.00     0.163 HD
ENDROOT
BRANCH   3   5
HETATM    5  C9  UNL     1     -13.124 203.519 113.531  1.00  0.00     0.119 C 
HETATM    6  C10 UNL     1     -13.477 202.059 113.593  1.00  0.00     0.028 C 
HETATM    7  C11 UNL     1     -13.891 201.638 112.195  1.00  0.00     0.002 C 
HETATM    8  C12 UNL     1     -15.393 201.879 111.987  1.00  0.00     0.000 C 
HETATM    9  C13 UNL     1     -15.683 203.225 111.427  1.00  0.00     0.000 C 
HETATM   10  C14 UNL     1     -15.631 204.374 112.337  1.00  0.00     0.003 C 
HETATM   11  C15 UNL     1     -15.523 204.126 113.782  1.00  0.00     0.040 C 
HETATM   12  C16 UNL     1     -14.133 204.272 114.353  1.00  0.00     0.081 C 
HETATM   13  C17 UNL     1     -14.175 203.821 115.783  1.00  0.00     0.042 C 
HETATM   14  O3  UNL     1     -13.820 205.625 114.419  1.00  0.00    -0.378 OA
HETATM   15  C18 UNL     1     -14.664 205.050 116.507  1.00  0.00     0.029 C 
HETATM   16  C19 UNL     1     -14.429 206.153 115.529  1.00  0.00     0.169 C 
ENDBRANCH   3   5
BRANCH   1  17
HETATM   17  C7  UNL     1      -9.338 204.237 113.648  1.00  0.00     0.091 A 
HETATM   18  C5  UNL     1      -8.972 204.650 114.994  1.00  0.00     0.092 A 
HETATM   19  C6  UNL     1      -8.784 205.611 113.829  1.00  0.00     0.030 A 
BRANCH  18  20
HETATM   20  C4  UNL     1      -9.801 205.173 116.055  1.00  0.00     0.224 C 
HETATM   21  N1  UNL     1      -9.689 204.708 117.408  1.00  0.00    -0.356 N 
HETATM   22  C3  UNL     1      -8.713 203.669 117.751  1.00  0.00     0.152 C 
HETATM   23  O1  UNL     1     -10.658 206.054 115.865  1.00  0.00    -0.273 OA
BRANCH  21  24
HETATM   24  C2  UNL     1     -10.499 205.211 118.491  1.00  0.00     0.120 C 
HETATM   25  C1  UNL     1     -11.691 204.331 118.775  1.00  0.00     0.026 C 
ENDBRANCH  21  24
ENDBRANCH  18  20
ENDBRANCH   1  17
TORSDOF 4
ENDMDL
MODEL 2
REMARK VINA RESULT: -8.298872569      1.897      4.171
REMARK  4 active torsions:
REMARK  status: ('A' for Active; 'I' for Inactive)
REMARK    1  A    between atoms: C2_2  and  N1_3 
REMARK       I    between atoms: N1_3  and  C4_5 
REMARK    2  A    between atoms: C4_5  and  C5_7 
REMARK    3  A    between atoms: C7_9  and  C8_10 
REMARK       I    between atoms: C8_10  and  N2_12 
REMARK    4  A    between atoms: N2_12  and  C9_14 
ROOT
HETATM    1  C8  UNL     1     -14.525 203.697 116.785  1.00  0.00     0.223 C 
HETATM    2  O2  UNL     1     -15.383 202.820 116.627  1.00  0.00    -0.273 OA
HETATM    3  N2  UNL     1     -13.815 204.127 115.639  1.00  0.00    -0.353 N 
ATOM      4  H2  UNL     1     -13.104 204.850 115.753  1.00  0.00     0.163 HD
ENDROOT
BRANCH   3   5
HETATM    5  C9  UNL     1     -14.046 203.592 114.312  1.00  0.00     0.119 C 
HETATM    6  C10 UNL     1     -14.655 204.608 113.387  1.00  0.00     0.028 C 
HETATM    7  C11 UNL     1     -15.948 204.016 112.858  1.00  0.00     0.002 C 
HETATM    8  C12 UNL     1     -15.678 203.188 111.593  1.00  0.00     0.000 C 
HETATM    9  C13 UNL     1     -15.406 201.758 111.894  1.00  0.00     0.000 C 
HETATM   10  C14 UNL     1     -14.077 201.403 112.402  1.00  0.00     0.003 C 
HETATM   11  C15 UNL     1     -13.016 202.421 112.375  1.00  0.00     0.040 C 
HETATM   12  C16 UNL     1     -12.762 203.114 113.693  1.00  0.00     0.081 C 
HETATM   13  C17 UNL     1     -11.784 204.224 113.445  1.00  0.00     0.042 C 
HETATM   14  O3  UNL     1     -12.092 202.236 114.535  1.00  0.00    -0.378 OA
HETATM   15  C18 UNL     1     -10.454 203.516 113.496  1.00  0.00     0.029 C 
HETATM   16  C19 UNL     1     -10.767 202.228 114.181  1.00  0.00     0.169 C 
ENDBRANCH   3   5
BRANCH   1  17
HETATM   17  C7  UNL     1     -14.253 204.271 118.102  1.00  0.00     0.091 A 
HETATM   18  C5  UNL     1     -12.975 204.343 118.793  1.00  0.00     0.092 A 
HETATM   19  C6  UNL     1     -14.078 203.442 119.331  1.00  0.00     0.030 A 
BRANCH  18  20
HETATM   20  C4  UNL     1     -11.738 203.650 118.518  1.00  0.00     0.224 C 
HETATM   21  N1  UNL     1     -10.742 204.192 117.639  1.00  0.00    -0.356 N 
HETATM   22  C3  UNL     1     -10.962 205.485 116.984  1.00  0.00     0.152 C 
HETATM   23  O1  UNL     1     -11.459 202.548 119.023  1.00  0.00    -0.273 OA
BRANCH  21  24
HETATM   24  C2  UNL     1      -9.495 203.527 117.344  1.00  0.00     0.120 C 
HETATM   25  C1  UNL     1      -8.587 204.364 116.478  1.00  0.00     0.026 C 
ENDBRANCH  21  24
ENDBRANCH  18  20
ENDBRANCH   1  17
TORSDOF 4
ENDMDL
MODEL 3
REMARK VINA RESULT: -7.693540917      2.606      5.795
REMARK  4 active torsions:
REMARK  status: ('A' for Active; 'I' for Inactive)
REMARK    1  A    between atoms: C2_2  and  N1_3 
REMARK       I    between atoms: N1_3  and  C4_5 
REMARK    2  A    between atoms: C4_5  and  C5_7 
REMARK    3  A    between atoms: C7_9  and  C8_10 
REMARK       I    between atoms: C8_10  and  N2_12 
REMARK    4  A    between atoms: N2_12  and  C9_14 
ROOT
HETATM    1  C8  UNL     1     -14.332 201.724 114.370  1.00  0.00     0.223 C 
HETATM    2  O2  UNL     1     -15.092 201.293 115.246  1.00  0.00    -0.273 OA
HETATM    3  N2  UNL     1     -13.278 202.573 114.783  1.00  0.00    -0.353 N 
ATOM      4  H2  UNL     1     -12.643 202.937 114.072  1.00  0.00     0.163 HD
ENDROOT
BRANCH   3   5
HETATM    5  C9  UNL     1     -13.057 202.954 116.163  1.00  0.00     0.119 C 
HETATM    6  C10 UNL     1     -11.607 202.859 116.554  1.00  0.00     0.028 C 
HETATM    7  C11 UNL     1     -11.525 201.930 117.750  1.00  0.00     0.002 C 
HETATM    8  C12 UNL     1     -11.712 202.720 119.054  1.00  0.00     0.000 C 
HETATM    9  C13 UNL     1     -13.133 202.786 119.484  1.00  0.00     0.000 C 
HETATM   10  C14 UNL     1     -14.017 203.730 118.792  1.00  0.00     0.003 C 
HETATM   11  C15 UNL     1     -13.421 204.716 117.879  1.00  0.00     0.040 C 
HETATM   12  C16 UNL     1     -13.511 204.365 116.413  1.00  0.00     0.081 C 
HETATM   13  C17 UNL     1     -12.713 205.380 115.650  1.00  0.00     0.042 C 
HETATM   14  O3  UNL     1     -14.820 204.555 115.990  1.00  0.00    -0.378 OA
HETATM   15  C18 UNL     1     -13.685 206.522 115.494  1.00  0.00     0.029 C 
HETATM   16  C19 UNL     1     -15.011 205.896 115.773  1.00  0.00     0.169 C 
ENDBRANCH   3   5
BRANCH   1  17
HETATM   17  C7  UNL     1     -14.511 201.371 112.962  1.00  0.00     0.091 A 
HETATM   18  C5  UNL     1     -13.633 201.690 111.847  1.00  0.00     0.092 A 
HETATM   19  C6  UNL     1     -15.009 202.336 111.938  1.00  0.00     0.030 A 
BRANCH  18  20
HETATM   20  C4  UNL     1     -12.547 202.638 111.772  1.00  0.00     0.224 C 
HETATM   21  N1  UNL     1     -12.516 203.683 110.788  1.00  0.00    -0.356 N 
HETATM   22  C3  UNL     1     -13.607 203.811 109.816  1.00  0.00     0.152 C 
HETATM   23  O1  UNL     1     -11.576 202.612 112.549  1.00  0.00    -0.273 OA
BRANCH  21  24
HETATM   24  C2  UNL     1     -11.448 204.648 110.686  1.00  0.00     0.120 C 
HETATM   25  C1  UNL     1     -10.305 204.153 109.834  1.00  0.00     0.026 C 
ENDBRANCH  21  24
ENDBRANCH  18  20
ENDBRANCH   1  17
TORSDOF 4
ENDMDL
MODEL 4
REMARK VINA RESULT: -7.659039226      1.916      4.168
REMARK  4 active torsions:
REMARK  status: ('A' for Active; 'I' for Inactive)
REMARK    1  A    between atoms: C2_2  and  N1_3 
REMARK       I    between atoms: N1_3  and  C4_5 
REMARK    2  A    between atoms: C4_5  and  C5_7 
REMARK    3  A    between atoms: C7_9  and  C8_10 
REMARK       I    between atoms: C8_10  and  N2_12 
REMARK    4  A    between atoms: N2_12  and  C9_14 
ROOT
HETATM    1  C8  UNL     1     -13.867 205.027 115.075  1.00  0.00     0.223 C 
HETATM    2  O2  UNL     1     -13.942 206.026 114.350  1.00  0.00    -0.273 OA
HETATM    3  N2  UNL     1     -13.210 203.888 114.551  1.00  0.00    -0.353 N 
ATOM      4  H2  UNL     1     -13.141 203.056 115.137  1.00  0.00     0.163 HD
ENDROOT
BRANCH   3   5
HETATM    5  C9  UNL     1     -12.633 203.845 113.222  1.00  0.00     0.119 C 
HETATM    6  C10 UNL     1     -11.246 203.263 113.224  1.00  0.00     0.028 C 
HETATM    7  C11 UNL     1     -10.326 204.295 112.600  1.00  0.00     0.002 C 
HETATM    8  C12 UNL     1     -10.280 204.117 111.075  1.00  0.00     0.000 C 
HETATM    9  C13 UNL     1     -11.305 204.933 110.374  1.00  0.00     0.000 C 
HETATM   10  C14 UNL     1     -12.691 204.451 110.382  1.00  0.00     0.003 C 
HETATM   11  C15 UNL     1     -12.963 203.093 110.876  1.00  0.00     0.040 C 
HETATM   12  C16 UNL     1     -13.478 203.020 112.293  1.00  0.00     0.081 C 
HETATM   13  C17 UNL     1     -13.536 201.574 112.685  1.00  0.00     0.042 C 
HETATM   14  O3  UNL     1     -14.802 203.443 112.307  1.00  0.00    -0.378 OA
HETATM   15  C18 UNL     1     -14.861 201.126 112.120  1.00  0.00     0.029 C 
HETATM   16  C19 UNL     1     -15.588 202.406 111.872  1.00  0.00     0.169 C 
ENDBRANCH   3   5
BRANCH   1  17
HETATM   17  C7  UNL     1     -14.434 205.017 116.423  1.00  0.00     0.091 A 
HETATM   18  C5  UNL     1     -13.725 204.870 117.685  1.00  0.00     0.092 A 
HETATM   19  C6  UNL     1     -14.656 203.765 117.205  1.00  0.00     0.030 A 
BRANCH  18  20
HETATM   20  C4  UNL     1     -12.374 204.426 117.936  1.00  0.00     0.224 C 
HETATM   21  N1  UNL     1     -11.985 203.845 119.190  1.00  0.00    -0.356 N 
HETATM   22  C3  UNL     1     -12.968 203.688 120.266  1.00  0.00     0.152 C 
HETATM   23  O1  UNL     1     -11.468 204.517 117.089  1.00  0.00    -0.273 OA
BRANCH  21  24
HETATM   24  C2  UNL     1     -10.645 203.389 119.472  1.00  0.00     0.120 C 
HETATM   25  C1  UNL     1     -10.503 201.894 119.331  1.00  0.00     0.026 C 
ENDBRANCH  21  24
ENDBRANCH  18  20
ENDBRANCH   1  17
TORSDOF 4
ENDMDL
MODEL 5
REMARK VINA RESULT: -7.653746603      2.267      4.054
REMARK  4 active torsions:
REMARK  status: ('A' for Active; 'I' for Inactive)
REMARK    1  A    between atoms: C2_2  and  N1_3 
REMARK       I    between atoms: N1_3  and  C4_5 
REMARK    2  A    between atoms: C4_5  and  C5_7 
REMARK    3  A    between atoms: C7_9  and  C8_10 
REMARK       I    between atoms: C8_10  and  N2_12 
REMARK    4  A    between atoms: N2_12  and  C9_14 
ROOT
HETATM    1  C8  UNL     1     -11.185 203.944 112.935  1.00  0.00     0.223 C 
HETATM    2  O2  UNL     1     -10.824 203.467 114.017  1.00  0.00    -0.273 OA
HETATM    3  N2  UNL     1     -12.521 204.398 112.836  1.00  0.00    -0.353 N 
ATOM      4  H2  UNL     1     -12.834 204.794 111.949  1.00  0.00     0.163 HD
ENDROOT
BRANCH   3   5
HETATM    5  C9  UNL     1     -13.469 204.327 113.930  1.00  0.00     0.119 C 
HETATM    6  C10 UNL     1     -13.795 205.684 114.489  1.00  0.00     0.028 C 
HETATM    7  C11 UNL     1     -13.471 205.648 115.970  1.00  0.00     0.002 C 
HETATM    8  C12 UNL     1     -14.683 205.149 116.770  1.00  0.00     0.000 C 
HETATM    9  C13 UNL     1     -14.674 203.675 116.960  1.00  0.00     0.000 C 
HETATM   10  C14 UNL     1     -15.081 202.834 115.829  1.00  0.00     0.003 C 
HETATM   11  C15 UNL     1     -15.690 203.477 114.656  1.00  0.00     0.040 C 
HETATM   12  C16 UNL     1     -14.756 203.689 113.488  1.00  0.00     0.081 C 
HETATM   13  C17 UNL     1     -15.487 204.499 112.459  1.00  0.00     0.042 C 
HETATM   14  O3  UNL     1     -14.526 202.463 112.874  1.00  0.00    -0.378 OA
HETATM   15  C18 UNL     1     -16.277 203.455 111.710  1.00  0.00     0.029 C 
HETATM   16  C19 UNL     1     -15.604 202.174 112.076  1.00  0.00     0.169 C 
ENDBRANCH   3   5
BRANCH   1  17
HETATM   17  C7  UNL     1     -10.269 204.039 111.799  1.00  0.00     0.091 A 
HETATM   18  C5  UNL     1      -9.024 204.787 111.720  1.00  0.00     0.092 A 
HETATM   19  C6  UNL     1     -10.222 205.219 110.885  1.00  0.00     0.030 A 
BRANCH  18  20
HETATM   20  C4  UNL     1      -8.515 205.823 112.588  1.00  0.00     0.224 C 
HETATM   21  N1  UNL     1      -7.756 205.520 113.769  1.00  0.00    -0.356 N 
HETATM   22  C3  UNL     1      -7.477 204.126 114.128  1.00  0.00     0.152 C 
HETATM   23  O1  UNL     1      -8.699 207.033 112.371  1.00  0.00    -0.273 OA
BRANCH  21  24
HETATM   24  C2  UNL     1      -7.231 206.530 114.656  1.00  0.00     0.120 C 
HETATM   25  C1  UNL     1      -5.726 206.613 114.608  1.00  0.00     0.026 C 
ENDBRANCH  21  24
ENDBRANCH  18  20
ENDBRANCH   1  17
TORSDOF 4
ENDMDL
