MODEL 1
REMARK VINA RESULT: -7.420019788      0.000      0.000
REMARK  14 active torsions:
REMARK  status: ('A' for Active; 'I' for Inactive)
REMARK    1  A    between atoms: C2_2  and  C3_3 
REMARK    2  A    between atoms: C3_3  and  C5_5 
REMARK    3  A    between atoms: C6_8  and  O1_9 
REMARK    4  A    between atoms: C7_11  and  C8_12 
REMARK    5  A    between atoms: C8_12  and  C9_13 
REMARK    6  A    between atoms: C12_18  and  O2_19 
REMARK    7  A    between atoms: C13_21  and  C14_22 
REMARK    8  A    between atoms: C14_22  and  C15_23 
REMARK    9  A    between atoms: C19_30  and  C20_31 
REMARK   10  A    between atoms: C20_31  and  C21_32 
REMARK   11  A    between atoms: C21_32  and  C22_33 
REMARK   12  A    between atoms: C22_33  and  C23_34 
REMARK   13  A    between atoms: C23_34  and  N4_35 
REMARK   14  A    between atoms: C31_49  and  O6_50 
ROOT
HETATM    1  C5  UNL     1       4.262  28.624   6.937  1.00  0.00     0.070 C 
HETATM    2  N1  UNL     1       5.663  28.863   7.186  1.00  0.00    -0.339 N 
ATOM      3  H1  UNL     1       5.876  29.856   7.279  1.00  0.00     0.167 HD
HETATM    4  C6  UNL     1       6.783  28.071   7.327  1.00  0.00     0.139 C 
HETATM    5  C7  UNL     1       7.736  27.421   6.346  1.00  0.00     0.158 C 
HETATM    6  N2  UNL     1       7.544  27.872   5.003  1.00  0.00    -0.361 N 
ATOM      7  H2  UNL     1       7.293  28.860   4.969  1.00  0.00     0.162 HD
HETATM    8  C12 UNL     1       7.609  27.326   3.758  1.00  0.00     0.135 C 
HETATM    9  C13 UNL     1       6.862  26.254   3.055  1.00  0.00     0.159 C 
HETATM   10  N3  UNL     1       5.981  25.471   3.868  1.00  0.00    -0.347 N 
ATOM     11  H3  UNL     1       6.161  25.479   4.873  1.00  0.00     0.163 HD
HETATM   12  C18 UNL     1       4.887  24.687   3.427  1.00  0.00     0.241 C 
HETATM   13  O3  UNL     1       4.884  23.474   3.887  1.00  0.00    -0.271 OA
HETATM   14  C19 UNL     1       3.784  25.048   2.548  1.00  0.00     0.176 C 
HETATM   15  N5  UNL     1       3.282  26.397   2.680  1.00  0.00    -0.346 N 
ATOM     16  H5  UNL     1       3.815  27.164   2.271  1.00  0.00     0.163 HD
HETATM   17  C28 UNL     1       2.059  26.691   3.366  1.00  0.00     0.240 C 
HETATM   18  O5  UNL     1       1.289  27.623   2.968  1.00  0.00    -0.271 OA
HETATM   19  C29 UNL     1       1.702  25.890   4.549  1.00  0.00     0.171 C 
HETATM   20  C30 UNL     1       0.271  25.374   4.259  1.00  0.00     0.042 C 
HETATM   21  N6  UNL     1       1.635  26.590   5.790  1.00  0.00    -0.355 N 
ATOM     22  H6  UNL     1       0.803  27.169   5.899  1.00  0.00     0.162 HD
HETATM   23  C31 UNL     1       2.517  26.626   6.900  1.00  0.00     0.190 C 
HETATM   24  C32 UNL     1       3.817  27.244   7.026  1.00  0.00     0.244 C 
HETATM   25  O7  UNL     1       4.780  26.412   7.268  1.00  0.00    -0.282 OA
ENDROOT
BRANCH  14  26
HETATM   26  C20 UNL     1       4.144  24.796   1.103  1.00  0.00     0.035 C 
BRANCH  26  27
HETATM   27  C21 UNL     1       2.981  24.072   0.410  1.00  0.00     0.004 C 
BRANCH  27  28
HETATM   28  C22 UNL     1       2.299  23.168   1.389  1.00  0.00     0.020 C 
BRANCH  28  29
HETATM   29  C23 UNL     1       2.246  21.758   0.904  1.00  0.00     0.125 C 
BRANCH  29  30
HETATM   30  N4  UNL     1       2.543  20.778   1.908  1.00  0.00    -0.352 N 
HETATM   31  C24 UNL     1       2.415  20.980   3.339  1.00  0.00     0.126 C 
HETATM   32  C25 UNL     1       3.547  20.120   3.860  1.00  0.00     0.029 C 
HETATM   33  C26 UNL     1       3.502  18.907   2.961  1.00  0.00     0.104 C 
HETATM   34  C27 UNL     1       3.004  19.468   1.685  1.00  0.00     0.219 C 
HETATM   35  O4  UNL     1       3.022  18.812   0.601  1.00  0.00    -0.273 OA
ENDBRANCH  29  30
ENDBRANCH  28  29
ENDBRANCH  27  28
ENDBRANCH  26  27
ENDBRANCH  14  26
BRANCH   9  36
HETATM   36  C14 UNL     1       7.762  25.465   2.138  1.00  0.00     0.037 C 
BRANCH  36  37
HETATM   37  C15 UNL     1       8.867  24.708   2.768  1.00  0.00    -0.020 C 
HETATM   38  C16 UNL     1       8.552  23.250   2.999  1.00  0.00     0.009 C 
HETATM   39  C17 UNL     1      10.037  24.736   1.775  1.00  0.00     0.009 C 
ENDBRANCH  36  37
ENDBRANCH   9  36
BRANCH   8  40
HETATM   40  O2  UNL     1       8.517  27.820   2.943  1.00  0.00    -0.348 OA
ATOM     41  H2  UNL     1       9.016  27.195   2.431  1.00  0.00     0.219 HD
ENDBRANCH   8  40
BRANCH  23  42
HETATM   42  O6  UNL     1       2.036  25.984   7.958  1.00  0.00    -0.343 OA
ATOM     43  H6  UNL     1       1.990  26.535   8.731  1.00  0.00     0.219 HD
ENDBRANCH  23  42
BRANCH   5  44
HETATM   44  C8  UNL     1       9.127  27.861   6.872  1.00  0.00     0.037 C 
BRANCH  44  45
HETATM   45  C9  UNL     1      10.147  26.819   6.971  1.00  0.00    -0.020 C 
HETATM   46  C10 UNL     1      10.582  26.643   8.446  1.00  0.00     0.009 C 
HETATM   47  C11 UNL     1       9.664  25.435   6.580  1.00  0.00     0.009 C 
ENDBRANCH  44  45
ENDBRANCH   5  44
BRANCH   4  48
HETATM   48  O1  UNL     1       7.203  27.755   8.535  1.00  0.00    -0.348 OA
ATOM     49  H1  UNL     1       7.818  27.038   8.643  1.00  0.00     0.219 HD
ENDBRANCH   4  48
BRANCH   1  50
HETATM   50  C3  UNL     1       3.618  29.526   5.944  1.00  0.00     0.035 C 
HETATM   51  C4  UNL     1       4.007  29.292   4.504  1.00  0.00     0.016 C 
BRANCH  50  52
HETATM   52  C2  UNL     1       3.975  31.009   6.178  1.00  0.00     0.006 C 
HETATM   53  C1  UNL     1       3.240  31.581   7.363  1.00  0.00     0.006 C 
ENDBRANCH  50  52
ENDBRANCH   1  50
TORSDOF 14
ENDMDL
MODEL 2
REMARK VINA RESULT: -7.419908179      3.940      9.262
REMARK  14 active torsions:
REMARK  status: ('A' for Active; 'I' for Inactive)
REMARK    1  A    between atoms: C2_2  and  C3_3 
REMARK    2  A    between atoms: C3_3  and  C5_5 
REMARK    3  A    between atoms: C6_8  and  O1_9 
REMARK    4  A    between atoms: C7_11  and  C8_12 
REMARK    5  A    between atoms: C8_12  and  C9_13 
REMARK    6  A    between atoms: C12_18  and  O2_19 
REMARK    7  A    between atoms: C13_21  and  C14_22 
REMARK    8  A    between atoms: C14_22  and  C15_23 
REMARK    9  A    between atoms: C19_30  and  C20_31 
REMARK   10  A    between atoms: C20_31  and  C21_32 
REMARK   11  A    between atoms: C21_32  and  C22_33 
REMARK   12  A    between atoms: C22_33  and  C23_34 
REMARK   13  A    between atoms: C23_34  and  N4_35 
REMARK   14  A    between atoms: C31_49  and  O6_50 
ROOT
HETATM    1  C5  UNL     1       8.043  24.929   1.847  1.00  0.00     0.070 C 
HETATM    2  N1  UNL     1       6.708  25.413   2.106  1.00  0.00    -0.339 N 
ATOM      3  H1  UNL     1       6.414  26.119   1.431  1.00  0.00     0.167 HD
HETATM    4  C6  UNL     1       5.736  25.150   3.046  1.00  0.00     0.139 C 
HETATM    5  C7  UNL     1       5.484  25.637   4.458  1.00  0.00     0.158 C 
HETATM    6  N2  UNL     1       6.324  26.735   4.824  1.00  0.00    -0.361 N 
ATOM      7  H2  UNL     1       6.491  27.361   4.037  1.00  0.00     0.162 HD
HETATM    8  C12 UNL     1       6.959  27.161   5.950  1.00  0.00     0.135 C 
HETATM    9  C13 UNL     1       8.031  26.605   6.811  1.00  0.00     0.159 C 
HETATM   10  N3  UNL     1       8.401  25.247   6.546  1.00  0.00    -0.347 N 
ATOM     11  H3  UNL     1       7.720  24.679   6.041  1.00  0.00     0.163 HD
HETATM   12  C18 UNL     1       9.612  24.608   6.911  1.00  0.00     0.241 C 
HETATM   13  O3  UNL     1       9.451  23.471   7.512  1.00  0.00    -0.271 OA
HETATM   14  C19 UNL     1      10.987  25.043   6.706  1.00  0.00     0.176 C 
HETATM   15  N5  UNL     1      11.256  25.731   5.463  1.00  0.00    -0.346 N 
ATOM     16  H5  UNL     1      10.969  26.705   5.367  1.00  0.00     0.163 HD
HETATM   17  C28 UNL     1      11.914  25.090   4.364  1.00  0.00     0.240 C 
HETATM   18  O5  UNL     1      12.716  25.732   3.612  1.00  0.00    -0.271 OA
HETATM   19  C29 UNL     1      11.646  23.664   4.115  1.00  0.00     0.171 C 
HETATM   20  C30 UNL     1      13.046  23.003   4.064  1.00  0.00     0.042 C 
HETATM   21  N6  UNL     1      11.005  23.346   2.881  1.00  0.00    -0.355 N 
ATOM     22  H6  UNL     1      11.617  23.400   2.066  1.00  0.00     0.162 HD
HETATM   23  C31 UNL     1       9.672  22.969   2.581  1.00  0.00     0.190 C 
HETATM   24  C32 UNL     1       8.463  23.760   2.599  1.00  0.00     0.244 C 
HETATM   25  O7  UNL     1       7.573  23.352   3.447  1.00  0.00    -0.282 OA
ENDROOT
BRANCH  14  26
HETATM   26  C20 UNL     1      11.457  25.900   7.856  1.00  0.00     0.035 C 
BRANCH  26  27
HETATM   27  C21 UNL     1      12.477  25.113   8.692  1.00  0.00     0.004 C 
BRANCH  27  28
HETATM   28  C22 UNL     1      13.424  24.396   7.780  1.00  0.00     0.020 C 
BRANCH  28  29
HETATM   29  C23 UNL     1      13.425  22.924   8.024  1.00  0.00     0.125 C 
BRANCH  29  30
HETATM   30  N4  UNL     1      14.707  22.388   8.379  1.00  0.00    -0.352 N 
HETATM   31  C24 UNL     1      15.172  22.158   9.734  1.00  0.00     0.126 C 
HETATM   32  C25 UNL     1      16.654  22.429   9.587  1.00  0.00     0.029 C 
HETATM   33  C26 UNL     1      16.985  21.822   8.245  1.00  0.00     0.104 C 
HETATM   34  C27 UNL     1      15.724  21.998   7.490  1.00  0.00     0.219 C 
HETATM   35  O4  UNL     1      15.648  21.808   6.239  1.00  0.00    -0.273 OA
ENDBRANCH  29  30
ENDBRANCH  28  29
ENDBRANCH  27  28
ENDBRANCH  26  27
ENDBRANCH  14  26
BRANCH   9  36
HETATM   36  C14 UNL     1       7.800  26.937   8.263  1.00  0.00     0.037 C 
BRANCH  36  37
HETATM   37  C15 UNL     1       8.890  27.642   8.973  1.00  0.00    -0.020 C 
HETATM   38  C16 UNL     1       9.642  28.627   8.111  1.00  0.00     0.009 C 
HETATM   39  C17 UNL     1       8.225  28.471  10.081  1.00  0.00     0.009 C 
ENDBRANCH  36  37
ENDBRANCH   9  36
BRANCH   8  40
HETATM   40  O2  UNL     1       6.585  28.328   6.433  1.00  0.00    -0.348 OA
ATOM     41  H2  UNL     1       6.744  28.478   7.357  1.00  0.00     0.219 HD
ENDBRANCH   8  40
BRANCH  23  42
HETATM   42  O6  UNL     1       9.565  21.690   2.240  1.00  0.00    -0.343 OA
ATOM     43  H6  UNL     1       9.139  21.570   1.399  1.00  0.00     0.219 HD
ENDBRANCH  23  42
BRANCH   5  44
HETATM   44  C8  UNL     1       4.000  26.082   4.412  1.00  0.00     0.037 C 
BRANCH  44  45
HETATM   45  C9  UNL     1       3.153  25.648   5.521  1.00  0.00    -0.020 C 
HETATM   46  C10 UNL     1       3.318  26.612   6.721  1.00  0.00     0.009 C 
HETATM   47  C11 UNL     1       1.666  25.702   5.229  1.00  0.00     0.009 C 
ENDBRANCH  44  45
ENDBRANCH   5  44
BRANCH   4  48
HETATM   48  O1  UNL     1       4.765  24.308   2.754  1.00  0.00    -0.348 OA
ATOM     49  H1  UNL     1       4.066  24.586   2.172  1.00  0.00     0.219 HD
ENDBRANCH   4  48
BRANCH   1  50
HETATM   50  C3  UNL     1       9.053  25.968   1.508  1.00  0.00     0.035 C 
HETATM   51  C4  UNL     1       9.436  26.897   2.635  1.00  0.00     0.016 C 
BRANCH  50  52
HETATM   52  C2  UNL     1       8.563  26.926   0.401  1.00  0.00     0.006 C 
HETATM   53  C1  UNL     1       8.601  28.365   0.848  1.00  0.00     0.006 C 
ENDBRANCH  50  52
ENDBRANCH   1  50
TORSDOF 14
ENDMDL
MODEL 3
REMARK VINA RESULT: -7.398590792      3.505      6.583
REMARK  14 active torsions:
REMARK  status: ('A' for Active; 'I' for Inactive)
REMARK    1  A    between atoms: C2_2  and  C3_3 
REMARK    2  A    between atoms: C3_3  and  C5_5 
REMARK    3  A    between atoms: C6_8  and  O1_9 
REMARK    4  A    between atoms: C7_11  and  C8_12 
REMARK    5  A    between atoms: C8_12  and  C9_13 
REMARK    6  A    between atoms: C12_18  and  O2_19 
REMARK    7  A    between atoms: C13_21  and  C14_22 
REMARK    8  A    between atoms: C14_22  and  C15_23 
REMARK    9  A    between atoms: C19_30  and  C20_31 
REMARK   10  A    between atoms: C20_31  and  C21_32 
REMARK   11  A    between atoms: C21_32  and  C22_33 
REMARK   12  A    between atoms: C22_33  and  C23_34 
REMARK   13  A    between atoms: C23_34  and  N4_35 
REMARK   14  A    between atoms: C31_49  and  O6_50 
ROOT
HETATM    1  C5  UNL     1      10.959  24.801   7.808  1.00  0.00     0.070 C 
HETATM    2  N1  UNL     1      11.797  23.907   7.047  1.00  0.00    -0.339 N 
ATOM      3  H1  UNL     1      12.791  24.084   7.199  1.00  0.00     0.167 HD
HETATM    4  C6  UNL     1      11.579  22.871   6.165  1.00  0.00     0.139 C 
HETATM    5  C7  UNL     1      11.280  22.804   4.682  1.00  0.00     0.158 C 
HETATM    6  N2  UNL     1      11.440  24.064   4.026  1.00  0.00    -0.361 N 
ATOM      7  H2  UNL     1      12.215  24.598   4.417  1.00  0.00     0.162 HD
HETATM    8  C12 UNL     1      10.824  24.737   3.015  1.00  0.00     0.135 C 
HETATM    9  C13 UNL     1       9.461  25.283   2.810  1.00  0.00     0.159 C 
HETATM   10  N3  UNL     1       8.484  24.901   3.785  1.00  0.00    -0.347 N 
ATOM     11  H3  UNL     1       8.690  24.066   4.334  1.00  0.00     0.163 HD
HETATM   12  C18 UNL     1       7.262  25.560   4.070  1.00  0.00     0.241 C 
HETATM   13  O3  UNL     1       6.229  24.777   4.088  1.00  0.00    -0.271 OA
HETATM   14  C19 UNL     1       7.012  26.968   4.342  1.00  0.00     0.176 C 
HETATM   15  N5  UNL     1       8.025  27.658   5.108  1.00  0.00    -0.346 N 
ATOM     16  H5  UNL     1       8.890  27.936   4.645  1.00  0.00     0.163 HD
HETATM   17  C28 UNL     1       7.854  27.963   6.498  1.00  0.00     0.240 C 
HETATM   18  O5  UNL     1       8.316  29.039   6.996  1.00  0.00    -0.271 OA
HETATM   19  C29 UNL     1       7.129  27.004   7.348  1.00  0.00     0.171 C 
HETATM   20  C30 UNL     1       6.024  27.844   8.035  1.00  0.00     0.042 C 
HETATM   21  N6  UNL     1       7.880  26.392   8.395  1.00  0.00    -0.355 N 
ATOM     22  H6  UNL     1       8.060  27.002   9.192  1.00  0.00     0.162 HD
HETATM   23  C31 UNL     1       8.422  25.088   8.528  1.00  0.00     0.190 C 
HETATM   24  C32 UNL     1       9.542  24.482   7.847  1.00  0.00     0.244 C 
HETATM   25  O7  UNL     1       9.234  23.446   7.133  1.00  0.00    -0.282 OA
ENDROOT
BRANCH  14  26
HETATM   26  C20 UNL     1       6.761  27.728   3.061  1.00  0.00     0.035 C 
BRANCH  26  27
HETATM   27  C21 UNL     1       5.261  27.699   2.739  1.00  0.00     0.004 C 
BRANCH  27  28
HETATM   28  C22 UNL     1       4.479  28.062   3.963  1.00  0.00     0.020 C 
BRANCH  28  29
HETATM   29  C23 UNL     1       3.145  27.394   3.991  1.00  0.00     0.125 C 
BRANCH  29  30
HETATM   30  N4  UNL     1       2.567  27.290   5.299  1.00  0.00    -0.352 N 
HETATM   31  C24 UNL     1       1.572  28.191   5.850  1.00  0.00     0.126 C 
HETATM   32  C25 UNL     1       1.948  28.185   7.316  1.00  0.00     0.029 C 
HETATM   33  C26 UNL     1       2.316  26.743   7.572  1.00  0.00     0.104 C 
HETATM   34  C27 UNL     1       2.859  26.310   6.265  1.00  0.00     0.219 C 
HETATM   35  O4  UNL     1       3.479  25.215   6.115  1.00  0.00    -0.273 OA
ENDBRANCH  29  30
ENDBRANCH  28  29
ENDBRANCH  27  28
ENDBRANCH  26  27
ENDBRANCH  14  26
BRANCH   9  36
HETATM   36  C14 UNL     1       9.022  25.148   1.374  1.00  0.00     0.037 C 
BRANCH  36  37
HETATM   37  C15 UNL     1       7.909  26.013   0.927  1.00  0.00    -0.020 C 
HETATM   38  C16 UNL     1       8.235  26.845  -0.291  1.00  0.00     0.009 C 
HETATM   39  C17 UNL     1       6.769  25.076   0.506  1.00  0.00     0.009 C 
ENDBRANCH  36  37
ENDBRANCH   9  36
BRANCH   8  40
HETATM   40  O2  UNL     1      11.554  24.998   1.950  1.00  0.00    -0.348 OA
ATOM     41  H2  UNL     1      11.301  24.564   1.144  1.00  0.00     0.219 HD
ENDBRANCH   8  40
BRANCH  23  42
HETATM   42  O6  UNL     1       7.771  24.351   9.419  1.00  0.00    -0.343 OA
ATOM     43  H6  UNL     1       7.682  23.444   9.151  1.00  0.00     0.219 HD
ENDBRANCH  23  42
BRANCH   5  44
HETATM   44  C8  UNL     1      12.328  21.786   4.163  1.00  0.00     0.037 C 
BRANCH  44  45
HETATM   45  C9  UNL     1      13.532  22.343   3.550  1.00  0.00    -0.020 C 
HETATM   46  C10 UNL     1      14.598  22.621   4.637  1.00  0.00     0.009 C 
HETATM   47  C11 UNL     1      14.240  21.400   2.596  1.00  0.00     0.009 C 
ENDBRANCH  44  45
ENDBRANCH   5  44
BRANCH   4  48
HETATM   48  O1  UNL     1      11.621  21.629   6.603  1.00  0.00    -0.348 OA
ATOM     49  H1  UNL     1      11.914  20.938   6.020  1.00  0.00     0.219 HD
ENDBRANCH   4  48
BRANCH   1  50
HETATM   50  C3  UNL     1      11.374  26.231   7.811  1.00  0.00     0.035 C 
HETATM   51  C4  UNL     1      12.786  26.500   7.351  1.00  0.00     0.016 C 
BRANCH  50  52
HETATM   52  C2  UNL     1      11.329  26.852   9.223  1.00  0.00     0.006 C 
HETATM   53  C1  UNL     1      11.981  25.960  10.249  1.00  0.00     0.006 C 
ENDBRANCH  50  52
ENDBRANCH   1  50
TORSDOF 14
ENDMDL
MODEL 4
REMARK VINA RESULT: -7.252833680      3.707      8.834
REMARK  14 active torsions:
REMARK  status: ('A' for Active; 'I' for Inactive)
REMARK    1  A    between atoms: C2_2  and  C3_3 
REMARK    2  A    between atoms: C3_3  and  C5_5 
REMARK    3  A    between atoms: C6_8  and  O1_9 
REMARK    4  A    between atoms: C7_11  and  C8_12 
REMARK    5  A    between atoms: C8_12  and  C9_13 
REMARK    6  A    between atoms: C12_18  and  O2_19 
REMARK    7  A    between atoms: C13_21  and  C14_22 
REMARK    8  A    between atoms: C14_22  and  C15_23 
REMARK    9  A    between atoms: C19_30  and  C20_31 
REMARK   10  A    between atoms: C20_31  and  C21_32 
REMARK   11  A    between atoms: C21_32  and  C22_33 
REMARK   12  A    between atoms: C22_33  and  C23_34 
REMARK   13  A    between atoms: C23_34  and  N4_35 
REMARK   14  A    between atoms: C31_49  and  O6_50 
ROOT
HETATM    1  C5  UNL     1       7.812  25.525   1.845  1.00  0.00     0.070 C 
HETATM    2  N1  UNL     1       6.499  25.997   2.212  1.00  0.00    -0.339 N 
ATOM      3  H1  UNL     1       6.189  26.774   1.629  1.00  0.00     0.167 HD
HETATM    4  C6  UNL     1       5.563  25.649   3.163  1.00  0.00     0.139 C 
HETATM    5  C7  UNL     1       5.381  25.989   4.627  1.00  0.00     0.158 C 
HETATM    6  N2  UNL     1       6.256  27.031   5.068  1.00  0.00    -0.361 N 
ATOM      7  H2  UNL     1       6.400  27.734   4.344  1.00  0.00     0.162 HD
HETATM    8  C12 UNL     1       6.946  27.327   6.203  1.00  0.00     0.135 C 
HETATM    9  C13 UNL     1       8.044  26.669   6.953  1.00  0.00     0.159 C 
HETATM   10  N3  UNL     1       8.378  25.342   6.531  1.00  0.00    -0.347 N 
ATOM     11  H3  UNL     1       7.666  24.840   6.000  1.00  0.00     0.163 HD
HETATM   12  C18 UNL     1       9.592  24.652   6.772  1.00  0.00     0.241 C 
HETATM   13  O3  UNL     1       9.436  23.460   7.258  1.00  0.00    -0.271 OA
HETATM   14  C19 UNL     1      10.964  25.088   6.552  1.00  0.00     0.176 C 
HETATM   15  N5  UNL     1      11.192  25.899   5.378  1.00  0.00    -0.346 N 
ATOM     16  H5  UNL     1      10.919  26.882   5.396  1.00  0.00     0.163 HD
HETATM   17  C28 UNL     1      11.790  25.369   4.190  1.00  0.00     0.240 C 
HETATM   18  O5  UNL     1      12.570  26.075   3.474  1.00  0.00    -0.271 OA
HETATM   19  C29 UNL     1      11.487  23.980   3.805  1.00  0.00     0.171 C 
HETATM   20  C30 UNL     1      12.871  23.310   3.623  1.00  0.00     0.042 C 
HETATM   21  N6  UNL     1      10.788  23.803   2.574  1.00  0.00    -0.355 N 
ATOM     22  H6  UNL     1      11.365  23.934   1.743  1.00  0.00     0.162 HD
HETATM   23  C31 UNL     1       9.436  23.477   2.297  1.00  0.00     0.190 C 
HETATM   24  C32 UNL     1       8.244  24.278   2.451  1.00  0.00     0.244 C 
HETATM   25  O7  UNL     1       7.383  23.795   3.291  1.00  0.00    -0.282 OA
ENDROOT
BRANCH  14  26
HETATM   26  C20 UNL     1      11.499  25.813   7.764  1.00  0.00     0.035 C 
BRANCH  26  27
HETATM   27  C21 UNL     1      12.331  24.841   8.611  1.00  0.00     0.004 C 
BRANCH  27  28
HETATM   28  C22 UNL     1      13.512  24.372   7.819  1.00  0.00     0.020 C 
BRANCH  28  29
HETATM   29  C23 UNL     1      14.126  23.145   8.406  1.00  0.00     0.125 C 
BRANCH  29  30
HETATM   30  N4  UNL     1      14.409  22.114   7.451  1.00  0.00    -0.352 N 
HETATM   31  C24 UNL     1      15.720  21.548   7.194  1.00  0.00     0.126 C 
HETATM   32  C25 UNL     1      15.625  21.242   5.714  1.00  0.00     0.029 C 
HETATM   33  C26 UNL     1      14.211  20.735   5.556  1.00  0.00     0.104 C 
HETATM   34  C27 UNL     1      13.480  21.481   6.606  1.00  0.00     0.219 C 
HETATM   35  O4  UNL     1      12.215  21.500   6.670  1.00  0.00    -0.273 OA
ENDBRANCH  29  30
ENDBRANCH  28  29
ENDBRANCH  27  28
ENDBRANCH  26  27
ENDBRANCH  14  26
BRANCH   9  36
HETATM   36  C14 UNL     1       7.882  26.850   8.440  1.00  0.00     0.037 C 
BRANCH  36  37
HETATM   37  C15 UNL     1       8.939  27.608   9.145  1.00  0.00    -0.020 C 
HETATM   38  C16 UNL     1       9.739  28.518   8.245  1.00  0.00     0.009 C 
HETATM   39  C17 UNL     1       8.226  28.524  10.148  1.00  0.00     0.009 C 
ENDBRANCH  36  37
ENDBRANCH   9  36
BRANCH   8  40
HETATM   40  O2  UNL     1       6.614  28.442   6.821  1.00  0.00    -0.348 OA
ATOM     41  H2  UNL     1       6.526  28.395   7.766  1.00  0.00     0.219 HD
ENDBRANCH   8  40
BRANCH  23  42
HETATM   42  O6  UNL     1       9.292  22.243   1.828  1.00  0.00    -0.343 OA
ATOM     43  H6  UNL     1       8.520  21.808   2.172  1.00  0.00     0.219 HD
ENDBRANCH  23  42
BRANCH   5  44
HETATM   44  C8  UNL     1       3.904  26.456   4.694  1.00  0.00     0.037 C 
BRANCH  44  45
HETATM   45  C9  UNL     1       3.109  25.948   5.810  1.00  0.00    -0.020 C 
HETATM   46  C10 UNL     1       3.315  26.842   7.057  1.00  0.00     0.009 C 
HETATM   47  C11 UNL     1       1.610  26.002   5.583  1.00  0.00     0.009 C 
ENDBRANCH  44  45
ENDBRANCH   5  44
BRANCH   4  48
HETATM   48  O1  UNL     1       4.565  24.856   2.828  1.00  0.00    -0.348 OA
ATOM     49  H1  UNL     1       3.769  24.863   3.347  1.00  0.00     0.219 HD
ENDBRANCH   4  48
BRANCH   1  50
HETATM   50  C3  UNL     1       8.825  26.581   1.572  1.00  0.00     0.035 C 
HETATM   51  C4  UNL     1       9.298  27.358   2.777  1.00  0.00     0.016 C 
BRANCH  50  52
HETATM   52  C2  UNL     1       8.293  27.675   0.622  1.00  0.00     0.006 C 
HETATM   53  C1  UNL     1       8.152  27.169  -0.791  1.00  0.00     0.006 C 
ENDBRANCH  50  52
ENDBRANCH   1  50
TORSDOF 14
ENDMDL
MODEL 5
REMARK VINA RESULT: -7.120830904      2.444      6.391
REMARK  14 active torsions:
REMARK  status: ('A' for Active; 'I' for Inactive)
REMARK    1  A    between atoms: C2_2  and  C3_3 
REMARK    2  A    between atoms: C3_3  and  C5_5 
REMARK    3  A    between atoms: C6_8  and  O1_9 
REMARK    4  A    between atoms: C7_11  and  C8_12 
REMARK    5  A    between atoms: C8_12  and  C9_13 
REMARK    6  A    between atoms: C12_18  and  O2_19 
REMARK    7  A    between atoms: C13_21  and  C14_22 
REMARK    8  A    between atoms: C14_22  and  C15_23 
REMARK    9  A    between atoms: C19_30  and  C20_31 
REMARK   10  A    between atoms: C20_31  and  C21_32 
REMARK   11  A    between atoms: C21_32  and  C22_33 
REMARK   12  A    between atoms: C22_33  and  C23_34 
REMARK   13  A    between atoms: C23_34  and  N4_35 
REMARK   14  A    between atoms: C31_49  and  O6_50 
ROOT
HETATM    1  C5  UNL     1       7.967  25.590   2.648  1.00  0.00     0.070 C 
HETATM    2  N1  UNL     1       8.488  26.117   3.886  1.00  0.00    -0.339 N 
ATOM      3  H1  UNL     1       9.097  25.452   4.364  1.00  0.00     0.167 HD
HETATM    4  C6  UNL     1       8.361  27.302   4.577  1.00  0.00     0.139 C 
HETATM    5  C7  UNL     1       7.326  27.849   5.538  1.00  0.00     0.158 C 
HETATM    6  N2  UNL     1       6.381  26.861   5.957  1.00  0.00    -0.361 N 
ATOM      7  H2  UNL     1       6.815  25.944   6.064  1.00  0.00     0.162 HD
HETATM    8  C12 UNL     1       5.052  26.826   6.250  1.00  0.00     0.135 C 
HETATM    9  C13 UNL     1       3.812  27.072   5.475  1.00  0.00     0.159 C 
HETATM   10  N3  UNL     1       3.992  27.638   4.172  1.00  0.00    -0.347 N 
ATOM     11  H3  UNL     1       4.877  28.116   4.002  1.00  0.00     0.163 HD
HETATM   12  C18 UNL     1       3.073  27.606   3.095  1.00  0.00     0.241 C 
HETATM   13  O3  UNL     1       2.854  28.762   2.550  1.00  0.00    -0.271 OA
HETATM   14  C19 UNL     1       2.355  26.475   2.524  1.00  0.00     0.176 C 
HETATM   15  N5  UNL     1       3.079  25.225   2.469  1.00  0.00    -0.346 N 
ATOM     16  H5  UNL     1       3.189  24.681   3.324  1.00  0.00     0.163 HD
HETATM   17  C28 UNL     1       3.647  24.727   1.252  1.00  0.00     0.240 C 
HETATM   18  O5  UNL     1       3.674  23.479   1.001  1.00  0.00    -0.271 OA
HETATM   19  C29 UNL     1       4.206  25.688   0.287  1.00  0.00     0.171 C 
HETATM   20  C30 UNL     1       3.505  25.353  -1.054  1.00  0.00     0.042 C 
HETATM   21  N6  UNL     1       5.608  25.598   0.042  1.00  0.00    -0.355 N 
ATOM     22  H6  UNL     1       5.880  24.810  -0.546  1.00  0.00     0.162 HD
HETATM   23  C31 UNL     1       6.693  26.406   0.469  1.00  0.00     0.190 C 
HETATM   24  C32 UNL     1       7.287  26.535   1.779  1.00  0.00     0.244 C 
HETATM   25  O7  UNL     1       7.204  27.724   2.285  1.00  0.00    -0.282 OA
ENDROOT
BRANCH  14  26
HETATM   26  C20 UNL     1       1.044  26.253   3.239  1.00  0.00     0.035 C 
BRANCH  26  27
HETATM   27  C21 UNL     1       1.111  24.935   4.023  1.00  0.00     0.004 C 
BRANCH  27  28
HETATM   28  C22 UNL     1      -0.272  24.386   4.196  1.00  0.00     0.020 C 
BRANCH  28  29
HETATM   29  C23 UNL     1      -1.265  25.459   4.492  1.00  0.00     0.125 C 
BRANCH  29  30
HETATM   30  N4  UNL     1      -1.347  25.818   5.878  1.00  0.00    -0.352 N 
HETATM   31  C24 UNL     1      -0.904  27.078   6.445  1.00  0.00     0.126 C 
HETATM   32  C25 UNL     1      -0.435  26.637   7.815  1.00  0.00     0.029 C 
HETATM   33  C26 UNL     1      -1.465  25.607   8.217  1.00  0.00     0.104 C 
HETATM   34  C27 UNL     1      -1.864  25.023   6.917  1.00  0.00     0.219 C 
HETATM   35  O4  UNL     1      -2.563  23.969   6.831  1.00  0.00    -0.273 OA
ENDBRANCH  29  30
ENDBRANCH  28  29
ENDBRANCH  27  28
ENDBRANCH  26  27
ENDBRANCH  14  26
BRANCH   9  36
HETATM   36  C14 UNL     1       2.754  27.732   6.322  1.00  0.00     0.037 C 
BRANCH  36  37
HETATM   37  C15 UNL     1       2.800  29.207   6.427  1.00  0.00    -0.020 C 
HETATM   38  C16 UNL     1       1.565  29.894   5.895  1.00  0.00     0.009 C 
HETATM   39  C17 UNL     1       2.855  29.536   7.925  1.00  0.00     0.009 C 
ENDBRANCH  36  37
ENDBRANCH   9  36
BRANCH   8  40
HETATM   40  O2  UNL     1       4.728  26.501   7.484  1.00  0.00    -0.348 OA
ATOM     41  H2  UNL     1       4.015  25.883   7.589  1.00  0.00     0.219 HD
ENDBRANCH   8  40
BRANCH  23  42
HETATM   42  O6  UNL     1       7.207  27.134  -0.515  1.00  0.00    -0.343 OA
ATOM     43  H6  UNL     1       7.586  26.603  -1.205  1.00  0.00     0.219 HD
ENDBRANCH  23  42
BRANCH   5  44
HETATM   44  C8  UNL     1       8.184  28.323   6.739  1.00  0.00     0.037 C 
BRANCH  44  45
HETATM   45  C9  UNL     1       8.387  27.358   7.817  1.00  0.00    -0.020 C 
HETATM   46  C10 UNL     1       9.877  26.947   7.886  1.00  0.00     0.009 C 
HETATM   47  C11 UNL     1       8.110  27.905   9.204  1.00  0.00     0.009 C 
ENDBRANCH  44  45
ENDBRANCH   5  44
BRANCH   4  48
HETATM   48  O1  UNL     1       9.290  28.229   4.448  1.00  0.00    -0.348 OA
ATOM     49  H1  UNL     1       9.033  29.124   4.258  1.00  0.00     0.219 HD
ENDBRANCH   4  48
BRANCH   1  50
HETATM   50  C3  UNL     1       7.486  24.182   2.696  1.00  0.00     0.035 C 
HETATM   51  C4  UNL     1       6.276  23.936   3.565  1.00  0.00     0.016 C 
BRANCH  50  52
HETATM   52  C2  UNL     1       8.546  23.218   3.271  1.00  0.00     0.006 C 
HETATM   53  C1  UNL     1       9.613  22.892   2.258  1.00  0.00     0.006 C 
ENDBRANCH  50  52
ENDBRANCH   1  50
TORSDOF 14
ENDMDL
