MODEL 1
REMARK VINA RESULT: -5.393893587      0.000      0.000
REMARK  13 active torsions:
REMARK  status: ('A' for Active; 'I' for Inactive)
REMARK    1  A    between atoms: C2_2  and  C3_3 
REMARK    2  A    between atoms: C3_3  and  C4_4 
REMARK    3  A    between atoms: C4_4  and  C5_5 
REMARK    4  A    between atoms: C10_16  and  C11_17 
REMARK    5  A    between atoms: C11_17  and  C12_18 
REMARK    6  A    between atoms: C12_18  and  C13_19 
REMARK    7  A    between atoms: C16_23  and  O3_24 
REMARK    8  A    between atoms: C17_26  and  C18_27 
REMARK    9  A    between atoms: C21_32  and  O4_33 
REMARK   10  A    between atoms: N5_39  and  C26_40 
REMARK   11  A    between atoms: C26_40  and  C27_41 
REMARK   12  A    between atoms: C27_41  and  C28_42 
REMARK   13  A    between atoms: C28_42  and  C29_43 
ROOT
HETATM    1  C5  UNL     1       2.863  26.333   5.729  1.00  0.00     0.177 C 
HETATM    2  N1  UNL     1       1.673  26.408   6.540  1.00  0.00    -0.346 N 
ATOM      3  H1  UNL     1       1.783  26.372   7.554  1.00  0.00     0.163 HD
HETATM    4  C6  UNL     1       0.365  26.528   6.021  1.00  0.00     0.240 C 
HETATM    5  O1  UNL     1      -0.547  26.855   6.819  1.00  0.00    -0.271 OA
HETATM    6  C7  UNL     1      -0.015  26.297   4.603  1.00  0.00     0.172 C 
HETATM    7  C8  UNL     1      -0.727  24.932   4.600  1.00  0.00     0.042 C 
HETATM    8  N2  UNL     1      -0.969  27.237   4.089  1.00  0.00    -0.346 N 
ATOM      9  H2  UNL     1      -1.920  27.179   4.451  1.00  0.00     0.163 HD
HETATM   10  C9  UNL     1      -0.704  28.249   3.112  1.00  0.00     0.241 C 
HETATM   11  O2  UNL     1      -1.703  28.924   2.749  1.00  0.00    -0.271 OA
HETATM   12  C10 UNL     1       0.607  28.540   2.529  1.00  0.00     0.177 C 
HETATM   13  N3  UNL     1       0.998  29.900   2.405  1.00  0.00    -0.355 N 
HETATM   14  C15 UNL     1       1.310  30.389   1.040  1.00  0.00     0.152 C 
HETATM   15  C16 UNL     1       1.159  30.875   3.407  1.00  0.00     0.137 C 
HETATM   16  C17 UNL     1       0.335  31.187   4.588  1.00  0.00     0.161 C 
HETATM   17  N4  UNL     1       0.501  30.392   5.755  1.00  0.00    -0.361 N 
ATOM     18  H4  UNL     1      -0.175  29.629   5.798  1.00  0.00     0.162 HD
HETATM   19  C21 UNL     1       1.354  30.397   6.852  1.00  0.00     0.125 C 
HETATM   20  C22 UNL     1       2.834  30.157   6.955  1.00  0.00     0.049 C 
HETATM   21  C23 UNL     1       3.173  29.516   8.284  1.00  0.00     0.029 C 
HETATM   22  C24 UNL     1       3.480  31.562   7.055  1.00  0.00     0.029 C 
HETATM   23  C25 UNL     1       3.400  29.372   5.863  1.00  0.00     0.084 C 
HETATM   24  N5  UNL     1       4.395  28.370   6.085  1.00  0.00    -0.329 N 
HETATM   25  C32 UNL     1       4.046  27.007   6.378  1.00  0.00     0.246 C 
HETATM   26  O6  UNL     1       4.788  26.418   7.205  1.00  0.00    -0.271 OA
ENDROOT
BRANCH  24  27
HETATM   27  C26 UNL     1       5.791  28.720   5.941  1.00  0.00     0.131 C 
BRANCH  27  28
HETATM   28  C27 UNL     1       6.625  27.850   5.089  1.00  0.00     0.026 C 
BRANCH  28  29
HETATM   29  C28 UNL     1       8.067  27.998   5.614  1.00  0.00     0.060 C 
BRANCH  29  30
HETATM   30  C29 UNL     1       8.213  27.395   6.937  1.00  0.00     0.029 A 
HETATM   31  C30 UNL     1       8.714  27.992   8.056  1.00  0.00     0.117 A 
HETATM   32  N6  UNL     1       8.690  27.128   9.078  1.00  0.00    -0.317 N 
HETATM   33  C31 UNL     1       8.172  25.995   8.581  1.00  0.00     0.324 A 
ATOM     34  H6  UNL     1       9.001  27.295  10.034  1.00  0.00     0.170 HD
HETATM   35  O5  UNL     1       7.962  24.903   9.196  1.00  0.00    -0.247 OA
HETATM   36  N7  UNL     1       7.877  26.147   7.277  1.00  0.00    -0.311 N 
ATOM     37  H7  UNL     1       7.472  25.441   6.661  1.00  0.00     0.170 HD
ENDBRANCH  29  30
ENDBRANCH  28  29
ENDBRANCH  27  28
ENDBRANCH  24  27
BRANCH   1  38
HETATM   38  C4  UNL     1       3.238  24.876   5.582  1.00  0.00     0.035 C 
BRANCH  38  39
HETATM   39  C3  UNL     1       3.816  24.537   4.246  1.00  0.00     0.002 C 
BRANCH  39  40
HETATM   40  C2  UNL     1       3.046  23.338   3.711  1.00  0.00    -0.004 C 
HETATM   41  C1  UNL     1       3.831  22.094   4.118  1.00  0.00     0.005 C 
ENDBRANCH  39  40
ENDBRANCH  38  39
ENDBRANCH   1  38
BRANCH  19  42
HETATM   42  O4  UNL     1       0.844  30.643   8.025  1.00  0.00    -0.349 OA
ATOM     43  H4  UNL     1       1.404  30.547   8.786  1.00  0.00     0.219 HD
ENDBRANCH  19  42
BRANCH  16  44
HETATM   44  C18 UNL     1       0.455  32.708   4.893  1.00  0.00     0.008 C 
HETATM   45  C19 UNL     1      -0.412  33.055   6.048  1.00  0.00     0.012 C 
HETATM   46  C20 UNL     1      -0.036  33.426   3.658  1.00  0.00     0.012 C 
ENDBRANCH  16  44
BRANCH  15  47
HETATM   47  O3  UNL     1       2.200  31.645   3.294  1.00  0.00    -0.348 OA
ATOM     48  H3  UNL     1       2.962  31.395   3.803  1.00  0.00     0.219 HD
ENDBRANCH  15  47
BRANCH  12  49
HETATM   49  C11 UNL     1       0.713  27.698   1.302  1.00  0.00     0.035 C 
BRANCH  49  50
HETATM   50  C12 UNL     1       1.546  26.489   1.330  1.00  0.00     0.002 C 
BRANCH  50  51
HETATM   51  C13 UNL     1       2.985  26.968   1.603  1.00  0.00    -0.004 C 
HETATM   52  C14 UNL     1       3.886  26.003   0.860  1.00  0.00     0.005 C 
ENDBRANCH  50  51
ENDBRANCH  49  50
ENDBRANCH  12  49
TORSDOF 13
ENDMDL
MODEL 2
REMARK VINA RESULT: -5.267375092      2.980      6.327
REMARK  13 active torsions:
REMARK  status: ('A' for Active; 'I' for Inactive)
REMARK    1  A    between atoms: C2_2  and  C3_3 
REMARK    2  A    between atoms: C3_3  and  C4_4 
REMARK    3  A    between atoms: C4_4  and  C5_5 
REMARK    4  A    between atoms: C10_16  and  C11_17 
REMARK    5  A    between atoms: C11_17  and  C12_18 
REMARK    6  A    between atoms: C12_18  and  C13_19 
REMARK    7  A    between atoms: C16_23  and  O3_24 
REMARK    8  A    between atoms: C17_26  and  C18_27 
REMARK    9  A    between atoms: C21_32  and  O4_33 
REMARK   10  A    between atoms: N5_39  and  C26_40 
REMARK   11  A    between atoms: C26_40  and  C27_41 
REMARK   12  A    between atoms: C27_41  and  C28_42 
REMARK   13  A    between atoms: C28_42  and  C29_43 
ROOT
HETATM    1  C5  UNL     1       4.690  28.116   7.173  1.00  0.00     0.177 C 
HETATM    2  N1  UNL     1       4.817  29.169   6.195  1.00  0.00    -0.346 N 
ATOM      3  H1  UNL     1       5.452  29.939   6.403  1.00  0.00     0.163 HD
HETATM    4  C6  UNL     1       4.117  29.201   4.969  1.00  0.00     0.240 C 
HETATM    5  O1  UNL     1       4.512  30.015   4.097  1.00  0.00    -0.271 OA
HETATM    6  C7  UNL     1       2.949  28.348   4.629  1.00  0.00     0.172 C 
HETATM    7  C8  UNL     1       1.731  29.285   4.722  1.00  0.00     0.042 C 
HETATM    8  N2  UNL     1       2.957  27.847   3.285  1.00  0.00    -0.346 N 
ATOM      9  H2  UNL     1       2.799  28.523   2.537  1.00  0.00     0.163 HD
HETATM   10  C9  UNL     1       3.165  26.485   2.899  1.00  0.00     0.241 C 
HETATM   11  O2  UNL     1       3.062  26.250   1.666  1.00  0.00    -0.271 OA
HETATM   12  C10 UNL     1       3.480  25.385   3.814  1.00  0.00     0.177 C 
HETATM   13  N3  UNL     1       4.501  24.473   3.438  1.00  0.00    -0.355 N 
HETATM   14  C15 UNL     1       4.120  23.045   3.325  1.00  0.00     0.152 C 
HETATM   15  C16 UNL     1       5.860  24.720   3.169  1.00  0.00     0.137 C 
HETATM   16  C17 UNL     1       6.512  25.807   2.417  1.00  0.00     0.161 C 
HETATM   17  N4  UNL     1       6.726  27.049   3.076  1.00  0.00    -0.361 N 
ATOM     18  H4  UNL     1       5.974  27.714   2.896  1.00  0.00     0.162 HD
HETATM   19  C21 UNL     1       7.706  27.582   3.905  1.00  0.00     0.125 C 
HETATM   20  C22 UNL     1       8.128  27.215   5.301  1.00  0.00     0.049 C 
HETATM   21  C23 UNL     1       8.612  28.442   6.044  1.00  0.00     0.029 C 
HETATM   22  C24 UNL     1       9.410  26.360   5.141  1.00  0.00     0.029 C 
HETATM   23  C25 UNL     1       7.105  26.528   6.084  1.00  0.00     0.084 C 
HETATM   24  N5  UNL     1       6.891  26.813   7.468  1.00  0.00    -0.329 N 
HETATM   25  C32 UNL     1       5.985  27.844   7.896  1.00  0.00     0.246 C 
HETATM   26  O6  UNL     1       6.341  28.498   8.910  1.00  0.00    -0.271 OA
ENDROOT
BRANCH  24  27
HETATM   27  C26 UNL     1       7.546  25.997   8.465  1.00  0.00     0.131 C 
BRANCH  27  28
HETATM   28  C27 UNL     1       8.869  26.442   8.945  1.00  0.00     0.026 C 
BRANCH  28  29
HETATM   29  C28 UNL     1       9.697  25.159   9.157  1.00  0.00     0.060 C 
BRANCH  29  30
HETATM   30  C29 UNL     1      10.974  25.231   8.452  1.00  0.00     0.029 A 
HETATM   31  C30 UNL     1      11.962  26.153   8.642  1.00  0.00     0.117 A 
HETATM   32  N6  UNL     1      12.983  25.898   7.814  1.00  0.00    -0.317 N 
HETATM   33  C31 UNL     1      12.617  24.815   7.112  1.00  0.00     0.324 A 
ATOM     34  H6  UNL     1      13.855  26.419   7.733  1.00  0.00     0.170 HD
HETATM   35  O5  UNL     1      13.280  24.217   6.208  1.00  0.00    -0.247 OA
HETATM   36  N7  UNL     1      11.395  24.400   7.493  1.00  0.00    -0.311 N 
ATOM     37  H7  UNL     1      10.884  23.600   7.120  1.00  0.00     0.170 HD
ENDBRANCH  29  30
ENDBRANCH  28  29
ENDBRANCH  27  28
ENDBRANCH  24  27
BRANCH   1  38
HETATM   38  C4  UNL     1       3.706  28.571   8.226  1.00  0.00     0.035 C 
BRANCH  38  39
HETATM   39  C3  UNL     1       2.430  27.792   8.232  1.00  0.00     0.002 C 
BRANCH  39  40
HETATM   40  C2  UNL     1       1.291  28.792   8.369  1.00  0.00    -0.004 C 
HETATM   41  C1  UNL     1       0.027  28.087   7.886  1.00  0.00     0.005 C 
ENDBRANCH  39  40
ENDBRANCH  38  39
ENDBRANCH   1  38
BRANCH  19  42
HETATM   42  O4  UNL     1       8.418  28.575   3.454  1.00  0.00    -0.349 OA
ATOM     43  H4  UNL     1       9.148  28.879   3.981  1.00  0.00     0.219 HD
ENDBRANCH  19  42
BRANCH  16  44
HETATM   44  C18 UNL     1       7.813  25.256   1.768  1.00  0.00     0.008 C 
HETATM   45  C19 UNL     1       8.515  26.350   1.049  1.00  0.00     0.012 C 
HETATM   46  C20 UNL     1       7.378  24.200   0.780  1.00  0.00     0.012 C 
ENDBRANCH  16  44
BRANCH  15  47
HETATM   47  O3  UNL     1       6.705  23.857   3.651  1.00  0.00    -0.348 OA
ATOM     48  H3  UNL     1       7.383  23.559   3.056  1.00  0.00     0.219 HD
ENDBRANCH  15  47
BRANCH  12  49
HETATM   49  C11 UNL     1       2.172  24.795   4.221  1.00  0.00     0.035 C 
BRANCH  49  50
HETATM   50  C12 UNL     1       1.354  25.484   5.227  1.00  0.00     0.002 C 
BRANCH  50  51
HETATM   51  C13 UNL     1      -0.027  25.701   4.580  1.00  0.00    -0.004 C 
HETATM   52  C14 UNL     1      -1.040  25.278   5.624  1.00  0.00     0.005 C 
ENDBRANCH  50  51
ENDBRANCH  49  50
ENDBRANCH  12  49
TORSDOF 13
ENDMDL
MODEL 3
REMARK VINA RESULT: -5.179039243      3.619      7.373
REMARK  13 active torsions:
REMARK  status: ('A' for Active; 'I' for Inactive)
REMARK    1  A    between atoms: C2_2  and  C3_3 
REMARK    2  A    between atoms: C3_3  and  C4_4 
REMARK    3  A    between atoms: C4_4  and  C5_5 
REMARK    4  A    between atoms: C10_16  and  C11_17 
REMARK    5  A    between atoms: C11_17  and  C12_18 
REMARK    6  A    between atoms: C12_18  and  C13_19 
REMARK    7  A    between atoms: C16_23  and  O3_24 
REMARK    8  A    between atoms: C17_26  and  C18_27 
REMARK    9  A    between atoms: C21_32  and  O4_33 
REMARK   10  A    between atoms: N5_39  and  C26_40 
REMARK   11  A    between atoms: C26_40  and  C27_41 
REMARK   12  A    between atoms: C27_41  and  C28_42 
REMARK   13  A    between atoms: C28_42  and  C29_43 
ROOT
HETATM    1  C5  UNL     1       4.145  25.888   4.167  1.00  0.00     0.177 C 
HETATM    2  N1  UNL     1       3.833  26.800   3.093  1.00  0.00    -0.346 N 
ATOM      3  H1  UNL     1       4.278  26.643   2.189  1.00  0.00     0.163 HD
HETATM    4  C6  UNL     1       2.951  27.896   3.215  1.00  0.00     0.240 C 
HETATM    5  O1  UNL     1       2.556  28.442   2.155  1.00  0.00    -0.271 OA
HETATM    6  C7  UNL     1       2.454  28.454   4.499  1.00  0.00     0.172 C 
HETATM    7  C8  UNL     1       3.237  29.765   4.693  1.00  0.00     0.042 C 
HETATM    8  N2  UNL     1       1.068  28.825   4.483  1.00  0.00    -0.346 N 
ATOM      9  H2  UNL     1       0.812  29.637   3.922  1.00  0.00     0.163 HD
HETATM   10  C9  UNL     1       0.014  28.156   5.182  1.00  0.00     0.241 C 
HETATM   11  O2  UNL     1      -1.123  28.691   5.086  1.00  0.00    -0.271 OA
HETATM   12  C10 UNL     1       0.165  26.934   5.975  1.00  0.00     0.177 C 
HETATM   13  N3  UNL     1      -0.806  25.910   5.820  1.00  0.00    -0.355 N 
HETATM   14  C15 UNL     1      -1.554  25.502   7.034  1.00  0.00     0.152 C 
HETATM   15  C16 UNL     1      -1.164  25.190   4.665  1.00  0.00     0.137 C 
HETATM   16  C17 UNL     1      -1.369  25.637   3.276  1.00  0.00     0.161 C 
HETATM   17  N4  UNL     1      -0.226  25.811   2.448  1.00  0.00    -0.361 N 
ATOM     18  H4  UNL     1       0.102  26.778   2.446  1.00  0.00     0.162 HD
HETATM   19  C21 UNL     1       0.556  24.992   1.642  1.00  0.00     0.125 C 
HETATM   20  C22 UNL     1       1.464  23.844   1.984  1.00  0.00     0.049 C 
HETATM   21  C23 UNL     1       2.619  23.778   1.008  1.00  0.00     0.029 C 
HETATM   22  C24 UNL     1       0.653  22.561   1.672  1.00  0.00     0.029 C 
HETATM   23  C25 UNL     1       1.967  23.854   3.354  1.00  0.00     0.084 C 
HETATM   24  N5  UNL     1       3.317  23.503   3.669  1.00  0.00    -0.329 N 
HETATM   25  C32 UNL     1       4.371  24.479   3.678  1.00  0.00     0.246 C 
HETATM   26  O6  UNL     1       5.487  24.083   3.256  1.00  0.00    -0.271 OA
ENDROOT
BRANCH  24  27
HETATM   27  C26 UNL     1       3.617  22.143   4.059  1.00  0.00     0.131 C 
BRANCH  27  28
HETATM   28  C27 UNL     1       3.421  21.087   3.046  1.00  0.00     0.026 C 
BRANCH  28  29
HETATM   29  C28 UNL     1       2.912  19.852   3.816  1.00  0.00     0.060 C 
BRANCH  29  30
HETATM   30  C29 UNL     1       3.775  18.694   3.588  1.00  0.00     0.029 A 
HETATM   31  C30 UNL     1       4.045  18.101   2.390  1.00  0.00     0.117 A 
HETATM   32  N6  UNL     1       4.878  17.068   2.575  1.00  0.00    -0.317 N 
HETATM   33  C31 UNL     1       5.116  17.029   3.895  1.00  0.00     0.324 A 
ATOM     34  H6  UNL     1       5.251  16.442   1.863  1.00  0.00     0.170 HD
HETATM   35  O5  UNL     1       5.854  16.209   4.525  1.00  0.00    -0.247 OA
HETATM   36  N7  UNL     1       4.450  18.017   4.521  1.00  0.00    -0.311 N 
ATOM     37  H7  UNL     1       4.457  18.212   5.523  1.00  0.00     0.170 HD
ENDBRANCH  29  30
ENDBRANCH  28  29
ENDBRANCH  27  28
ENDBRANCH  24  27
BRANCH   1  38
HETATM   38  C4  UNL     1       5.448  26.331   4.792  1.00  0.00     0.035 C 
BRANCH  38  39
HETATM   39  C3  UNL     1       5.290  26.911   6.161  1.00  0.00     0.002 C 
BRANCH  39  40
HETATM   40  C2  UNL     1       6.319  28.023   6.303  1.00  0.00    -0.004 C 
HETATM   41  C1  UNL     1       7.001  27.821   7.654  1.00  0.00     0.005 C 
ENDBRANCH  39  40
ENDBRANCH  38  39
ENDBRANCH   1  38
BRANCH  19  42
HETATM   42  O4  UNL     1       0.546  25.206   0.357  1.00  0.00    -0.349 OA
ATOM     43  H4  UNL     1      -0.096  24.744  -0.168  1.00  0.00     0.219 HD
ENDBRANCH  19  42
BRANCH  16  44
HETATM   44  C18 UNL     1      -2.440  24.727   2.611  1.00  0.00     0.008 C 
HETATM   45  C19 UNL     1      -2.705  25.197   1.227  1.00  0.00     0.012 C 
HETATM   46  C20 UNL     1      -3.693  24.872   3.443  1.00  0.00     0.012 C 
ENDBRANCH  16  44
BRANCH  15  47
HETATM   47  O3  UNL     1      -1.356  23.914   4.823  1.00  0.00    -0.348 OA
ATOM     48  H3  UNL     1      -1.926  23.496   4.189  1.00  0.00     0.219 HD
ENDBRANCH  15  47
BRANCH  12  49
HETATM   49  C11 UNL     1       0.456  27.376   7.369  1.00  0.00     0.035 C 
BRANCH  49  50
HETATM   50  C12 UNL     1       1.851  27.461   7.821  1.00  0.00     0.002 C 
BRANCH  50  51
HETATM   51  C13 UNL     1       1.971  28.792   8.588  1.00  0.00    -0.004 C 
HETATM   52  C14 UNL     1       3.373  29.297   8.315  1.00  0.00     0.005 C 
ENDBRANCH  50  51
ENDBRANCH  49  50
ENDBRANCH  12  49
TORSDOF 13
ENDMDL
MODEL 4
REMARK VINA RESULT: -5.163126014      3.468      8.465
REMARK  13 active torsions:
REMARK  status: ('A' for Active; 'I' for Inactive)
REMARK    1  A    between atoms: C2_2  and  C3_3 
REMARK    2  A    between atoms: C3_3  and  C4_4 
REMARK    3  A    between atoms: C4_4  and  C5_5 
REMARK    4  A    between atoms: C10_16  and  C11_17 
REMARK    5  A    between atoms: C11_17  and  C12_18 
REMARK    6  A    between atoms: C12_18  and  C13_19 
REMARK    7  A    between atoms: C16_23  and  O3_24 
REMARK    8  A    between atoms: C17_26  and  C18_27 
REMARK    9  A    between atoms: C21_32  and  O4_33 
REMARK   10  A    between atoms: N5_39  and  C26_40 
REMARK   11  A    between atoms: C26_40  and  C27_41 
REMARK   12  A    between atoms: C27_41  and  C28_42 
REMARK   13  A    between atoms: C28_42  and  C29_43 
ROOT
HETATM    1  C5  UNL     1       5.616  26.143   2.839  1.00  0.00     0.177 C 
HETATM    2  N1  UNL     1       6.340  27.364   2.583  1.00  0.00    -0.346 N 
ATOM      3  H1  UNL     1       5.812  28.237   2.564  1.00  0.00     0.163 HD
HETATM    4  C6  UNL     1       7.732  27.428   2.355  1.00  0.00     0.240 C 
HETATM    5  O1  UNL     1       8.278  28.558   2.417  1.00  0.00    -0.271 OA
HETATM    6  C7  UNL     1       8.602  26.264   2.050  1.00  0.00     0.172 C 
HETATM    7  C8  UNL     1       8.904  26.376   0.545  1.00  0.00     0.042 C 
HETATM    8  N2  UNL     1       9.877  26.292   2.708  1.00  0.00    -0.346 N 
ATOM      9  H2  UNL     1      10.546  26.994   2.393  1.00  0.00     0.163 HD
HETATM   10  C9  UNL     1      10.293  25.424   3.767  1.00  0.00     0.241 C 
HETATM   11  O2  UNL     1      11.481  25.575   4.155  1.00  0.00    -0.271 OA
HETATM   12  C10 UNL     1       9.455  24.406   4.406  1.00  0.00     0.177 C 
HETATM   13  N3  UNL     1       9.486  24.305   5.822  1.00  0.00    -0.355 N 
HETATM   14  C15 UNL     1       9.898  23.001   6.394  1.00  0.00     0.152 C 
HETATM   15  C16 UNL     1       9.159  25.272   6.791  1.00  0.00     0.137 C 
HETATM   16  C17 UNL     1       9.463  26.712   6.856  1.00  0.00     0.161 C 
HETATM   17  N4  UNL     1       8.642  27.609   6.119  1.00  0.00    -0.361 N 
ATOM     18  H4  UNL     1       9.036  27.823   5.202  1.00  0.00     0.162 HD
HETATM   19  C21 UNL     1       7.437  28.266   6.337  1.00  0.00     0.125 C 
HETATM   20  C22 UNL     1       6.039  27.739   6.501  1.00  0.00     0.049 C 
HETATM   21  C23 UNL     1       5.035  28.733   5.956  1.00  0.00     0.029 C 
HETATM   22  C24 UNL     1       5.764  27.746   8.025  1.00  0.00     0.029 C 
HETATM   23  C25 UNL     1       5.812  26.424   5.909  1.00  0.00     0.084 C 
HETATM   24  N5  UNL     1       4.608  26.106   5.207  1.00  0.00    -0.329 N 
HETATM   25  C32 UNL     1       4.469  26.344   3.796  1.00  0.00     0.246 C 
HETATM   26  O6  UNL     1       3.333  26.727   3.416  1.00  0.00    -0.271 OA
ENDROOT
BRANCH  24  27
HETATM   27  C26 UNL     1       3.527  25.462   5.919  1.00  0.00     0.131 C 
BRANCH  27  28
HETATM   28  C27 UNL     1       2.290  26.240   6.125  1.00  0.00     0.026 C 
BRANCH  28  29
HETATM   29  C28 UNL     1       2.331  26.722   7.589  1.00  0.00     0.060 C 
BRANCH  29  30
HETATM   30  C29 UNL     1       1.540  27.938   7.768  1.00  0.00     0.029 A 
HETATM   31  C30 UNL     1       1.353  28.932   6.853  1.00  0.00     0.117 A 
HETATM   32  N6  UNL     1       0.569  29.883   7.376  1.00  0.00    -0.317 N 
HETATM   33  C31 UNL     1       0.276  29.469   8.617  1.00  0.00     0.324 A 
ATOM     34  H6  UNL     1       0.259  30.744   6.924  1.00  0.00     0.170 HD
HETATM   35  O5  UNL     1      -0.445  30.059   9.482  1.00  0.00    -0.247 OA
HETATM   36  N7  UNL     1       0.862  28.284   8.867  1.00  0.00    -0.311 N 
ATOM     37  H7  UNL     1       0.801  27.748   9.733  1.00  0.00     0.170 HD
ENDBRANCH  29  30
ENDBRANCH  28  29
ENDBRANCH  27  28
ENDBRANCH  24  27
BRANCH   1  38
HETATM   38  C4  UNL     1       5.003  25.681   1.537  1.00  0.00     0.035 C 
BRANCH  38  39
HETATM   39  C3  UNL     1       4.305  24.362   1.637  1.00  0.00     0.002 C 
BRANCH  39  40
HETATM   40  C2  UNL     1       3.356  24.263   0.452  1.00  0.00    -0.004 C 
HETATM   41  C1  UNL     1       3.370  25.624  -0.239  1.00  0.00     0.005 C 
ENDBRANCH  39  40
ENDBRANCH  38  39
ENDBRANCH   1  38
BRANCH  19  42
HETATM   42  O4  UNL     1       7.454  29.565   6.422  1.00  0.00    -0.349 OA
ATOM     43  H4  UNL     1       6.855  30.058   5.874  1.00  0.00     0.219 HD
ENDBRANCH  19  42
BRANCH  16  44
HETATM   44  C18 UNL     1       9.592  27.128   8.349  1.00  0.00     0.008 C 
HETATM   45  C19 UNL     1       9.813  28.594   8.441  1.00  0.00     0.012 C 
HETATM   46  C20 UNL     1      10.801  26.400   8.888  1.00  0.00     0.012 C 
ENDBRANCH  16  44
BRANCH  15  47
HETATM   47  O3  UNL     1       8.476  24.848   7.813  1.00  0.00    -0.348 OA
ATOM     48  H3  UNL     1       8.651  25.281   8.640  1.00  0.00     0.219 HD
ENDBRANCH  15  47
BRANCH  12  49
HETATM   49  C11 UNL     1       9.673  23.146   3.639  1.00  0.00     0.035 C 
BRANCH  49  50
HETATM   50  C12 UNL     1      10.908  22.982   2.862  1.00  0.00     0.002 C 
BRANCH  50  51
HETATM   51  C13 UNL     1      11.840  22.104   3.720  1.00  0.00    -0.004 C 
HETATM   52  C14 UNL     1      13.249  22.508   3.339  1.00  0.00     0.005 C 
ENDBRANCH  50  51
ENDBRANCH  49  50
ENDBRANCH  12  49
TORSDOF 13
ENDMDL
MODEL 5
REMARK VINA RESULT: -5.103884718      3.182      4.653
REMARK  13 active torsions:
REMARK  status: ('A' for Active; 'I' for Inactive)
REMARK    1  A    between atoms: C2_2  and  C3_3 
REMARK    2  A    between atoms: C3_3  and  C4_4 
REMARK    3  A    between atoms: C4_4  and  C5_5 
REMARK    4  A    between atoms: C10_16  and  C11_17 
REMARK    5  A    between atoms: C11_17  and  C12_18 
REMARK    6  A    between atoms: C12_18  and  C13_19 
REMARK    7  A    between atoms: C16_23  and  O3_24 
REMARK    8  A    between atoms: C17_26  and  C18_27 
REMARK    9  A    between atoms: C21_32  and  O4_33 
REMARK   10  A    between atoms: N5_39  and  C26_40 
REMARK   11  A    between atoms: C26_40  and  C27_41 
REMARK   12  A    between atoms: C27_41  and  C28_42 
REMARK   13  A    between atoms: C28_42  and  C29_43 
ROOT
HETATM    1  C5  UNL     1       3.988  25.631   1.321  1.00  0.00     0.177 C 
HETATM    2  N1  UNL     1       3.380  24.794   2.327  1.00  0.00    -0.346 N 
ATOM      3  H1  UNL     1       3.930  24.020   2.699  1.00  0.00     0.163 HD
HETATM    4  C6  UNL     1       2.073  24.980   2.830  1.00  0.00     0.240 C 
HETATM    5  O1  UNL     1       1.765  24.366   3.881  1.00  0.00    -0.271 OA
HETATM    6  C7  UNL     1       1.036  25.844   2.212  1.00  0.00     0.172 C 
HETATM    7  C8  UNL     1       0.051  24.868   1.542  1.00  0.00     0.042 C 
HETATM    8  N2  UNL     1       0.260  26.598   3.153  1.00  0.00    -0.346 N 
ATOM      9  H2  UNL     1      -0.391  26.078   3.741  1.00  0.00     0.163 HD
HETATM   10  C9  UNL     1       0.317  28.016   3.342  1.00  0.00     0.241 C 
HETATM   11  O2  UNL     1      -0.502  28.484   4.176  1.00  0.00    -0.271 OA
HETATM   12  C10 UNL     1       1.234  28.925   2.651  1.00  0.00     0.177 C 
HETATM   13  N3  UNL     1       1.888  29.926   3.417  1.00  0.00    -0.355 N 
HETATM   14  C15 UNL     1       1.660  31.336   3.019  1.00  0.00     0.152 C 
HETATM   15  C16 UNL     1       2.758  29.781   4.514  1.00  0.00     0.137 C 
HETATM   16  C17 UNL     1       2.697  28.884   5.681  1.00  0.00     0.161 C 
HETATM   17  N4  UNL     1       3.151  27.545   5.528  1.00  0.00    -0.361 N 
ATOM     18  H4  UNL     1       2.387  26.905   5.311  1.00  0.00     0.162 HD
HETATM   19  C21 UNL     1       4.376  26.893   5.601  1.00  0.00     0.125 C 
HETATM   20  C22 UNL     1       5.602  26.993   4.737  1.00  0.00     0.049 C 
HETATM   21  C23 UNL     1       6.319  25.661   4.686  1.00  0.00     0.029 C 
HETATM   22  C24 UNL     1       6.587  27.905   5.512  1.00  0.00     0.029 C 
HETATM   23  C25 UNL     1       5.355  27.480   3.384  1.00  0.00     0.084 C 
HETATM   24  N5  UNL     1       6.014  26.922   2.245  1.00  0.00    -0.329 N 
HETATM   25  C32 UNL     1       5.472  25.799   1.531  1.00  0.00     0.246 C 
HETATM   26  O6  UNL     1       6.312  24.970   1.095  1.00  0.00    -0.271 OA
ENDROOT
BRANCH  24  27
HETATM   27  C26 UNL     1       7.221  27.548   1.753  1.00  0.00     0.131 C 
BRANCH  27  28
HETATM   28  C27 UNL     1       8.495  27.164   2.393  1.00  0.00     0.026 C 
BRANCH  28  29
HETATM   29  C28 UNL     1       9.236  26.284   1.366  1.00  0.00     0.060 C 
BRANCH  29  30
HETATM   30  C29 UNL     1       9.728  25.054   1.982  1.00  0.00     0.029 A 
HETATM   31  C30 UNL     1      10.987  24.825   2.456  1.00  0.00     0.117 A 
HETATM   32  N6  UNL     1      11.064  23.582   2.949  1.00  0.00    -0.317 N 
HETATM   33  C31 UNL     1       9.846  23.048   2.775  1.00  0.00     0.324 A 
ATOM     34  H6  UNL     1      11.879  23.136   3.369  1.00  0.00     0.170 HD
HETATM   35  O5  UNL     1       9.458  21.881   3.096  1.00  0.00    -0.247 OA
HETATM   36  N7  UNL     1       9.024  23.937   2.187  1.00  0.00    -0.311 N 
ATOM     37  H7  UNL     1       8.045  23.786   1.942  1.00  0.00     0.170 HD
ENDBRANCH  29  30
ENDBRANCH  28  29
ENDBRANCH  27  28
ENDBRANCH  24  27
BRANCH   1  38
HETATM   38  C4  UNL     1       3.826  24.946  -0.016  1.00  0.00     0.035 C 
BRANCH  38  39
HETATM   39  C3  UNL     1       3.113  25.777  -1.034  1.00  0.00     0.002 C 
BRANCH  39  40
HETATM   40  C2  UNL     1       2.054  24.893  -1.677  1.00  0.00    -0.004 C 
HETATM   41  C1  UNL     1       2.275  23.481  -1.142  1.00  0.00     0.005 C 
ENDBRANCH  39  40
ENDBRANCH  38  39
ENDBRANCH   1  38
BRANCH  19  42
HETATM   42  O4  UNL     1       4.556  26.031   6.560  1.00  0.00    -0.349 OA
ATOM     43  H4  UNL     1       5.352  26.094   7.075  1.00  0.00     0.219 HD
ENDBRANCH  19  42
BRANCH  16  44
HETATM   44  C18 UNL     1       3.365  29.594   6.893  1.00  0.00     0.008 C 
HETATM   45  C19 UNL     1       3.284  28.720   8.091  1.00  0.00     0.012 C 
HETATM   46  C20 UNL     1       2.570  30.857   7.134  1.00  0.00     0.012 C 
ENDBRANCH  16  44
BRANCH  15  47
HETATM   47  O3  UNL     1       3.799  30.560   4.524  1.00  0.00    -0.348 OA
ATOM     48  H3  UNL     1       4.638  30.134   4.655  1.00  0.00     0.219 HD
ENDBRANCH  15  47
BRANCH  12  49
HETATM   49  C11 UNL     1       0.522  29.381   1.423  1.00  0.00     0.035 C 
BRANCH  49  50
HETATM   50  C12 UNL     1       1.063  29.025   0.105  1.00  0.00     0.002 C 
BRANCH  50  51
HETATM   51  C13 UNL     1       0.027  28.085  -0.543  1.00  0.00    -0.004 C 
HETATM   52  C14 UNL     1       0.261  28.184  -2.036  1.00  0.00     0.005 C 
ENDBRANCH  50  51
ENDBRANCH  49  50
ENDBRANCH  12  49
TORSDOF 13
ENDMDL
