MODEL 1
REMARK VINA RESULT: -5.794945445      0.000      0.000
REMARK  16 active torsions:
REMARK  status: ('A' for Active; 'I' for Inactive)
REMARK    1  A    between atoms: C2_2  and  C3_3 
REMARK    2  A    between atoms: C3_3  and  C4_4 
REMARK    3  A    between atoms: C4_4  and  C5_5 
REMARK    4  A    between atoms: C7_10  and  C8_11 
REMARK    5  A    between atoms: C11_16  and  O2_17 
REMARK    6  A    between atoms: C12_19  and  C13_20 
REMARK    7  A    between atoms: C13_20  and  C14_21 
REMARK    8  A    between atoms: C17_26  and  O3_27 
REMARK    9  A    between atoms: C18_29  and  C19_30 
REMARK   10  A    between atoms: C22_35  and  O4_36 
REMARK   11  A    between atoms: N5_38  and  C23_39 
REMARK   12  A    between atoms: C23_39  and  C24_40 
REMARK   13  A    between atoms: C24_40  and  N6_41 
REMARK   14  A    between atoms: C26_47  and  C27_48 
REMARK   15  A    between atoms: C27_48  and  C28_49 
REMARK   16  A    between atoms: C32_54  and  O6_55 
ROOT
HETATM    1  C5  UNL     1       4.125  29.510   6.846  1.00  0.00     0.159 C 
HETATM    2  N1  UNL     1       4.371  28.176   6.387  1.00  0.00    -0.347 N 
ATOM      3  H1  UNL     1       3.732  27.804   5.685  1.00  0.00     0.163 HD
HETATM    4  C6  UNL     1       5.432  27.314   6.820  1.00  0.00     0.241 C 
HETATM    5  O1  UNL     1       5.108  26.109   6.971  1.00  0.00    -0.271 OA
HETATM    6  C7  UNL     1       6.791  27.734   7.082  1.00  0.00     0.179 C 
HETATM    7  N2  UNL     1       7.784  27.557   6.054  1.00  0.00    -0.359 N 
ATOM      8  H2  UNL     1       8.709  27.383   6.448  1.00  0.00     0.162 HD
HETATM    9  C11 UNL     1       7.809  27.562   4.693  1.00  0.00     0.135 C 
HETATM   10  C12 UNL     1       7.262  26.621   3.628  1.00  0.00     0.158 C 
HETATM   11  N3  UNL     1       5.935  26.956   3.352  1.00  0.00    -0.357 N 
ATOM     12  H3  UNL     1       5.761  27.877   3.753  1.00  0.00     0.162 HD
HETATM   13  C17 UNL     1       4.774  26.539   2.756  1.00  0.00     0.160 C 
HETATM   14  C18 UNL     1       3.808  25.445   2.883  1.00  0.00     0.066 C 
HETATM   15  N4  UNL     1       2.871  25.500   3.971  1.00  0.00    -0.321 N 
ATOM     16  H4  UNL     1       3.306  25.327   4.878  1.00  0.00     0.169 HD
HETATM   17  C22 UNL     1       1.484  25.740   4.065  1.00  0.00     0.226 C 
HETATM   18  N5  UNL     1       0.699  26.919   3.965  1.00  0.00    -0.277 N 
HETATM   19  C25 UNL     1       0.846  28.121   4.744  1.00  0.00     0.273 C 
HETATM   20  O5  UNL     1       0.972  29.184   4.085  1.00  0.00    -0.266 OA
HETATM   21  C26 UNL     1       0.866  28.277   6.218  1.00  0.00     0.082 C 
HETATM   22  N7  UNL     1       1.497  29.476   6.653  1.00  0.00    -0.333 N 
HETATM   23  C31 UNL     1       0.620  30.706   6.487  1.00  0.00     0.158 C 
HETATM   24  C32 UNL     1       2.738  29.808   7.204  1.00  0.00     0.141 C 
ENDROOT
BRANCH  18  25
HETATM   25  C23 UNL     1      -0.405  26.888   2.967  1.00  0.00     0.163 C 
BRANCH  25  26
HETATM   26  C24 UNL     1       0.130  26.779   1.558  1.00  0.00     0.250 C 
BRANCH  26  27
HETATM   27  N6  UNL     1       1.121  27.837   1.337  1.00  0.00    -0.078 N 
ATOM     28  H63 UNL     1       0.888  28.697   1.833  1.00  0.00     0.274 HD
ATOM     29  H62 UNL     1       2.008  27.640   1.801  1.00  0.00     0.274 HD
ATOM     30  H61 UNL     1       1.232  27.986   0.335  1.00  0.00     0.274 HD
ENDBRANCH  26  27
ENDBRANCH  25  26
ENDBRANCH  18  25
BRANCH  17  31
HETATM   31  O4  UNL     1       0.705  24.691   4.299  1.00  0.00    -0.332 OA
ATOM     32  H4  UNL     1       0.029  24.794   4.958  1.00  0.00     0.221 HD
ENDBRANCH  17  31
BRANCH  21  33
HETATM   33  C27 UNL     1       1.068  27.015   6.975  1.00  0.00     0.067 C 
BRANCH  33  34
HETATM   34  C28 UNL     1      -0.129  26.654   7.825  1.00  0.00    -0.017 C 
HETATM   35  C29 UNL     1      -1.146  26.021   6.876  1.00  0.00     0.010 C 
HETATM   36  C30 UNL     1      -0.776  27.932   8.346  1.00  0.00     0.010 C 
ENDBRANCH  33  34
ENDBRANCH  21  33
BRANCH  14  37
HETATM   37  C19 UNL     1       3.270  24.971   1.556  1.00  0.00     0.032 C 
HETATM   38  C20 UNL     1       4.174  24.924   0.401  1.00  0.00     0.016 C 
HETATM   39  C21 UNL     1       2.599  23.607   1.670  1.00  0.00     0.016 C 
ENDBRANCH  14  37
BRANCH  13  40
HETATM   40  O3  UNL     1       4.373  27.335   1.774  1.00  0.00    -0.345 OA
ATOM     41  H3  UNL     1       4.805  27.159   0.948  1.00  0.00     0.219 HD
ENDBRANCH  13  40
BRANCH  24  42
HETATM   42  O6  UNL     1       2.661  30.556   8.283  1.00  0.00    -0.348 OA
ATOM     43  H6  UNL     1       1.961  30.274   8.860  1.00  0.00     0.219 HD
ENDBRANCH  24  42
BRANCH   1  44
HETATM   44  C4  UNL     1       4.737  30.546   5.913  1.00  0.00     0.033 C 
BRANCH  44  45
HETATM   45  C3  UNL     1       4.326  31.922   6.375  1.00  0.00     0.002 C 
BRANCH  45  46
HETATM   46  C2  UNL     1       4.072  32.833   5.172  1.00  0.00    -0.004 C 
HETATM   47  C1  UNL     1       3.165  32.157   4.200  1.00  0.00     0.005 C 
ENDBRANCH  45  46
ENDBRANCH  44  45
ENDBRANCH   1  44
BRANCH  10  48
HETATM   48  C13 UNL     1       7.805  25.301   3.914  1.00  0.00     0.037 C 
BRANCH  48  49
HETATM   49  C14 UNL     1       7.772  24.211   2.900  1.00  0.00    -0.020 C 
HETATM   50  C15 UNL     1       9.099  23.427   3.104  1.00  0.00     0.009 C 
HETATM   51  C16 UNL     1       7.888  24.771   1.502  1.00  0.00     0.009 C 
ENDBRANCH  48  49
ENDBRANCH  10  48
BRANCH   9  52
HETATM   52  O2  UNL     1       8.427  28.574   4.115  1.00  0.00    -0.348 OA
ATOM     53  H2  UNL     1       8.166  28.782   3.226  1.00  0.00     0.219 HD
ENDBRANCH   9  52
BRANCH   6  54
HETATM   54  C8  UNL     1       7.260  27.095   8.370  1.00  0.00     0.009 C 
HETATM   55  C9  UNL     1       7.919  28.082   9.274  1.00  0.00     0.012 C 
HETATM   56  C10 UNL     1       8.165  25.911   8.114  1.00  0.00     0.012 C 
ENDBRANCH   6  54
TORSDOF 16
ENDMDL
MODEL 2
REMARK VINA RESULT: -5.579515752      2.102      6.390
REMARK  16 active torsions:
REMARK  status: ('A' for Active; 'I' for Inactive)
REMARK    1  A    between atoms: C2_2  and  C3_3 
REMARK    2  A    between atoms: C3_3  and  C4_4 
REMARK    3  A    between atoms: C4_4  and  C5_5 
REMARK    4  A    between atoms: C7_10  and  C8_11 
REMARK    5  A    between atoms: C11_16  and  O2_17 
REMARK    6  A    between atoms: C12_19  and  C13_20 
REMARK    7  A    between atoms: C13_20  and  C14_21 
REMARK    8  A    between atoms: C17_26  and  O3_27 
REMARK    9  A    between atoms: C18_29  and  C19_30 
REMARK   10  A    between atoms: C22_35  and  O4_36 
REMARK   11  A    between atoms: N5_38  and  C23_39 
REMARK   12  A    between atoms: C23_39  and  C24_40 
REMARK   13  A    between atoms: C24_40  and  N6_41 
REMARK   14  A    between atoms: C26_47  and  C27_48 
REMARK   15  A    between atoms: C27_48  and  C28_49 
REMARK   16  A    between atoms: C32_54  and  O6_55 
ROOT
HETATM    1  C5  UNL     1       0.261  26.844   2.706  1.00  0.00     0.159 C 
HETATM    2  N1  UNL     1       1.675  27.073   2.724  1.00  0.00    -0.347 N 
ATOM      3  H1  UNL     1       2.055  27.544   3.545  1.00  0.00     0.163 HD
HETATM    4  C6  UNL     1       2.606  26.703   1.699  1.00  0.00     0.241 C 
HETATM    5  O1  UNL     1       3.504  27.551   1.466  1.00  0.00    -0.271 OA
HETATM    6  C7  UNL     1       2.572  25.465   0.952  1.00  0.00     0.179 C 
HETATM    7  N2  UNL     1       3.416  24.376   1.371  1.00  0.00    -0.359 N 
ATOM      8  H2  UNL     1       3.717  23.806   0.580  1.00  0.00     0.162 HD
HETATM    9  C11 UNL     1       3.918  23.911   2.548  1.00  0.00     0.135 C 
HETATM   10  C12 UNL     1       4.958  24.435   3.528  1.00  0.00     0.158 C 
HETATM   11  N3  UNL     1       4.347  25.311   4.427  1.00  0.00    -0.357 N 
ATOM     12  H3  UNL     1       3.339  25.184   4.343  1.00  0.00     0.162 HD
HETATM   13  C17 UNL     1       4.562  26.274   5.378  1.00  0.00     0.160 C 
HETATM   14  C18 UNL     1       5.169  27.604   5.475  1.00  0.00     0.066 C 
HETATM   15  N4  UNL     1       4.427  28.718   4.953  1.00  0.00    -0.321 N 
ATOM     16  H4  UNL     1       4.384  28.724   3.934  1.00  0.00     0.169 HD
HETATM   17  C22 UNL     1       3.744  29.807   5.537  1.00  0.00     0.226 C 
HETATM   18  N5  UNL     1       2.500  29.915   6.214  1.00  0.00    -0.277 N 
HETATM   19  C25 UNL     1       1.210  29.518   5.714  1.00  0.00     0.273 C 
HETATM   20  O5  UNL     1       0.560  28.733   6.449  1.00  0.00    -0.266 OA
HETATM   21  C26 UNL     1       0.540  29.912   4.451  1.00  0.00     0.082 C 
HETATM   22  N7  UNL     1      -0.469  28.999   4.035  1.00  0.00    -0.333 N 
HETATM   23  C31 UNL     1      -1.763  29.141   4.821  1.00  0.00     0.158 C 
HETATM   24  C32 UNL     1      -0.569  27.993   3.070  1.00  0.00     0.141 C 
ENDROOT
BRANCH  18  25
HETATM   25  C23 UNL     1       2.543  30.530   7.569  1.00  0.00     0.163 C 
BRANCH  25  26
HETATM   26  C24 UNL     1       3.197  29.607   8.571  1.00  0.00     0.250 C 
BRANCH  26  27
HETATM   27  N6  UNL     1       2.247  28.555   8.947  1.00  0.00    -0.078 N 
ATOM     28  H63 UNL     1       1.338  28.932   9.216  1.00  0.00     0.274 HD
ATOM     29  H62 UNL     1       1.942  28.004   8.145  1.00  0.00     0.274 HD
ATOM     30  H61 UNL     1       2.660  27.979   9.680  1.00  0.00     0.274 HD
ENDBRANCH  26  27
ENDBRANCH  25  26
ENDBRANCH  18  25
BRANCH  17  31
HETATM   31  O4  UNL     1       4.331  30.995   5.465  1.00  0.00    -0.332 OA
ATOM     32  H4  UNL     1       3.860  31.681   5.007  1.00  0.00     0.221 HD
ENDBRANCH  17  31
BRANCH  21  33
HETATM   33  C27 UNL     1       1.432  30.542   3.444  1.00  0.00     0.067 C 
BRANCH  33  34
HETATM   34  C28 UNL     1       0.663  31.299   2.385  1.00  0.00    -0.017 C 
HETATM   35  C29 UNL     1       0.986  30.614   1.058  1.00  0.00     0.010 C 
HETATM   36  C30 UNL     1       1.220  32.714   2.278  1.00  0.00     0.010 C 
ENDBRANCH  33  34
ENDBRANCH  21  33
BRANCH  14  37
HETATM   37  C19 UNL     1       5.899  27.831   6.774  1.00  0.00     0.032 C 
HETATM   38  C20 UNL     1       6.482  26.679   7.470  1.00  0.00     0.016 C 
HETATM   39  C21 UNL     1       6.993  28.884   6.634  1.00  0.00     0.016 C 
ENDBRANCH  14  37
BRANCH  13  40
HETATM   40  O3  UNL     1       4.098  25.942   6.575  1.00  0.00    -0.345 OA
ATOM     41  H3  UNL     1       4.149  26.649   7.207  1.00  0.00     0.219 HD
ENDBRANCH  13  40
BRANCH  24  42
HETATM   42  O6  UNL     1      -1.643  28.081   2.316  1.00  0.00    -0.348 OA
ATOM     43  H6  UNL     1      -2.220  28.779   2.601  1.00  0.00     0.219 HD
ENDBRANCH  24  42
BRANCH   1  44
HETATM   44  C4  UNL     1      -0.111  25.575   3.459  1.00  0.00     0.033 C 
BRANCH  44  45
HETATM   45  C3  UNL     1       0.484  25.636   4.844  1.00  0.00     0.002 C 
BRANCH  45  46
HETATM   46  C2  UNL     1      -0.623  25.603   5.900  1.00  0.00    -0.004 C 
HETATM   47  C1  UNL     1      -1.802  24.851   5.382  1.00  0.00     0.005 C 
ENDBRANCH  45  46
ENDBRANCH  44  45
ENDBRANCH   1  44
BRANCH  10  48
HETATM   48  C13 UNL     1       6.181  24.651   2.768  1.00  0.00     0.037 C 
BRANCH  48  49
HETATM   49  C14 UNL     1       6.510  25.983   2.188  1.00  0.00    -0.020 C 
HETATM   50  C15 UNL     1       6.916  25.694   0.715  1.00  0.00     0.009 C 
HETATM   51  C16 UNL     1       7.765  26.546   2.811  1.00  0.00     0.009 C 
ENDBRANCH  48  49
ENDBRANCH  10  48
BRANCH   9  52
HETATM   52  O2  UNL     1       3.438  22.762   2.983  1.00  0.00    -0.348 OA
ATOM     53  H2  UNL     1       4.027  22.221   3.497  1.00  0.00     0.219 HD
ENDBRANCH   9  52
BRANCH   6  54
HETATM   54  C8  UNL     1       2.808  25.770  -0.511  1.00  0.00     0.009 C 
HETATM   55  C9  UNL     1       1.599  26.355  -1.160  1.00  0.00     0.012 C 
HETATM   56  C10 UNL     1       3.293  24.554  -1.267  1.00  0.00     0.012 C 
ENDBRANCH   6  54
TORSDOF 16
ENDMDL
MODEL 3
REMARK VINA RESULT: -5.471240601      2.168      7.164
REMARK  16 active torsions:
REMARK  status: ('A' for Active; 'I' for Inactive)
REMARK    1  A    between atoms: C2_2  and  C3_3 
REMARK    2  A    between atoms: C3_3  and  C4_4 
REMARK    3  A    between atoms: C4_4  and  C5_5 
REMARK    4  A    between atoms: C7_10  and  C8_11 
REMARK    5  A    between atoms: C11_16  and  O2_17 
REMARK    6  A    between atoms: C12_19  and  C13_20 
REMARK    7  A    between atoms: C13_20  and  C14_21 
REMARK    8  A    between atoms: C17_26  and  O3_27 
REMARK    9  A    between atoms: C18_29  and  C19_30 
REMARK   10  A    between atoms: C22_35  and  O4_36 
REMARK   11  A    between atoms: N5_38  and  C23_39 
REMARK   12  A    between atoms: C23_39  and  C24_40 
REMARK   13  A    between atoms: C24_40  and  N6_41 
REMARK   14  A    between atoms: C26_47  and  C27_48 
REMARK   15  A    between atoms: C27_48  and  C28_49 
REMARK   16  A    between atoms: C32_54  and  O6_55 
ROOT
HETATM    1  C5  UNL     1       6.647  27.974   6.419  1.00  0.00     0.159 C 
HETATM    2  N1  UNL     1       5.639  27.746   5.428  1.00  0.00    -0.347 N 
ATOM      3  H1  UNL     1       5.768  26.940   4.816  1.00  0.00     0.163 HD
HETATM    4  C6  UNL     1       4.465  28.541   5.215  1.00  0.00     0.241 C 
HETATM    5  O1  UNL     1       4.161  28.726   4.010  1.00  0.00    -0.271 OA
HETATM    6  C7  UNL     1       3.649  29.116   6.262  1.00  0.00     0.179 C 
HETATM    7  N2  UNL     1       2.456  28.421   6.674  1.00  0.00    -0.359 N 
ATOM      8  H2  UNL     1       1.729  29.068   6.982  1.00  0.00     0.162 HD
HETATM    9  C11 UNL     1       2.047  27.126   6.761  1.00  0.00     0.135 C 
HETATM   10  C12 UNL     1       1.708  26.060   5.728  1.00  0.00     0.158 C 
HETATM   11  N3  UNL     1       2.876  25.399   5.344  1.00  0.00    -0.357 N 
ATOM     12  H3  UNL     1       3.600  25.636   6.022  1.00  0.00     0.162 HD
HETATM   13  C17 UNL     1       3.438  24.558   4.420  1.00  0.00     0.160 C 
HETATM   14  C18 UNL     1       3.705  24.534   2.979  1.00  0.00     0.066 C 
HETATM   15  N4  UNL     1       4.807  25.314   2.489  1.00  0.00    -0.321 N 
ATOM     16  H4  UNL     1       4.627  26.318   2.519  1.00  0.00     0.169 HD
HETATM   17  C22 UNL     1       6.084  25.001   1.974  1.00  0.00     0.226 C 
HETATM   18  N5  UNL     1       7.290  24.566   2.583  1.00  0.00    -0.277 N 
HETATM   19  C25 UNL     1       8.003  25.222   3.648  1.00  0.00     0.273 C 
HETATM   20  O5  UNL     1       8.250  24.513   4.655  1.00  0.00    -0.266 OA
HETATM   21  C26 UNL     1       8.490  26.621   3.717  1.00  0.00     0.082 C 
HETATM   22  N7  UNL     1       8.710  27.080   5.046  1.00  0.00    -0.333 N 
HETATM   23  C31 UNL     1       9.998  26.551   5.655  1.00  0.00     0.158 C 
HETATM   24  C32 UNL     1       8.028  27.909   5.941  1.00  0.00     0.141 C 
ENDROOT
BRANCH  18  25
HETATM   25  C23 UNL     1       7.884  23.315   2.038  1.00  0.00     0.163 C 
BRANCH  25  26
HETATM   26  C24 UNL     1       9.356  23.488   1.742  1.00  0.00     0.250 C 
BRANCH  26  27
HETATM   27  N6  UNL     1      10.134  22.666   2.675  1.00  0.00    -0.078 N 
ATOM     28  H63 UNL     1       9.549  22.012   3.196  1.00  0.00     0.274 HD
ATOM     29  H62 UNL     1      10.719  21.983   2.194  1.00  0.00     0.274 HD
ATOM     30  H61 UNL     1      10.674  23.276   3.288  1.00  0.00     0.274 HD
ENDBRANCH  26  27
ENDBRANCH  25  26
ENDBRANCH  18  25
BRANCH  17  31
HETATM   31  O4  UNL     1       6.252  25.126   0.663  1.00  0.00    -0.332 OA
ATOM     32  H4  UNL     1       6.704  24.419   0.218  1.00  0.00     0.221 HD
ENDBRANCH  17  31
BRANCH  21  33
HETATM   33  C27 UNL     1       7.905  27.534   2.703  1.00  0.00     0.067 C 
BRANCH  33  34
HETATM   34  C28 UNL     1       8.748  27.623   1.451  1.00  0.00    -0.017 C 
HETATM   35  C29 UNL     1       9.246  29.066   1.379  1.00  0.00     0.010 C 
HETATM   36  C30 UNL     1       7.855  27.423   0.232  1.00  0.00     0.010 C 
ENDBRANCH  33  34
ENDBRANCH  21  33
BRANCH  14  37
HETATM   37  C19 UNL     1       3.520  23.170   2.364  1.00  0.00     0.032 C 
HETATM   38  C20 UNL     1       2.658  22.197   3.044  1.00  0.00     0.016 C 
HETATM   39  C21 UNL     1       3.058  23.258   0.913  1.00  0.00     0.016 C 
ENDBRANCH  14  37
BRANCH  13  40
HETATM   40  O3  UNL     1       3.885  23.425   4.944  1.00  0.00    -0.345 OA
ATOM     41  H3  UNL     1       3.430  22.656   4.620  1.00  0.00     0.219 HD
ENDBRANCH  13  40
BRANCH  24  42
HETATM   42  O6  UNL     1       8.780  28.839   6.486  1.00  0.00    -0.348 OA
ATOM     43  H6  UNL     1       9.519  29.066   5.934  1.00  0.00     0.219 HD
ENDBRANCH  24  42
BRANCH   1  44
HETATM   44  C4  UNL     1       6.406  27.138   7.668  1.00  0.00     0.033 C 
BRANCH  44  45
HETATM   45  C3  UNL     1       7.659  27.144   8.509  1.00  0.00     0.002 C 
BRANCH  45  46
HETATM   46  C2  UNL     1       8.113  25.712   8.797  1.00  0.00    -0.004 C 
HETATM   47  C1  UNL     1       9.502  25.715   9.340  1.00  0.00     0.005 C 
ENDBRANCH  45  46
ENDBRANCH  44  45
ENDBRANCH   1  44
BRANCH  10  48
HETATM   48  C13 UNL     1       0.680  26.622   4.864  1.00  0.00     0.037 C 
BRANCH  48  49
HETATM   49  C14 UNL     1      -0.561  25.865   4.539  1.00  0.00    -0.020 C 
HETATM   50  C15 UNL     1      -1.093  25.351   5.905  1.00  0.00     0.009 C 
HETATM   51  C16 UNL     1      -0.238  24.605   3.772  1.00  0.00     0.009 C 
ENDBRANCH  48  49
ENDBRANCH  10  48
BRANCH   9  52
HETATM   52  O2  UNL     1       1.891  26.633   7.974  1.00  0.00    -0.348 OA
ATOM     53  H2  UNL     1       1.352  25.854   8.053  1.00  0.00     0.219 HD
ENDBRANCH   9  52
BRANCH   6  54
HETATM   54  C8  UNL     1       3.314  30.544   5.892  1.00  0.00     0.009 C 
HETATM   55  C9  UNL     1       4.387  31.493   6.308  1.00  0.00     0.012 C 
HETATM   56  C10 UNL     1       1.973  30.969   6.446  1.00  0.00     0.012 C 
ENDBRANCH   6  54
TORSDOF 16
ENDMDL
MODEL 4
REMARK VINA RESULT: -5.371797370      2.206      6.471
REMARK  16 active torsions:
REMARK  status: ('A' for Active; 'I' for Inactive)
REMARK    1  A    between atoms: C2_2  and  C3_3 
REMARK    2  A    between atoms: C3_3  and  C4_4 
REMARK    3  A    between atoms: C4_4  and  C5_5 
REMARK    4  A    between atoms: C7_10  and  C8_11 
REMARK    5  A    between atoms: C11_16  and  O2_17 
REMARK    6  A    between atoms: C12_19  and  C13_20 
REMARK    7  A    between atoms: C13_20  and  C14_21 
REMARK    8  A    between atoms: C17_26  and  O3_27 
REMARK    9  A    between atoms: C18_29  and  C19_30 
REMARK   10  A    between atoms: C22_35  and  O4_36 
REMARK   11  A    between atoms: N5_38  and  C23_39 
REMARK   12  A    between atoms: C23_39  and  C24_40 
REMARK   13  A    between atoms: C24_40  and  N6_41 
REMARK   14  A    between atoms: C26_47  and  C27_48 
REMARK   15  A    between atoms: C27_48  and  C28_49 
REMARK   16  A    between atoms: C32_54  and  O6_55 
ROOT
HETATM    1  C5  UNL     1       3.672  24.970   3.451  1.00  0.00     0.159 C 
HETATM    2  N1  UNL     1       4.796  25.856   3.506  1.00  0.00    -0.347 N 
ATOM      3  H1  UNL     1       4.894  26.425   4.347  1.00  0.00     0.163 HD
HETATM    4  C6  UNL     1       5.797  26.018   2.493  1.00  0.00     0.241 C 
HETATM    5  O1  UNL     1       6.171  27.202   2.301  1.00  0.00    -0.271 OA
HETATM    6  C7  UNL     1       6.374  24.944   1.714  1.00  0.00     0.179 C 
HETATM    7  N2  UNL     1       7.638  24.389   2.124  1.00  0.00    -0.359 N 
ATOM      8  H2  UNL     1       8.184  24.062   1.326  1.00  0.00     0.162 HD
HETATM    9  C11 UNL     1       8.294  24.187   3.300  1.00  0.00     0.135 C 
HETATM   10  C12 UNL     1       8.942  25.118   4.315  1.00  0.00     0.158 C 
HETATM   11  N3  UNL     1       7.976  25.558   5.223  1.00  0.00    -0.357 N 
ATOM     12  H3  UNL     1       7.157  24.960   5.113  1.00  0.00     0.162 HD
HETATM   13  C17 UNL     1       7.690  26.472   6.202  1.00  0.00     0.160 C 
HETATM   14  C18 UNL     1       7.573  27.926   6.345  1.00  0.00     0.066 C 
HETATM   15  N4  UNL     1       6.387  28.556   5.836  1.00  0.00    -0.321 N 
ATOM     16  H4  UNL     1       6.354  28.573   4.816  1.00  0.00     0.169 HD
HETATM   17  C22 UNL     1       5.257  29.156   6.431  1.00  0.00     0.226 C 
HETATM   18  N5  UNL     1       4.112  28.625   7.083  1.00  0.00    -0.277 N 
HETATM   19  C25 UNL     1       3.181  27.668   6.545  1.00  0.00     0.273 C 
HETATM   20  O5  UNL     1       2.990  26.643   7.246  1.00  0.00    -0.266 OA
HETATM   21  C26 UNL     1       2.413  27.729   5.278  1.00  0.00     0.082 C 
HETATM   22  N7  UNL     1       1.978  26.454   4.817  1.00  0.00    -0.333 N 
HETATM   23  C31 UNL     1       0.773  25.925   5.577  1.00  0.00     0.158 C 
HETATM   24  C32 UNL     1       2.386  25.559   3.825  1.00  0.00     0.141 C 
ENDROOT
BRANCH  18  25
HETATM   25  C23 UNL     1       3.842  29.139   8.454  1.00  0.00     0.163 C 
BRANCH  25  26
HETATM   26  C24 UNL     1       2.404  29.576   8.604  1.00  0.00     0.250 C 
BRANCH  26  27
HETATM   27  N6  UNL     1       1.671  28.563   9.371  1.00  0.00    -0.078 N 
ATOM     28  H63 UNL     1       0.760  28.897   9.685  1.00  0.00     0.274 HD
ATOM     29  H62 UNL     1       1.348  27.793   8.786  1.00  0.00     0.274 HD
ATOM     30  H61 UNL     1       2.255  28.244  10.145  1.00  0.00     0.274 HD
ENDBRANCH  26  27
ENDBRANCH  25  26
ENDBRANCH  18  25
BRANCH  17  31
HETATM   31  O4  UNL     1       5.193  30.481   6.403  1.00  0.00    -0.332 OA
ATOM     32  H4  UNL     1       6.000  30.947   6.215  1.00  0.00     0.221 HD
ENDBRANCH  17  31
BRANCH  21  33
HETATM   33  C27 UNL     1       2.894  28.745   4.308  1.00  0.00     0.067 C 
BRANCH  33  34
HETATM   34  C28 UNL     1       1.858  29.809   4.026  1.00  0.00    -0.017 C 
HETATM   35  C29 UNL     1       2.553  31.149   4.266  1.00  0.00     0.010 C 
HETATM   36  C30 UNL     1       0.748  29.715   5.067  1.00  0.00     0.010 C 
ENDBRANCH  33  34
ENDBRANCH  21  33
BRANCH  14  37
HETATM   37  C19 UNL     1       8.092  28.436   7.666  1.00  0.00     0.032 C 
HETATM   38  C20 UNL     1       7.465  27.962   8.905  1.00  0.00     0.016 C 
HETATM   39  C21 UNL     1       9.596  28.227   7.804  1.00  0.00     0.016 C 
ENDBRANCH  14  37
BRANCH  13  40
HETATM   40  O3  UNL     1       7.437  25.917   7.380  1.00  0.00    -0.345 OA
ATOM     41  H3  UNL     1       6.509  25.841   7.567  1.00  0.00     0.219 HD
ENDBRANCH  13  40
BRANCH  24  42
HETATM   42  O6  UNL     1       1.410  25.139   3.050  1.00  0.00    -0.348 OA
ATOM     43  H6  UNL     1       1.095  25.825   2.474  1.00  0.00     0.219 HD
ENDBRANCH  24  42
BRANCH   1  44
HETATM   44  C4  UNL     1       3.958  23.656   4.162  1.00  0.00     0.033 C 
BRANCH  44  45
HETATM   45  C3  UNL     1       3.541  22.515   3.267  1.00  0.00     0.002 C 
BRANCH  45  46
HETATM   46  C2  UNL     1       3.691  21.181   4.001  1.00  0.00    -0.004 C 
HETATM   47  C1  UNL     1       2.916  20.119   3.297  1.00  0.00     0.005 C 
ENDBRANCH  45  46
ENDBRANCH  44  45
ENDBRANCH   1  44
BRANCH  10  48
HETATM   48  C13 UNL     1       9.911  25.925   3.588  1.00  0.00     0.037 C 
BRANCH  48  49
HETATM   49  C14 UNL     1      11.313  25.464   3.389  1.00  0.00    -0.020 C 
HETATM   50  C15 UNL     1      11.279  24.617   2.086  1.00  0.00     0.009 C 
HETATM   51  C16 UNL     1      11.714  24.478   4.459  1.00  0.00     0.009 C 
ENDBRANCH  48  49
ENDBRANCH  10  48
BRANCH   9  52
HETATM   52  O2  UNL     1       8.430  22.936   3.695  1.00  0.00    -0.348 OA
ATOM     53  H2  UNL     1       8.195  22.745   4.596  1.00  0.00     0.219 HD
ENDBRANCH   9  52
BRANCH   6  54
HETATM   54  C8  UNL     1       6.443  25.373   0.265  1.00  0.00     0.009 C 
HETATM   55  C9  UNL     1       7.479  26.423   0.044  1.00  0.00     0.012 C 
HETATM   56  C10 UNL     1       5.096  25.827  -0.252  1.00  0.00     0.012 C 
ENDBRANCH   6  54
TORSDOF 16
ENDMDL
MODEL 5
REMARK VINA RESULT: -5.351487765      2.090      4.937
REMARK  16 active torsions:
REMARK  status: ('A' for Active; 'I' for Inactive)
REMARK    1  A    between atoms: C2_2  and  C3_3 
REMARK    2  A    between atoms: C3_3  and  C4_4 
REMARK    3  A    between atoms: C4_4  and  C5_5 
REMARK    4  A    between atoms: C7_10  and  C8_11 
REMARK    5  A    between atoms: C11_16  and  O2_17 
REMARK    6  A    between atoms: C12_19  and  C13_20 
REMARK    7  A    between atoms: C13_20  and  C14_21 
REMARK    8  A    between atoms: C17_26  and  O3_27 
REMARK    9  A    between atoms: C18_29  and  C19_30 
REMARK   10  A    between atoms: C22_35  and  O4_36 
REMARK   11  A    between atoms: N5_38  and  C23_39 
REMARK   12  A    between atoms: C23_39  and  C24_40 
REMARK   13  A    between atoms: C24_40  and  N6_41 
REMARK   14  A    between atoms: C26_47  and  C27_48 
REMARK   15  A    between atoms: C27_48  and  C28_49 
REMARK   16  A    between atoms: C32_54  and  O6_55 
ROOT
HETATM    1  C5  UNL     1       0.942  29.000   3.650  1.00  0.00     0.159 C 
HETATM    2  N1  UNL     1       1.836  27.999   4.148  1.00  0.00    -0.347 N 
ATOM      3  H1  UNL     1       2.367  27.469   3.457  1.00  0.00     0.163 HD
HETATM    4  C6  UNL     1       2.056  27.669   5.526  1.00  0.00     0.241 C 
HETATM    5  O1  UNL     1       2.179  26.442   5.766  1.00  0.00    -0.271 OA
HETATM    6  C7  UNL     1       2.141  28.627   6.607  1.00  0.00     0.179 C 
HETATM    7  N2  UNL     1       3.441  29.059   7.053  1.00  0.00    -0.359 N 
ATOM      8  H2  UNL     1       3.445  29.278   8.050  1.00  0.00     0.162 HD
HETATM    9  C11 UNL     1       4.666  29.250   6.490  1.00  0.00     0.135 C 
HETATM   10  C12 UNL     1       5.723  28.309   5.930  1.00  0.00     0.158 C 
HETATM   11  N3  UNL     1       5.434  28.032   4.592  1.00  0.00    -0.357 N 
ATOM     12  H3  UNL     1       4.740  28.711   4.282  1.00  0.00     0.162 HD
HETATM   13  C17 UNL     1       5.712  27.210   3.532  1.00  0.00     0.160 C 
HETATM   14  C18 UNL     1       5.611  25.789   3.189  1.00  0.00     0.066 C 
HETATM   15  N4  UNL     1       4.314  25.269   2.860  1.00  0.00    -0.321 N 
ATOM     16  H4  UNL     1       3.697  25.199   3.670  1.00  0.00     0.169 HD
HETATM   17  C22 UNL     1       3.701  24.833   1.666  1.00  0.00     0.226 C 
HETATM   18  N5  UNL     1       3.177  25.524   0.541  1.00  0.00    -0.277 N 
HETATM   19  C25 UNL     1       2.166  26.549   0.554  1.00  0.00     0.273 C 
HETATM   20  O5  UNL     1       2.476  27.626  -0.013  1.00  0.00    -0.266 OA
HETATM   21  C26 UNL     1       0.805  26.505   1.143  1.00  0.00     0.082 C 
HETATM   22  N7  UNL     1       0.261  27.793   1.410  1.00  0.00    -0.333 N 
HETATM   23  C31 UNL     1      -0.250  28.495   0.162  1.00  0.00     0.158 C 
HETATM   24  C32 UNL     1       0.075  28.581   2.548  1.00  0.00     0.141 C 
ENDROOT
BRANCH  18  25
HETATM   25  C23 UNL     1       3.717  25.120  -0.786  1.00  0.00     0.163 C 
BRANCH  25  26
HETATM   26  C24 UNL     1       2.644  24.502  -1.652  1.00  0.00     0.250 C 
BRANCH  26  27
HETATM   27  N6  UNL     1       2.523  23.078  -1.323  1.00  0.00    -0.078 N 
ATOM     28  H63 UNL     1       3.401  22.680  -0.990  1.00  0.00     0.274 HD
ATOM     29  H62 UNL     1       1.966  22.920  -0.483  1.00  0.00     0.274 HD
ATOM     30  H61 UNL     1       2.153  22.579  -2.132  1.00  0.00     0.274 HD
ENDBRANCH  26  27
ENDBRANCH  25  26
ENDBRANCH  18  25
BRANCH  17  31
HETATM   31  O4  UNL     1       3.553  23.524   1.508  1.00  0.00    -0.332 OA
ATOM     32  H4  UNL     1       2.953  23.236   0.830  1.00  0.00     0.221 HD
ENDBRANCH  17  31
BRANCH  21  33
HETATM   33  C27 UNL     1       0.575  25.390   2.096  1.00  0.00     0.067 C 
BRANCH  33  34
HETATM   34  C28 UNL     1      -0.034  24.177   1.430  1.00  0.00    -0.017 C 
HETATM   35  C29 UNL     1      -1.533  24.457   1.331  1.00  0.00     0.010 C 
HETATM   36  C30 UNL     1       0.112  22.973   2.353  1.00  0.00     0.010 C 
ENDBRANCH  33  34
ENDBRANCH  21  33
BRANCH  14  37
HETATM   37  C19 UNL     1       6.765  25.297   2.353  1.00  0.00     0.032 C 
HETATM   38  C20 UNL     1       6.961  25.862   1.013  1.00  0.00     0.016 C 
HETATM   39  C21 UNL     1       8.093  25.408   3.095  1.00  0.00     0.016 C 
ENDBRANCH  14  37
BRANCH  13  40
HETATM   40  O3  UNL     1       6.218  27.854   2.488  1.00  0.00    -0.345 OA
ATOM     41  H3  UNL     1       6.265  27.320   1.704  1.00  0.00     0.219 HD
ENDBRANCH  13  40
BRANCH  24  42
HETATM   42  O6  UNL     1      -1.141  29.065   2.670  1.00  0.00    -0.348 OA
ATOM     43  H6  UNL     1      -1.593  29.102   1.835  1.00  0.00     0.219 HD
ENDBRANCH  24  42
BRANCH   1  44
HETATM   44  C4  UNL     1       1.665  30.312   3.377  1.00  0.00     0.033 C 
BRANCH  44  45
HETATM   45  C3  UNL     1       1.076  31.386   4.258  1.00  0.00     0.002 C 
BRANCH  45  46
HETATM   46  C2  UNL     1       2.173  32.046   5.097  1.00  0.00    -0.004 C 
HETATM   47  C1  UNL     1       1.685  32.278   6.486  1.00  0.00     0.005 C 
ENDBRANCH  45  46
ENDBRANCH  44  45
ENDBRANCH   1  44
BRANCH  10  48
HETATM   48  C13 UNL     1       6.045  27.360   6.986  1.00  0.00     0.037 C 
BRANCH  48  49
HETATM   49  C14 UNL     1       7.102  27.647   7.994  1.00  0.00    -0.020 C 
HETATM   50  C15 UNL     1       8.206  28.417   7.217  1.00  0.00     0.009 C 
HETATM   51  C16 UNL     1       7.784  26.375   8.438  1.00  0.00     0.009 C 
ENDBRANCH  48  49
ENDBRANCH  10  48
BRANCH   9  52
HETATM   52  O2  UNL     1       5.080  30.497   6.383  1.00  0.00    -0.348 OA
ATOM     53  H2  UNL     1       5.676  30.689   5.668  1.00  0.00     0.219 HD
ENDBRANCH   9  52
BRANCH   6  54
HETATM   54  C8  UNL     1       1.336  28.114   7.779  1.00  0.00     0.009 C 
HETATM   55  C9  UNL     1      -0.123  28.379   7.611  1.00  0.00     0.012 C 
HETATM   56  C10 UNL     1       1.837  28.671   9.093  1.00  0.00     0.012 C 
ENDBRANCH   6  54
TORSDOF 16
ENDMDL
