MODEL 1
REMARK VINA RESULT: -6.045349643      0.000      0.000
REMARK  12 active torsions:
REMARK  status: ('A' for Active; 'I' for Inactive)
REMARK    1  A    between atoms: C2_2  and  C3_3 
REMARK    2  A    between atoms: C3_3  and  C4_4 
REMARK    3  A    between atoms: C6_9  and  C7_10 
REMARK    4  A    between atoms: C7_10  and  C8_11 
REMARK    5  A    between atoms: C12_18  and  C13_19 
REMARK    6  A    between atoms: C13_19  and  C14_20 
REMARK    7  A    between atoms: C18_27  and  C19_28 
REMARK    8  A    between atoms: C19_28  and  C20_29 
REMARK    9  A    between atoms: C26_36  and  O5_37 
REMARK   10  A    between atoms: C27_41  and  C28_42 
REMARK   11  A    between atoms: C28_42  and  C29_43 
REMARK   12  A    between atoms: C30_46  and  O7_47 
ROOT
HETATM    1  C4  UNL     1       6.710  25.821   2.417  1.00  0.00     0.178 C 
HETATM    2  C5  UNL     1       6.553  25.553   0.963  1.00  0.00     0.241 C 
HETATM    3  O1  UNL     1       7.341  26.204   0.222  1.00  0.00    -0.271 OA
HETATM    4  N1  UNL     1       5.666  24.686   0.332  1.00  0.00    -0.346 N 
ATOM      5  H1  UNL     1       6.146  23.970  -0.214  1.00  0.00     0.163 HD
HETATM    6  C6  UNL     1       4.245  24.560   0.266  1.00  0.00     0.177 C 
HETATM    7  C11 UNL     1       3.441  25.642   0.855  1.00  0.00     0.244 C 
HETATM    8  O2  UNL     1       3.917  26.805   0.523  1.00  0.00    -0.271 OA
HETATM    9  N2  UNL     1       2.319  25.701   1.652  1.00  0.00    -0.324 N 
ATOM     10  H2  UNL     1       1.484  25.824   1.080  1.00  0.00     0.169 HD
HETATM   11  C12 UNL     1       1.970  25.643   3.037  1.00  0.00     0.080 C 
HETATM   12  C17 UNL     1       1.213  26.904   3.399  1.00  0.00     0.264 C 
HETATM   13  O3  UNL     1       0.069  26.954   2.849  1.00  0.00    -0.266 OA
HETATM   14  N3  UNL     1       1.603  27.962   4.214  1.00  0.00    -0.344 N 
ATOM     15  H3  UNL     1       1.660  28.855   3.724  1.00  0.00     0.163 HD
HETATM   16  C18 UNL     1       1.939  28.049   5.596  1.00  0.00     0.155 C 
HETATM   17  C23 UNL     1       3.456  28.310   5.709  1.00  0.00     0.161 C 
HETATM   18  O4  UNL     1       3.983  28.829   4.743  1.00  0.00    -0.295 OA
HETATM   19  C24 UNL     1       4.222  27.960   6.893  1.00  0.00     0.128 C 
HETATM   20  C25 UNL     1       4.423  29.181   7.754  1.00  0.00     0.027 C 
HETATM   21  C26 UNL     1       5.410  27.094   6.752  1.00  0.00     0.127 C 
HETATM   22  N4  UNL     1       6.369  26.809   5.803  1.00  0.00    -0.339 N 
ATOM     23  H4  UNL     1       6.021  26.078   5.183  1.00  0.00     0.167 HD
HETATM   24  C27 UNL     1       7.678  27.187   5.394  1.00  0.00     0.070 C 
HETATM   25  C30 UNL     1       7.909  27.436   3.957  1.00  0.00     0.162 C 
HETATM   26  N6  UNL     1       7.241  27.096   2.782  1.00  0.00    -0.351 N 
HETATM   27  C31 UNL     1       7.118  28.199   1.830  1.00  0.00     0.152 C 
ENDROOT
BRANCH   6  28
HETATM   28  C7  UNL     1       3.732  24.466  -1.162  1.00  0.00     0.038 C 
BRANCH  28  29
HETATM   29  C8  UNL     1       2.481  23.803  -1.459  1.00  0.00    -0.020 C 
HETATM   30  C9  UNL     1       2.192  22.544  -0.673  1.00  0.00     0.009 C 
HETATM   31  C10 UNL     1       2.074  23.742  -2.903  1.00  0.00     0.009 C 
ENDBRANCH  28  29
ENDBRANCH   6  28
BRANCH   1  32
HETATM   32  C3  UNL     1       7.601  24.670   2.890  1.00  0.00     0.035 C 
BRANCH  32  33
HETATM   33  C2  UNL     1       8.913  24.613   2.220  1.00  0.00    -0.002 C 
HETATM   34  C1  UNL     1       9.292  23.176   1.934  1.00  0.00     0.005 C 
ENDBRANCH  32  33
ENDBRANCH   1  32
BRANCH  11  35
HETATM   35  C13 UNL     1       2.878  25.144   4.054  1.00  0.00     0.067 C 
BRANCH  35  36
HETATM   36  C14 UNL     1       2.953  23.643   4.225  1.00  0.00    -0.017 C 
HETATM   37  C15 UNL     1       4.321  23.181   3.703  1.00  0.00     0.010 C 
HETATM   38  C16 UNL     1       1.967  23.011   3.204  1.00  0.00     0.010 C 
ENDBRANCH  35  36
ENDBRANCH  11  35
BRANCH  25  39
HETATM   39  O7  UNL     1       8.991  28.135   3.745  1.00  0.00    -0.345 OA
ATOM     40  H7  UNL     1       9.361  27.974   2.884  1.00  0.00     0.219 HD
ENDBRANCH  25  39
BRANCH  24  41
HETATM   41  C28 UNL     1       8.419  28.221   6.177  1.00  0.00     0.161 C 
BRANCH  41  42
HETATM   42  C29 UNL     1       8.891  27.904   7.505  1.00  0.00     0.236 C 
HETATM   43  N5  UNL     1       8.611  26.783   8.308  1.00  0.00    -0.062 NA
HETATM   44  O6  UNL     1       9.682  28.754   8.052  1.00  0.00    -0.277 OA
ENDBRANCH  41  42
ENDBRANCH  24  41
BRANCH  16  45
HETATM   45  C19 UNL     1       1.344  29.147   6.410  1.00  0.00     0.037 C 
BRANCH  45  46
HETATM   46  C20 UNL     1       0.375  28.722   7.450  1.00  0.00    -0.020 C 
HETATM   47  C21 UNL     1       0.387  27.152   7.502  1.00  0.00     0.009 C 
HETATM   48  C22 UNL     1       0.812  29.109   8.843  1.00  0.00     0.009 C 
ENDBRANCH  45  46
ENDBRANCH  16  45
BRANCH  21  49
HETATM   49  O5  UNL     1       5.551  26.406   7.891  1.00  0.00    -0.349 OA
ATOM     50  H5  UNL     1       5.788  25.515   7.663  1.00  0.00     0.219 HD
ENDBRANCH  21  49
TORSDOF 12
ENDMDL
MODEL 2
REMARK VINA RESULT: -5.986338084      2.194      8.168
REMARK  12 active torsions:
REMARK  status: ('A' for Active; 'I' for Inactive)
REMARK    1  A    between atoms: C2_2  and  C3_3 
REMARK    2  A    between atoms: C3_3  and  C4_4 
REMARK    3  A    between atoms: C6_9  and  C7_10 
REMARK    4  A    between atoms: C7_10  and  C8_11 
REMARK    5  A    between atoms: C12_18  and  C13_19 
REMARK    6  A    between atoms: C13_19  and  C14_20 
REMARK    7  A    between atoms: C18_27  and  C19_28 
REMARK    8  A    between atoms: C19_28  and  C20_29 
REMARK    9  A    between atoms: C26_36  and  O5_37 
REMARK   10  A    between atoms: C27_41  and  C28_42 
REMARK   11  A    between atoms: C28_42  and  C29_43 
REMARK   12  A    between atoms: C30_46  and  O7_47 
ROOT
HETATM    1  C4  UNL     1       2.501  28.677   6.383  1.00  0.00     0.178 C 
HETATM    2  C5  UNL     1       3.635  29.040   7.272  1.00  0.00     0.241 C 
HETATM    3  O1  UNL     1       3.724  30.272   7.533  1.00  0.00    -0.271 OA
HETATM    4  N1  UNL     1       4.588  28.204   7.846  1.00  0.00    -0.346 N 
ATOM      5  H1  UNL     1       4.578  28.246   8.866  1.00  0.00     0.163 HD
HETATM    6  C6  UNL     1       5.578  27.302   7.349  1.00  0.00     0.177 C 
HETATM    7  C11 UNL     1       5.820  27.296   5.897  1.00  0.00     0.244 C 
HETATM    8  O2  UNL     1       5.881  28.508   5.433  1.00  0.00    -0.271 OA
HETATM    9  N2  UNL     1       6.000  26.319   4.943  1.00  0.00    -0.324 N 
ATOM     10  H2  UNL     1       6.994  26.156   4.786  1.00  0.00     0.169 HD
HETATM   11  C12 UNL     1       5.218  25.466   4.104  1.00  0.00     0.080 C 
HETATM   12  C17 UNL     1       5.615  25.707   2.663  1.00  0.00     0.264 C 
HETATM   13  O3  UNL     1       6.792  25.301   2.413  1.00  0.00    -0.266 OA
HETATM   14  N3  UNL     1       4.884  26.296   1.634  1.00  0.00    -0.344 N 
ATOM     15  H3  UNL     1       5.311  27.146   1.267  1.00  0.00     0.163 HD
HETATM   16  C18 UNL     1       3.660  25.950   0.993  1.00  0.00     0.155 C 
HETATM   17  C23 UNL     1       2.588  26.979   1.410  1.00  0.00     0.161 C 
HETATM   18  O4  UNL     1       3.000  28.064   1.771  1.00  0.00    -0.295 OA
HETATM   19  C24 UNL     1       1.166  26.680   1.380  1.00  0.00     0.128 C 
HETATM   20  C25 UNL     1       0.550  27.246   0.126  1.00  0.00     0.027 C 
HETATM   21  C26 UNL     1       0.366  26.865   2.607  1.00  0.00     0.127 C 
HETATM   22  N4  UNL     1       0.378  27.659   3.734  1.00  0.00    -0.339 N 
ATOM     23  H4  UNL     1       0.977  27.230   4.440  1.00  0.00     0.167 HD
HETATM   24  C27 UNL     1      -0.159  28.872   4.249  1.00  0.00     0.070 C 
HETATM   25  C30 UNL     1       0.764  29.806   4.924  1.00  0.00     0.162 C 
HETATM   26  N6  UNL     1       2.030  29.693   5.495  1.00  0.00    -0.351 N 
HETATM   27  C31 UNL     1       2.940  30.780   5.138  1.00  0.00     0.152 C 
ENDROOT
BRANCH   6  28
HETATM   28  C7  UNL     1       6.953  27.559   7.942  1.00  0.00     0.038 C 
BRANCH  28  29
HETATM   29  C8  UNL     1       8.033  26.614   7.750  1.00  0.00    -0.020 C 
HETATM   30  C9  UNL     1       8.187  25.555   8.817  1.00  0.00     0.009 C 
HETATM   31  C10 UNL     1       9.328  27.164   7.227  1.00  0.00     0.009 C 
ENDBRANCH  28  29
ENDBRANCH   6  28
BRANCH   1  32
HETATM   32  C3  UNL     1       1.418  28.224   7.364  1.00  0.00     0.035 C 
BRANCH  32  33
HETATM   33  C2  UNL     1       1.128  26.779   7.312  1.00  0.00    -0.002 C 
HETATM   34  C1  UNL     1      -0.363  26.550   7.192  1.00  0.00     0.005 C 
ENDBRANCH  32  33
ENDBRANCH   1  32
BRANCH  11  35
HETATM   35  C13 UNL     1       3.804  25.225   4.333  1.00  0.00     0.067 C 
BRANCH  35  36
HETATM   36  C14 UNL     1       3.366  23.781   4.434  1.00  0.00    -0.017 C 
HETATM   37  C15 UNL     1       4.432  22.919   3.743  1.00  0.00     0.010 C 
HETATM   38  C16 UNL     1       2.131  23.605   3.507  1.00  0.00     0.010 C 
ENDBRANCH  35  36
ENDBRANCH  11  35
BRANCH  25  39
HETATM   39  O7  UNL     1       0.274  31.013   5.001  1.00  0.00    -0.345 OA
ATOM     40  H7  UNL     1       0.410  31.402   5.858  1.00  0.00     0.219 HD
ENDBRANCH  25  39
BRANCH  24  41
HETATM   41  C28 UNL     1      -1.105  29.667   3.409  1.00  0.00     0.161 C 
BRANCH  41  42
HETATM   42  C29 UNL     1      -2.474  29.226   3.270  1.00  0.00     0.236 C 
HETATM   43  N5  UNL     1      -3.600  29.940   2.819  1.00  0.00    -0.062 NA
HETATM   44  O6  UNL     1      -2.723  28.011   3.600  1.00  0.00    -0.277 OA
ENDBRANCH  41  42
ENDBRANCH  24  41
BRANCH  16  45
HETATM   45  C19 UNL     1       3.599  25.979  -0.496  1.00  0.00     0.037 C 
BRANCH  45  46
HETATM   46  C20 UNL     1       3.385  24.668  -1.156  1.00  0.00    -0.020 C 
HETATM   47  C21 UNL     1       3.005  23.628  -0.041  1.00  0.00     0.009 C 
HETATM   48  C22 UNL     1       2.170  24.661  -2.053  1.00  0.00     0.009 C 
ENDBRANCH  45  46
ENDBRANCH  16  45
BRANCH  21  49
HETATM   49  O5  UNL     1      -0.643  25.986   2.571  1.00  0.00    -0.349 OA
ATOM     50  H5  UNL     1      -1.440  26.470   2.389  1.00  0.00     0.219 HD
ENDBRANCH  21  49
TORSDOF 12
ENDMDL
MODEL 3
REMARK VINA RESULT: -5.954879759      1.963      2.383
REMARK  12 active torsions:
REMARK  status: ('A' for Active; 'I' for Inactive)
REMARK    1  A    between atoms: C2_2  and  C3_3 
REMARK    2  A    between atoms: C3_3  and  C4_4 
REMARK    3  A    between atoms: C6_9  and  C7_10 
REMARK    4  A    between atoms: C7_10  and  C8_11 
REMARK    5  A    between atoms: C12_18  and  C13_19 
REMARK    6  A    between atoms: C13_19  and  C14_20 
REMARK    7  A    between atoms: C18_27  and  C19_28 
REMARK    8  A    between atoms: C19_28  and  C20_29 
REMARK    9  A    between atoms: C26_36  and  O5_37 
REMARK   10  A    between atoms: C27_41  and  C28_42 
REMARK   11  A    between atoms: C28_42  and  C29_43 
REMARK   12  A    between atoms: C30_46  and  O7_47 
ROOT
HETATM    1  C4  UNL     1       7.960  25.009   2.977  1.00  0.00     0.178 C 
HETATM    2  C5  UNL     1       7.668  25.005   1.520  1.00  0.00     0.241 C 
HETATM    3  O1  UNL     1       8.623  25.395   0.792  1.00  0.00    -0.271 OA
HETATM    4  N1  UNL     1       6.497  24.624   0.871  1.00  0.00    -0.346 N 
ATOM      5  H1  UNL     1       6.646  23.854   0.219  1.00  0.00     0.163 HD
HETATM    6  C6  UNL     1       5.134  25.055   0.901  1.00  0.00     0.177 C 
HETATM    7  C11 UNL     1       4.828  26.279   1.658  1.00  0.00     0.244 C 
HETATM    8  O2  UNL     1       5.706  27.206   1.413  1.00  0.00    -0.271 OA
HETATM    9  N2  UNL     1       3.841  26.659   2.540  1.00  0.00    -0.324 N 
ATOM     10  H2  UNL     1       3.101  27.160   2.049  1.00  0.00     0.169 HD
HETATM   11  C12 UNL     1       3.539  26.566   3.934  1.00  0.00     0.080 C 
HETATM   12  C17 UNL     1       3.337  27.964   4.481  1.00  0.00     0.264 C 
HETATM   13  O3  UNL     1       2.285  28.511   4.028  1.00  0.00    -0.266 OA
HETATM   14  N3  UNL     1       4.130  28.685   5.369  1.00  0.00    -0.344 N 
ATOM     15  H3  UNL     1       4.512  29.543   4.970  1.00  0.00     0.163 HD
HETATM   16  C18 UNL     1       4.516  28.465   6.723  1.00  0.00     0.155 C 
HETATM   17  C23 UNL     1       6.019  28.116   6.746  1.00  0.00     0.161 C 
HETATM   18  O4  UNL     1       6.675  28.511   5.802  1.00  0.00    -0.295 OA
HETATM   19  C24 UNL     1       6.627  27.357   7.826  1.00  0.00     0.128 C 
HETATM   20  C25 UNL     1       7.309  28.293   8.790  1.00  0.00     0.027 C 
HETATM   21  C26 UNL     1       7.384  26.130   7.506  1.00  0.00     0.127 C 
HETATM   22  N4  UNL     1       8.130  25.624   6.463  1.00  0.00    -0.339 N 
ATOM     23  H4  UNL     1       7.509  25.162   5.799  1.00  0.00     0.167 HD
HETATM   24  C27 UNL     1       9.471  25.525   5.996  1.00  0.00     0.070 C 
HETATM   25  C30 UNL     1       9.736  25.844   4.579  1.00  0.00     0.162 C 
HETATM   26  N6  UNL     1       8.953  25.932   3.430  1.00  0.00    -0.351 N 
HETATM   27  C31 UNL     1       9.235  27.108   2.609  1.00  0.00     0.152 C 
ENDROOT
BRANCH   6  28
HETATM   28  C7  UNL     1       4.582  25.341  -0.486  1.00  0.00     0.038 C 
BRANCH  28  29
HETATM   29  C8  UNL     1       3.282  24.845  -0.883  1.00  0.00    -0.020 C 
HETATM   30  C9  UNL     1       2.865  23.519  -0.289  1.00  0.00     0.009 C 
HETATM   31  C10 UNL     1       2.898  25.030  -2.323  1.00  0.00     0.009 C 
ENDBRANCH  28  29
ENDBRANCH   6  28
BRANCH   1  32
HETATM   32  C3  UNL     1       8.353  23.558   3.259  1.00  0.00     0.035 C 
BRANCH  32  33
HETATM   33  C2  UNL     1       9.377  23.024   2.342  1.00  0.00    -0.002 C 
HETATM   34  C1  UNL     1      10.618  22.634   3.115  1.00  0.00     0.005 C 
ENDBRANCH  32  33
ENDBRANCH   1  32
BRANCH  11  35
HETATM   35  C13 UNL     1       4.215  25.637   4.822  1.00  0.00     0.067 C 
BRANCH  35  36
HETATM   36  C14 UNL     1       3.647  24.239   4.909  1.00  0.00    -0.017 C 
HETATM   37  C15 UNL     1       4.418  23.357   3.916  1.00  0.00     0.010 C 
HETATM   38  C16 UNL     1       2.220  24.279   4.294  1.00  0.00     0.010 C 
ENDBRANCH  35  36
ENDBRANCH  11  35
BRANCH  25  39
HETATM   39  O7  UNL     1      10.997  26.102   4.359  1.00  0.00    -0.345 OA
ATOM     40  H7  UNL     1      11.390  26.603   5.065  1.00  0.00     0.219 HD
ENDBRANCH  25  39
BRANCH  24  41
HETATM   41  C28 UNL     1      10.576  26.095   6.823  1.00  0.00     0.161 C 
BRANCH  41  42
HETATM   42  C29 UNL     1      11.025  25.383   7.999  1.00  0.00     0.236 C 
HETATM   43  N5  UNL     1      12.226  24.682   8.213  1.00  0.00    -0.062 NA
HETATM   44  O6  UNL     1      10.228  25.376   9.005  1.00  0.00    -0.277 OA
ENDBRANCH  41  42
ENDBRANCH  24  41
BRANCH  16  45
HETATM   45  C19 UNL     1       4.415  29.596   7.688  1.00  0.00     0.037 C 
BRANCH  45  46
HETATM   46  C20 UNL     1       3.116  29.724   8.394  1.00  0.00    -0.020 C 
HETATM   47  C21 UNL     1       2.170  30.602   7.499  1.00  0.00     0.009 C 
HETATM   48  C22 UNL     1       2.373  28.412   8.484  1.00  0.00     0.009 C 
ENDBRANCH  45  46
ENDBRANCH  16  45
BRANCH  21  49
HETATM   49  O5  UNL     1       7.284  25.304   8.554  1.00  0.00    -0.349 OA
ATOM     50  H5  UNL     1       6.444  24.865   8.497  1.00  0.00     0.219 HD
ENDBRANCH  21  49
TORSDOF 12
ENDMDL
MODEL 4
REMARK VINA RESULT: -5.924839842      2.280      6.944
REMARK  12 active torsions:
REMARK  status: ('A' for Active; 'I' for Inactive)
REMARK    1  A    between atoms: C2_2  and  C3_3 
REMARK    2  A    between atoms: C3_3  and  C4_4 
REMARK    3  A    between atoms: C6_9  and  C7_10 
REMARK    4  A    between atoms: C7_10  and  C8_11 
REMARK    5  A    between atoms: C12_18  and  C13_19 
REMARK    6  A    between atoms: C13_19  and  C14_20 
REMARK    7  A    between atoms: C18_27  and  C19_28 
REMARK    8  A    between atoms: C19_28  and  C20_29 
REMARK    9  A    between atoms: C26_36  and  O5_37 
REMARK   10  A    between atoms: C27_41  and  C28_42 
REMARK   11  A    between atoms: C28_42  and  C29_43 
REMARK   12  A    between atoms: C30_46  and  O7_47 
ROOT
HETATM    1  C4  UNL     1       6.598  26.977   3.808  1.00  0.00     0.178 C 
HETATM    2  C5  UNL     1       7.677  26.757   4.806  1.00  0.00     0.241 C 
HETATM    3  O1  UNL     1       8.273  25.649   4.698  1.00  0.00    -0.271 OA
HETATM    4  N1  UNL     1       8.106  27.606   5.821  1.00  0.00    -0.346 N 
ATOM      5  H1  UNL     1       9.090  27.860   5.725  1.00  0.00     0.163 HD
HETATM    6  C6  UNL     1       7.498  28.209   6.965  1.00  0.00     0.177 C 
HETATM    7  C11 UNL     1       6.138  27.771   7.318  1.00  0.00     0.244 C 
HETATM    8  O2  UNL     1       6.034  26.478   7.242  1.00  0.00    -0.271 OA
HETATM    9  N2  UNL     1       4.980  28.406   7.710  1.00  0.00    -0.324 N 
ATOM     10  H2  UNL     1       4.901  28.403   8.727  1.00  0.00     0.169 HD
HETATM   11  C12 UNL     1       3.856  29.067   7.125  1.00  0.00     0.080 C 
HETATM   12  C17 UNL     1       2.591  28.380   7.595  1.00  0.00     0.264 C 
HETATM   13  O3  UNL     1       2.377  28.560   8.834  1.00  0.00    -0.266 OA
HETATM   14  N3  UNL     1       1.686  27.609   6.871  1.00  0.00    -0.344 N 
ATOM     15  H3  UNL     1       1.617  26.646   7.200  1.00  0.00     0.163 HD
HETATM   16  C18 UNL     1       0.838  27.895   5.763  1.00  0.00     0.155 C 
HETATM   17  C23 UNL     1       1.394  27.158   4.526  1.00  0.00     0.161 C 
HETATM   18  O4  UNL     1       2.083  26.182   4.750  1.00  0.00    -0.295 OA
HETATM   19  C24 UNL     1       1.119  27.597   3.168  1.00  0.00     0.128 C 
HETATM   20  C25 UNL     1       0.006  26.771   2.577  1.00  0.00     0.027 C 
HETATM   21  C26 UNL     1       2.250  27.865   2.256  1.00  0.00     0.127 C 
HETATM   22  N4  UNL     1       3.545  27.431   2.067  1.00  0.00    -0.339 N 
ATOM     23  H4  UNL     1       4.170  27.972   2.663  1.00  0.00     0.167 HD
HETATM   24  C27 UNL     1       4.306  26.486   1.324  1.00  0.00     0.070 C 
HETATM   25  C30 UNL     1       5.313  25.685   2.048  1.00  0.00     0.162 C 
HETATM   26  N6  UNL     1       5.973  25.810   3.268  1.00  0.00    -0.351 N 
HETATM   27  C31 UNL     1       6.034  24.569   4.039  1.00  0.00     0.152 C 
ENDROOT
BRANCH   6  28
HETATM   28  C7  UNL     1       8.293  27.976   8.239  1.00  0.00     0.038 C 
BRANCH  28  29
HETATM   29  C8  UNL     1       9.288  26.927   8.312  1.00  0.00    -0.020 C 
HETATM   30  C9  UNL     1       8.831  25.619   8.918  1.00  0.00     0.009 C 
HETATM   31  C10 UNL     1      10.679  27.339   8.698  1.00  0.00     0.009 C 
ENDBRANCH  28  29
ENDBRANCH   6  28
BRANCH   1  32
HETATM   32  C3  UNL     1       7.286  27.813   2.727  1.00  0.00     0.035 C 
BRANCH  32  33
HETATM   33  C2  UNL     1       8.329  27.085   1.981  1.00  0.00    -0.002 C 
HETATM   34  C1  UNL     1       8.199  27.362   0.498  1.00  0.00     0.005 C 
ENDBRANCH  32  33
ENDBRANCH   1  32
BRANCH  11  35
HETATM   35  C13 UNL     1       3.845  29.525   5.747  1.00  0.00     0.067 C 
BRANCH  35  36
HETATM   36  C14 UNL     1       3.660  31.008   5.521  1.00  0.00    -0.017 C 
HETATM   37  C15 UNL     1       3.646  31.693   6.896  1.00  0.00     0.010 C 
HETATM   38  C16 UNL     1       2.206  31.223   5.019  1.00  0.00     0.010 C 
ENDBRANCH  35  36
ENDBRANCH  11  35
BRANCH  25  39
HETATM   39  O7  UNL     1       5.660  24.614   1.387  1.00  0.00    -0.345 OA
ATOM     40  H7  UNL     1       4.910  24.157   1.023  1.00  0.00     0.219 HD
ENDBRANCH  25  39
BRANCH  24  41
HETATM   41  C28 UNL     1       3.613  25.598   0.343  1.00  0.00     0.161 C 
BRANCH  41  42
HETATM   42  C29 UNL     1       3.256  26.117  -0.958  1.00  0.00     0.236 C 
HETATM   43  N5  UNL     1       3.095  25.435  -2.178  1.00  0.00    -0.062 NA
HETATM   44  O6  UNL     1       3.051  27.382  -1.035  1.00  0.00    -0.277 OA
ENDBRANCH  41  42
ENDBRANCH  24  41
BRANCH  16  45
HETATM   45  C19 UNL     1      -0.583  27.448   5.815  1.00  0.00     0.037 C 
BRANCH  45  46
HETATM   46  C20 UNL     1      -0.834  26.192   6.564  1.00  0.00    -0.020 C 
HETATM   47  C21 UNL     1      -1.853  26.518   7.715  1.00  0.00     0.009 C 
HETATM   48  C22 UNL     1      -1.572  25.163   5.742  1.00  0.00     0.009 C 
ENDBRANCH  45  46
ENDBRANCH  16  45
BRANCH  21  49
HETATM   49  O5  UNL     1       1.859  28.806   1.388  1.00  0.00    -0.349 OA
ATOM     50  H5  UNL     1       2.633  29.281   1.110  1.00  0.00     0.219 HD
ENDBRANCH  21  49
TORSDOF 12
ENDMDL
MODEL 5
REMARK VINA RESULT: -5.648946978      2.548      7.173
REMARK  12 active torsions:
REMARK  status: ('A' for Active; 'I' for Inactive)
REMARK    1  A    between atoms: C2_2  and  C3_3 
REMARK    2  A    between atoms: C3_3  and  C4_4 
REMARK    3  A    between atoms: C6_9  and  C7_10 
REMARK    4  A    between atoms: C7_10  and  C8_11 
REMARK    5  A    between atoms: C12_18  and  C13_19 
REMARK    6  A    between atoms: C13_19  and  C14_20 
REMARK    7  A    between atoms: C18_27  and  C19_28 
REMARK    8  A    between atoms: C19_28  and  C20_29 
REMARK    9  A    between atoms: C26_36  and  O5_37 
REMARK   10  A    between atoms: C27_41  and  C28_42 
REMARK   11  A    between atoms: C28_42  and  C29_43 
REMARK   12  A    between atoms: C30_46  and  O7_47 
ROOT
HETATM    1  C4  UNL     1       2.443  29.523   6.560  1.00  0.00     0.178 C 
HETATM    2  C5  UNL     1       1.166  29.870   7.236  1.00  0.00     0.241 C 
HETATM    3  O1  UNL     1       1.180  29.721   8.490  1.00  0.00    -0.271 OA
HETATM    4  N1  UNL     1      -0.017  30.334   6.670  1.00  0.00    -0.346 N 
ATOM      5  H1  UNL     1      -0.289  31.248   7.033  1.00  0.00     0.163 HD
HETATM    6  C6  UNL     1      -0.942  29.837   5.701  1.00  0.00     0.177 C 
HETATM    7  C11 UNL     1      -0.763  28.450   5.244  1.00  0.00     0.244 C 
HETATM    8  O2  UNL     1      -0.521  27.660   6.247  1.00  0.00    -0.271 OA
HETATM    9  N2  UNL     1      -0.801  27.813   4.023  1.00  0.00    -0.324 N 
ATOM     10  H2  UNL     1      -1.724  27.409   3.863  1.00  0.00     0.169 HD
HETATM   11  C12 UNL     1       0.059  27.545   2.914  1.00  0.00     0.080 C 
HETATM   12  C17 UNL     1       0.123  26.046   2.701  1.00  0.00     0.264 C 
HETATM   13  O3  UNL     1      -0.981  25.572   2.289  1.00  0.00    -0.266 OA
HETATM   14  N3  UNL     1       1.188  25.172   2.899  1.00  0.00    -0.344 N 
ATOM     15  H3  UNL     1       1.005  24.460   3.606  1.00  0.00     0.163 HD
HETATM   16  C18 UNL     1       2.482  25.073   2.312  1.00  0.00     0.155 C 
HETATM   17  C23 UNL     1       3.526  25.486   3.373  1.00  0.00     0.161 C 
HETATM   18  O4  UNL     1       3.184  25.370   4.533  1.00  0.00    -0.295 OA
HETATM   19  C24 UNL     1       4.843  25.988   3.017  1.00  0.00     0.128 C 
HETATM   20  C25 UNL     1       5.860  24.882   3.126  1.00  0.00     0.027 C 
HETATM   21  C26 UNL     1       5.282  27.295   3.547  1.00  0.00     0.127 C 
HETATM   22  N4  UNL     1       5.063  28.081   4.658  1.00  0.00    -0.339 N 
ATOM     23  H4  UNL     1       4.236  28.657   4.504  1.00  0.00     0.167 HD
HETATM   24  C27 UNL     1       5.596  28.362   5.947  1.00  0.00     0.070 C 
HETATM   25  C30 UNL     1       4.660  28.416   7.087  1.00  0.00     0.162 C 
HETATM   26  N6  UNL     1       3.282  28.571   7.218  1.00  0.00    -0.351 N 
HETATM   27  C31 UNL     1       2.670  27.650   8.174  1.00  0.00     0.152 C 
ENDROOT
BRANCH   6  28
HETATM   28  C7  UNL     1      -2.379  29.872   6.194  1.00  0.00     0.038 C 
BRANCH  28  29
HETATM   29  C8  UNL     1      -2.682  30.171   7.577  1.00  0.00    -0.020 C 
HETATM   30  C9  UNL     1      -2.961  28.983   8.469  1.00  0.00     0.009 C 
HETATM   31  C10 UNL     1      -3.559  31.362   7.835  1.00  0.00     0.009 C 
ENDBRANCH  28  29
ENDBRANCH   6  28
BRANCH   1  32
HETATM   32  C3  UNL     1       3.131  30.879   6.395  1.00  0.00     0.035 C 
BRANCH  32  33
HETATM   33  C2  UNL     1       3.399  31.249   4.993  1.00  0.00    -0.002 C 
HETATM   34  C1  UNL     1       2.244  32.054   4.436  1.00  0.00     0.005 C 
ENDBRANCH  32  33
ENDBRANCH   1  32
BRANCH  11  35
HETATM   35  C13 UNL     1       1.303  28.261   2.695  1.00  0.00     0.067 C 
BRANCH  35  36
HETATM   36  C14 UNL     1       1.400  29.093   1.436  1.00  0.00    -0.017 C 
HETATM   37  C15 UNL     1      -0.030  29.405   0.970  1.00  0.00     0.010 C 
HETATM   38  C16 UNL     1       1.932  28.166   0.308  1.00  0.00     0.010 C 
ENDBRANCH  35  36
ENDBRANCH  11  35
BRANCH  25  39
HETATM   39  O7  UNL     1       5.271  28.288   8.234  1.00  0.00    -0.345 OA
ATOM     40  H7  UNL     1       4.819  27.689   8.817  1.00  0.00     0.219 HD
ENDBRANCH  25  39
BRANCH  24  41
HETATM   41  C28 UNL     1       6.841  27.667   6.390  1.00  0.00     0.161 C 
BRANCH  41  42
HETATM   42  C29 UNL     1       8.120  28.100   5.875  1.00  0.00     0.236 C 
HETATM   43  N5  UNL     1       8.607  28.070   4.555  1.00  0.00    -0.062 NA
HETATM   44  O6  UNL     1       8.949  28.585   6.727  1.00  0.00    -0.277 OA
ENDBRANCH  41  42
ENDBRANCH  24  41
BRANCH  16  45
HETATM   45  C19 UNL     1       2.965  23.736   1.864  1.00  0.00     0.037 C 
BRANCH  45  46
HETATM   46  C20 UNL     1       2.353  22.571   2.548  1.00  0.00    -0.020 C 
HETATM   47  C21 UNL     1       2.140  21.444   1.474  1.00  0.00     0.009 C 
HETATM   48  C22 UNL     1       3.292  21.920   3.537  1.00  0.00     0.009 C 
ENDBRANCH  45  46
ENDBRANCH  16  45
BRANCH  21  49
HETATM   49  O5  UNL     1       6.128  27.831   2.659  1.00  0.00    -0.349 OA
ATOM     50  H5  UNL     1       6.025  28.774   2.696  1.00  0.00     0.219 HD
ENDBRANCH  21  49
TORSDOF 12
ENDMDL
