MODEL 1
REMARK VINA RESULT: -8.166445897      0.000      0.000
REMARK  10 active torsions:
REMARK  status: ('A' for Active; 'I' for Inactive)
REMARK    1  A    between atoms: C2_2  and  C3_3 
REMARK    2  A    between atoms: C3_3  and  C4_4 
REMARK    3  A    between atoms: C4_4  and  C5_5 
REMARK    4  A    between atoms: C5_5  and  C6_6 
REMARK       I    between atoms: C6_6  and  N1_8 
REMARK    5  A    between atoms: N1_8  and  C7_9 
REMARK    6  A    between atoms: C7_9  and  C8_10 
REMARK    7  A    between atoms: C18_20  and  O2_21 
REMARK    8  A    between atoms: N2_24  and  C20_25 
REMARK    9  A    between atoms: C20_25  and  O3_26 
REMARK   10  A    between atoms: C20_25  and  N3_28 
ROOT
HETATM    1  C8  UNL     1       6.182   7.353  21.717  1.00  0.00     0.078 C 
HETATM    2  C9  UNL     1       7.138   8.449  21.166  1.00  0.00     0.046 C 
HETATM    3  C10 UNL     1       4.873   7.535  21.025  1.00  0.00     0.044 C 
HETATM    4  C11 UNL     1       3.825   7.537  22.090  1.00  0.00     0.013 C 
HETATM    5  C12 UNL     1       2.953   6.301  21.959  1.00  0.00     0.012 C 
HETATM    6  C13 UNL     1       4.509   7.758  23.369  1.00  0.00     0.043 C 
HETATM    7  C14 UNL     1       4.053   6.796  24.442  1.00  0.00     0.032 C 
HETATM    8  C15 UNL     1       2.610   6.931  24.791  1.00  0.00     0.009 C 
HETATM    9  C16 UNL     1       2.035   8.327  24.643  1.00  0.00     0.010 C 
HETATM   10  C17 UNL     1       0.989   8.580  25.737  1.00  0.00     0.012 C 
HETATM   11  C18 UNL     1       3.152   9.286  24.890  1.00  0.00     0.124 C 
HETATM   12  C19 UNL     1       4.193   9.168  23.839  1.00  0.00     0.063 C 
HETATM   13  N2  UNL     1       5.941   7.654  23.115  1.00  0.00    -0.323 N 
ENDROOT
BRANCH   1  14
HETATM   14  C7  UNL     1       6.808   6.062  21.406  1.00  0.00     0.190 C 
BRANCH  14  15
HETATM   15  N1  UNL     1       6.937   5.676  20.056  1.00  0.00    -0.385 NA
HETATM   16  C6  UNL     1       7.055   5.315  18.777  1.00  0.00     0.290 C 
HETATM   17  O1  UNL     1       6.523   5.823  17.787  1.00  0.00    -0.257 OA
BRANCH  16  18
HETATM   18  C5  UNL     1       7.976   4.126  18.379  1.00  0.00     0.119 C 
BRANCH  18  19
HETATM   19  C4  UNL     1       7.911   3.038  19.381  1.00  0.00     0.014 C 
BRANCH  19  20
HETATM   20  C3  UNL     1       8.176   1.644  18.980  1.00  0.00     0.027 C 
BRANCH  20  21
HETATM   21  C2  UNL     1       9.490   1.458  18.245  1.00  0.00    -0.037 C 
HETATM   22  C1  UNL     1      10.049   0.291  18.211  1.00  0.00     0.007 C 
ENDBRANCH  20  21
ENDBRANCH  19  20
ENDBRANCH  18  19
ENDBRANCH  16  18
ENDBRANCH  14  15
ENDBRANCH   1  14
BRANCH  13  23
HETATM   23  C20 UNL     1       6.976   7.815  24.060  1.00  0.00     0.218 C 
BRANCH  23  24
HETATM   24  O3  UNL     1       6.835   6.900  25.037  1.00  0.00    -0.332 OA
ATOM     25  H3  UNL     1       7.588   6.321  25.037  1.00  0.00     0.220 HD
ENDBRANCH  23  24
BRANCH  23  26
HETATM   26  N3  UNL     1       8.062   8.660  24.223  1.00  0.00    -0.347 N 
HETATM   27  C21 UNL     1       8.883   9.786  23.876  1.00  0.00     0.128 C 
HETATM   28  C22 UNL     1      10.087   9.179  24.582  1.00  0.00     0.040 C 
HETATM   29  C23 UNL     1       9.034   8.528  25.401  1.00  0.00     0.128 C 
ENDBRANCH  23  26
ENDBRANCH  13  23
BRANCH  11  30
HETATM   30  O2  UNL     1       2.641  10.611  24.809  1.00  0.00    -0.395 OA
ATOM     31  H2  UNL     1       2.960  11.011  24.009  1.00  0.00     0.210 HD
ENDBRANCH  11  30
TORSDOF 10
ENDMDL
MODEL 2
REMARK VINA RESULT: -8.061588530      1.467      1.624
REMARK  10 active torsions:
REMARK  status: ('A' for Active; 'I' for Inactive)
REMARK    1  A    between atoms: C2_2  and  C3_3 
REMARK    2  A    between atoms: C3_3  and  C4_4 
REMARK    3  A    between atoms: C4_4  and  C5_5 
REMARK    4  A    between atoms: C5_5  and  C6_6 
REMARK       I    between atoms: C6_6  and  N1_8 
REMARK    5  A    between atoms: N1_8  and  C7_9 
REMARK    6  A    between atoms: C7_9  and  C8_10 
REMARK    7  A    between atoms: C18_20  and  O2_21 
REMARK    8  A    between atoms: N2_24  and  C20_25 
REMARK    9  A    between atoms: C20_25  and  O3_26 
REMARK   10  A    between atoms: C20_25  and  N3_28 
ROOT
HETATM    1  C8  UNL     1       5.802   7.588  20.315  1.00  0.00     0.078 C 
HETATM    2  C9  UNL     1       6.620   8.867  19.978  1.00  0.00     0.046 C 
HETATM    3  C10 UNL     1       4.376   7.894  20.004  1.00  0.00     0.044 C 
HETATM    4  C11 UNL     1       3.580   7.476  21.198  1.00  0.00     0.013 C 
HETATM    5  C12 UNL     1       2.698   6.293  20.842  1.00  0.00     0.012 C 
HETATM    6  C13 UNL     1       4.524   7.315  22.310  1.00  0.00     0.043 C 
HETATM    7  C14 UNL     1       4.307   6.026  23.070  1.00  0.00     0.032 C 
HETATM    8  C15 UNL     1       2.972   5.940  23.729  1.00  0.00     0.009 C 
HETATM    9  C16 UNL     1       2.381   7.264  24.176  1.00  0.00     0.010 C 
HETATM   10  C17 UNL     1       1.596   7.073  25.478  1.00  0.00     0.012 C 
HETATM   11  C18 UNL     1       3.528   8.166  24.495  1.00  0.00     0.124 C 
HETATM   12  C19 UNL     1       4.319   8.469  23.277  1.00  0.00     0.063 C 
HETATM   13  N2  UNL     1       5.868   7.399  21.751  1.00  0.00    -0.323 N 
ENDROOT
BRANCH   1  14
HETATM   14  C7  UNL     1       6.344   6.515  19.471  1.00  0.00     0.190 C 
BRANCH  14  15
HETATM   15  N1  UNL     1       6.044   5.176  19.796  1.00  0.00    -0.385 NA
HETATM   16  C6  UNL     1       5.754   3.910  20.103  1.00  0.00     0.290 C 
HETATM   17  O1  UNL     1       4.654   3.354  20.089  1.00  0.00    -0.257 OA
BRANCH  16  18
HETATM   18  C5  UNL     1       6.884   2.927  20.524  1.00  0.00     0.119 C 
BRANCH  18  19
HETATM   19  C4  UNL     1       7.511   2.293  19.343  1.00  0.00     0.014 C 
BRANCH  19  20
HETATM   20  C3  UNL     1       8.604   2.976  18.627  1.00  0.00     0.027 C 
BRANCH  20  21
HETATM   21  C2  UNL     1       9.749   2.058  18.241  1.00  0.00    -0.037 C 
HETATM   22  C1  UNL     1       9.592   0.775  18.299  1.00  0.00     0.007 C 
ENDBRANCH  20  21
ENDBRANCH  19  20
ENDBRANCH  18  19
ENDBRANCH  16  18
ENDBRANCH  14  15
ENDBRANCH   1  14
BRANCH  13  23
HETATM   23  C20 UNL     1       7.081   7.315  22.465  1.00  0.00     0.218 C 
BRANCH  23  24
HETATM   24  O3  UNL     1       7.615   6.091  22.295  1.00  0.00    -0.332 OA
ATOM     25  H3  UNL     1       7.530   5.834  21.385  1.00  0.00     0.220 HD
ENDBRANCH  23  24
BRANCH  23  26
HETATM   26  N3  UNL     1       7.830   8.157  23.272  1.00  0.00    -0.347 N 
HETATM   27  C21 UNL     1       8.660   9.302  23.521  1.00  0.00     0.128 C 
HETATM   28  C22 UNL     1       9.224   8.670  24.785  1.00  0.00     0.040 C 
HETATM   29  C23 UNL     1       7.912   7.977  24.792  1.00  0.00     0.128 C 
ENDBRANCH  23  26
ENDBRANCH  13  23
BRANCH  11  30
HETATM   30  O2  UNL     1       3.014   9.406  24.966  1.00  0.00    -0.395 OA
ATOM     31  H2  UNL     1       2.481   9.793  24.282  1.00  0.00     0.210 HD
ENDBRANCH  11  30
TORSDOF 10
ENDMDL
MODEL 3
REMARK VINA RESULT: -7.951519068      2.534      3.770
REMARK  10 active torsions:
REMARK  status: ('A' for Active; 'I' for Inactive)
REMARK    1  A    between atoms: C2_2  and  C3_3 
REMARK    2  A    between atoms: C3_3  and  C4_4 
REMARK    3  A    between atoms: C4_4  and  C5_5 
REMARK    4  A    between atoms: C5_5  and  C6_6 
REMARK       I    between atoms: C6_6  and  N1_8 
REMARK    5  A    between atoms: N1_8  and  C7_9 
REMARK    6  A    between atoms: C7_9  and  C8_10 
REMARK    7  A    between atoms: C18_20  and  O2_21 
REMARK    8  A    between atoms: N2_24  and  C20_25 
REMARK    9  A    between atoms: C20_25  and  O3_26 
REMARK   10  A    between atoms: C20_25  and  N3_28 
ROOT
HETATM    1  C8  UNL     1       4.742   6.740  20.176  1.00  0.00     0.078 C 
HETATM    2  C9  UNL     1       4.283   8.151  20.642  1.00  0.00     0.046 C 
HETATM    3  C10 UNL     1       3.526   6.030  19.685  1.00  0.00     0.044 C 
HETATM    4  C11 UNL     1       3.523   4.687  20.341  1.00  0.00     0.013 C 
HETATM    5  C12 UNL     1       3.747   3.604  19.301  1.00  0.00     0.012 C 
HETATM    6  C13 UNL     1       4.458   4.756  21.470  1.00  0.00     0.043 C 
HETATM    7  C14 UNL     1       5.396   3.571  21.516  1.00  0.00     0.032 C 
HETATM    8  C15 UNL     1       4.700   2.268  21.718  1.00  0.00     0.009 C 
HETATM    9  C16 UNL     1       3.421   2.333  22.531  1.00  0.00     0.010 C 
HETATM   10  C17 UNL     1       3.277   1.066  23.382  1.00  0.00     0.012 C 
HETATM   11  C18 UNL     1       3.570   3.474  23.483  1.00  0.00     0.124 C 
HETATM   12  C19 UNL     1       3.650   4.764  22.756  1.00  0.00     0.063 C 
HETATM   13  N2  UNL     1       5.180   6.018  21.354  1.00  0.00    -0.323 N 
ENDROOT
BRANCH   1  14
HETATM   14  C7  UNL     1       5.734   6.957  19.115  1.00  0.00     0.190 C 
BRANCH  14  15
HETATM   15  N1  UNL     1       6.471   5.854  18.637  1.00  0.00    -0.385 NA
HETATM   16  C6  UNL     1       7.165   4.810  18.179  1.00  0.00     0.290 C 
HETATM   17  O1  UNL     1       7.041   4.224  17.102  1.00  0.00    -0.257 OA
BRANCH  16  18
HETATM   18  C5  UNL     1       8.311   4.194  19.033  1.00  0.00     0.119 C 
BRANCH  18  19
HETATM   19  C4  UNL     1       8.905   3.016  18.364  1.00  0.00     0.014 C 
BRANCH  19  20
HETATM   20  C3  UNL     1       8.701   1.665  18.921  1.00  0.00     0.027 C 
BRANCH  20  21
HETATM   21  C2  UNL     1       9.528   0.592  18.238  1.00  0.00    -0.037 C 
HETATM   22  C1  UNL     1       9.142   0.108  17.102  1.00  0.00     0.007 C 
ENDBRANCH  20  21
ENDBRANCH  19  20
ENDBRANCH  18  19
ENDBRANCH  16  18
ENDBRANCH  14  15
ENDBRANCH   1  14
BRANCH  13  23
HETATM   23  C20 UNL     1       6.165   6.505  22.239  1.00  0.00     0.218 C 
BRANCH  23  24
HETATM   24  O3  UNL     1       7.382   6.126  21.804  1.00  0.00    -0.332 OA
ATOM     25  H3  UNL     1       8.019   6.259  22.495  1.00  0.00     0.220 HD
ENDBRANCH  23  24
BRANCH  23  26
HETATM   26  N3  UNL     1       6.185   7.251  23.406  1.00  0.00    -0.347 N 
HETATM   27  C21 UNL     1       5.603   7.778  24.609  1.00  0.00     0.128 C 
HETATM   28  C22 UNL     1       6.605   8.923  24.641  1.00  0.00     0.040 C 
HETATM   29  C23 UNL     1       7.453   7.945  23.915  1.00  0.00     0.128 C 
ENDBRANCH  23  26
ENDBRANCH  13  23
BRANCH  11  30
HETATM   30  O2  UNL     1       2.408   3.539  24.301  1.00  0.00    -0.395 OA
ATOM     31  H2  UNL     1       2.521   4.239  24.933  1.00  0.00     0.210 HD
ENDBRANCH  11  30
TORSDOF 10
ENDMDL
MODEL 4
REMARK VINA RESULT: -7.866118509      1.607      4.751
REMARK  10 active torsions:
REMARK  status: ('A' for Active; 'I' for Inactive)
REMARK    1  A    between atoms: C2_2  and  C3_3 
REMARK    2  A    between atoms: C3_3  and  C4_4 
REMARK    3  A    between atoms: C4_4  and  C5_5 
REMARK    4  A    between atoms: C5_5  and  C6_6 
REMARK       I    between atoms: C6_6  and  N1_8 
REMARK    5  A    between atoms: N1_8  and  C7_9 
REMARK    6  A    between atoms: C7_9  and  C8_10 
REMARK    7  A    between atoms: C18_20  and  O2_21 
REMARK    8  A    between atoms: N2_24  and  C20_25 
REMARK    9  A    between atoms: C20_25  and  O3_26 
REMARK   10  A    between atoms: C20_25  and  N3_28 
ROOT
HETATM    1  C8  UNL     1       5.304   7.009  22.163  1.00  0.00     0.078 C 
HETATM    2  C9  UNL     1       4.462   5.766  22.571  1.00  0.00     0.046 C 
HETATM    3  C10 UNL     1       6.631   6.502  21.710  1.00  0.00     0.044 C 
HETATM    4  C11 UNL     1       7.663   7.315  22.422  1.00  0.00     0.013 C 
HETATM    5  C12 UNL     1       8.414   8.182  21.428  1.00  0.00     0.012 C 
HETATM    6  C13 UNL     1       6.989   7.984  23.541  1.00  0.00     0.043 C 
HETATM    7  C14 UNL     1       7.339   9.452  23.632  1.00  0.00     0.032 C 
HETATM    8  C15 UNL     1       8.785   9.705  23.893  1.00  0.00     0.009 C 
HETATM    9  C16 UNL     1       9.493   8.642  24.711  1.00  0.00     0.010 C 
HETATM   10  C17 UNL     1      10.545   9.294  25.616  1.00  0.00     0.012 C 
HETATM   11  C18 UNL     1       8.470   8.035  25.613  1.00  0.00     0.124 C 
HETATM   12  C19 UNL     1       7.434   7.316  24.831  1.00  0.00     0.063 C 
HETATM   13  N2  UNL     1       5.557   7.774  23.368  1.00  0.00    -0.323 N 
ENDROOT
BRANCH   1  14
HETATM   14  C7  UNL     1       4.560   7.678  21.087  1.00  0.00     0.190 C 
BRANCH  14  15
HETATM   15  N1  UNL     1       5.015   7.542  19.759  1.00  0.00    -0.385 NA
HETATM   16  C6  UNL     1       5.447   7.419  18.502  1.00  0.00     0.290 C 
HETATM   17  O1  UNL     1       5.695   8.313  17.690  1.00  0.00    -0.257 OA
BRANCH  16  18
HETATM   18  C5  UNL     1       5.721   6.011  17.901  1.00  0.00     0.119 C 
BRANCH  18  19
HETATM   19  C4  UNL     1       6.900   5.378  18.531  1.00  0.00     0.014 C 
BRANCH  19  20
HETATM   20  C3  UNL     1       7.516   4.184  17.922  1.00  0.00     0.027 C 
BRANCH  20  21
HETATM   21  C2  UNL     1       8.681   3.625  18.716  1.00  0.00    -0.037 C 
HETATM   22  C1  UNL     1       9.310   2.579  18.286  1.00  0.00     0.007 C 
ENDBRANCH  20  21
ENDBRANCH  19  20
ENDBRANCH  18  19
ENDBRANCH  16  18
ENDBRANCH  14  15
ENDBRANCH   1  14
BRANCH  13  23
HETATM   23  C20 UNL     1       4.532   8.229  24.224  1.00  0.00     0.218 C 
BRANCH  23  24
HETATM   24  O3  UNL     1       4.727   7.728  25.458  1.00  0.00    -0.332 OA
ATOM     25  H3  UNL     1       4.822   6.785  25.404  1.00  0.00     0.220 HD
ENDBRANCH  23  24
BRANCH  23  26
HETATM   26  N3  UNL     1       3.412   9.037  24.107  1.00  0.00    -0.347 N 
HETATM   27  C21 UNL     1       2.739  10.303  24.026  1.00  0.00     0.128 C 
HETATM   28  C22 UNL     1       1.430   9.683  24.493  1.00  0.00     0.040 C 
HETATM   29  C23 UNL     1       2.009   8.465  23.874  1.00  0.00     0.128 C 
ENDBRANCH  23  26
ENDBRANCH  13  23
BRANCH  11  30
HETATM   30  O2  UNL     1       9.107   7.064  26.434  1.00  0.00    -0.395 OA
ATOM     31  H2  UNL     1       9.219   6.266  25.930  1.00  0.00     0.210 HD
ENDBRANCH  11  30
TORSDOF 10
ENDMDL
MODEL 5
REMARK VINA RESULT: -7.812726947      3.085      4.606
REMARK  10 active torsions:
REMARK  status: ('A' for Active; 'I' for Inactive)
REMARK    1  A    between atoms: C2_2  and  C3_3 
REMARK    2  A    between atoms: C3_3  and  C4_4 
REMARK    3  A    between atoms: C4_4  and  C5_5 
REMARK    4  A    between atoms: C5_5  and  C6_6 
REMARK       I    between atoms: C6_6  and  N1_8 
REMARK    5  A    between atoms: N1_8  and  C7_9 
REMARK    6  A    between atoms: C7_9  and  C8_10 
REMARK    7  A    between atoms: C18_20  and  O2_21 
REMARK    8  A    between atoms: N2_24  and  C20_25 
REMARK    9  A    between atoms: C20_25  and  O3_26 
REMARK   10  A    between atoms: C20_25  and  N3_28 
ROOT
HETATM    1  C8  UNL     1       3.309   5.936  20.696  1.00  0.00     0.078 C 
HETATM    2  C9  UNL     1       2.399   7.177  20.922  1.00  0.00     0.046 C 
HETATM    3  C10 UNL     1       2.466   4.895  20.041  1.00  0.00     0.044 C 
HETATM    4  C11 UNL     1       2.677   3.631  20.808  1.00  0.00     0.013 C 
HETATM    5  C12 UNL     1       3.405   2.617  19.943  1.00  0.00     0.012 C 
HETATM    6  C13 UNL     1       3.288   4.000  22.090  1.00  0.00     0.043 C 
HETATM    7  C14 UNL     1       4.474   3.129  22.437  1.00  0.00     0.032 C 
HETATM    8  C15 UNL     1       4.124   1.691  22.619  1.00  0.00     0.009 C 
HETATM    9  C16 UNL     1       2.727   1.424  23.148  1.00  0.00     0.010 C 
HETATM   10  C17 UNL     1       2.743   0.199  24.070  1.00  0.00     0.012 C 
HETATM   11  C18 UNL     1       2.354   2.594  23.997  1.00  0.00     0.124 C 
HETATM   12  C19 UNL     1       2.244   3.827  23.180  1.00  0.00     0.063 C 
HETATM   13  N2  UNL     1       3.653   5.409  22.002  1.00  0.00    -0.323 N 
ENDROOT
BRANCH   1  14
HETATM   14  C7  UNL     1       4.416   6.385  19.840  1.00  0.00     0.190 C 
BRANCH  14  15
HETATM   15  N1  UNL     1       5.618   5.648  19.841  1.00  0.00    -0.385 NA
HETATM   16  C6  UNL     1       6.755   4.950  19.847  1.00  0.00     0.290 C 
HETATM   17  O1  UNL     1       7.373   4.505  20.818  1.00  0.00    -0.257 OA
BRANCH  16  18
HETATM   18  C5  UNL     1       7.458   4.583  18.509  1.00  0.00     0.119 C 
BRANCH  18  19
HETATM   19  C4  UNL     1       8.694   3.804  18.748  1.00  0.00     0.014 C 
BRANCH  19  20
HETATM   20  C3  UNL     1       9.017   2.646  17.893  1.00  0.00     0.027 C 
BRANCH  20  21
HETATM   21  C2  UNL     1       9.076   1.329  18.644  1.00  0.00    -0.037 C 
HETATM   22  C1  UNL     1       9.890   0.402  18.253  1.00  0.00     0.007 C 
ENDBRANCH  20  21
ENDBRANCH  19  20
ENDBRANCH  18  19
ENDBRANCH  16  18
ENDBRANCH  14  15
ENDBRANCH   1  14
BRANCH  13  23
HETATM   23  C20 UNL     1       4.254   6.185  23.016  1.00  0.00     0.218 C 
BRANCH  23  24
HETATM   24  O3  UNL     1       5.584   6.230  22.814  1.00  0.00    -0.332 OA
ATOM     25  H3  UNL     1       6.010   6.555  23.598  1.00  0.00     0.220 HD
ENDBRANCH  23  24
BRANCH  23  26
HETATM   26  N3  UNL     1       3.822   6.886  24.130  1.00  0.00    -0.347 N 
HETATM   27  C21 UNL     1       2.831   7.328  25.071  1.00  0.00     0.128 C 
HETATM   28  C22 UNL     1       3.675   8.534  25.457  1.00  0.00     0.040 C 
HETATM   29  C23 UNL     1       4.789   7.642  25.049  1.00  0.00     0.128 C 
ENDBRANCH  23  26
ENDBRANCH  13  23
BRANCH  11  30
HETATM   30  O2  UNL     1       1.066   2.358  24.554  1.00  0.00    -0.395 OA
ATOM     31  H2  UNL     1       0.427   2.357  23.851  1.00  0.00     0.210 HD
ENDBRANCH  11  30
TORSDOF 10
ENDMDL
