MODEL 1
REMARK VINA RESULT: -9.657563630      0.000      0.000
REMARK  6 active torsions:
REMARK  status: ('A' for Active; 'I' for Inactive)
REMARK       I    between atoms: C2_2  and  N1_4 
REMARK    1  A    between atoms: N2_7  and  C5_8 
REMARK    2  A    between atoms: C5_8  and  C6_9 
REMARK    3  A    between atoms: C6_9  and  C7_10 
REMARK    4  A    between atoms: C7_10  and  C8_11 
REMARK    5  A    between atoms: C8_11  and  N3_12 
REMARK       I    between atoms: N3_12  and  C9_14 
REMARK       I    between atoms: C9_14  and  N4_16 
REMARK    6  A    between atoms: N4_16  and  C10_18 
ROOT
HETATM    1  N3  UNL     1       5.009   6.547  20.368  1.00  0.00    -0.343 N 
ATOM      2  H3  UNL     1       4.130   6.328  19.900  1.00  0.00     0.164 HD
HETATM    3  C9  UNL     1       6.031   5.571  20.326  1.00  0.00     0.316 C 
HETATM    4  O2  UNL     1       7.108   5.834  20.907  1.00  0.00    -0.247 OA
HETATM    5  N4  UNL     1       5.778   4.358  19.635  1.00  0.00    -0.334 N 
ATOM      6  H4  UNL     1       4.869   4.231  19.190  1.00  0.00     0.165 HD
ENDROOT
BRANCH   1   7
HETATM    7  C8  UNL     1       5.114   7.830  21.021  1.00  0.00     0.124 C 
BRANCH   7   8
HETATM    8  C7  UNL     1       4.565   7.809  22.417  1.00  0.00     0.021 C 
BRANCH   8   9
HETATM    9  C6  UNL     1       5.730   7.683  23.399  1.00  0.00     0.032 C 
BRANCH   9  10
HETATM   10  C5  UNL     1       6.975   8.265  22.823  1.00  0.00     0.272 C 
BRANCH  10  11
HETATM   11  N2  UNL     1       7.735   9.090  23.751  1.00  0.00     0.091 N 
HETATM   12  C4  UNL     1       7.375   8.728  25.108  1.00  0.00     0.292 C 
HETATM   13  C3  UNL     1       8.381   7.803  25.764  1.00  0.00     0.156 C 
HETATM   14  N1  UNL     1       9.695   8.386  25.678  1.00  0.00    -0.349 N 
HETATM   15  C2  UNL     1      10.768   7.926  26.463  1.00  0.00     0.215 C 
HETATM   16  C23 UNL     1       9.891   9.473  24.752  1.00  0.00     0.156 C 
HETATM   17  C1  UNL     1      10.609   6.795  27.442  1.00  0.00     0.117 C 
HETATM   18  O1  UNL     1      11.929   8.418  26.409  1.00  0.00    -0.274 OA
HETATM   19  C22 UNL     1       9.138   9.063  23.482  1.00  0.00     0.292 C 
ENDBRANCH  10  11
ENDBRANCH   9  10
ENDBRANCH   8   9
ENDBRANCH   7   8
ENDBRANCH   1   7
BRANCH   5  20
HETATM   20  C10 UNL     1       6.764   3.281  19.533  1.00  0.00     0.035 C 
HETATM   21  C11 UNL     1       6.607   2.494  20.820  1.00  0.00     0.039 C 
HETATM   22  C12 UNL     1       8.163   3.820  19.433  1.00  0.00     0.036 C 
HETATM   23  C13 UNL     1       8.903   3.434  18.196  1.00  0.00    -0.007 C 
HETATM   24  C14 UNL     1       9.406   2.013  18.332  1.00  0.00     0.014 C 
HETATM   25  C18 UNL     1       8.117   3.535  16.928  1.00  0.00    -0.009 C 
HETATM   26  C15 UNL     1       8.451   1.286  17.410  1.00  0.00    -0.043 C 
HETATM   27  C16 UNL     1       8.937  -0.063  17.001  1.00  0.00     0.015 C 
HETATM   28  C17 UNL     1       8.460   2.232  16.229  1.00  0.00     0.014 C 
HETATM   29  C21 UNL     1       7.120   1.217  18.098  1.00  0.00     0.016 C 
HETATM   30  C20 UNL     1       6.427   2.493  18.299  1.00  0.00     0.014 C 
HETATM   31  C19 UNL     1       6.628   3.452  17.132  1.00  0.00     0.012 C 
ENDBRANCH   5  20
TORSDOF 6
ENDMDL
MODEL 2
REMARK VINA RESULT: -9.467465892      1.420      2.386
REMARK  6 active torsions:
REMARK  status: ('A' for Active; 'I' for Inactive)
REMARK       I    between atoms: C2_2  and  N1_4 
REMARK    1  A    between atoms: N2_7  and  C5_8 
REMARK    2  A    between atoms: C5_8  and  C6_9 
REMARK    3  A    between atoms: C6_9  and  C7_10 
REMARK    4  A    between atoms: C7_10  and  C8_11 
REMARK    5  A    between atoms: C8_11  and  N3_12 
REMARK       I    between atoms: N3_12  and  C9_14 
REMARK       I    between atoms: C9_14  and  N4_16 
REMARK    6  A    between atoms: N4_16  and  C10_18 
ROOT
HETATM    1  N3  UNL     1       4.950   7.504  19.920  1.00  0.00    -0.343 N 
ATOM      2  H3  UNL     1       5.816   8.035  20.012  1.00  0.00     0.164 HD
HETATM    3  C9  UNL     1       5.000   6.294  19.190  1.00  0.00     0.316 C 
HETATM    4  O2  UNL     1       3.936   5.646  19.070  1.00  0.00    -0.247 OA
HETATM    5  N4  UNL     1       6.243   5.889  18.640  1.00  0.00    -0.334 N 
ATOM      6  H4  UNL     1       7.059   6.482  18.790  1.00  0.00     0.165 HD
ENDROOT
BRANCH   1   7
HETATM    7  C8  UNL     1       3.768   8.046  20.546  1.00  0.00     0.124 C 
BRANCH   7   8
HETATM    8  C7  UNL     1       3.950   8.271  22.019  1.00  0.00     0.021 C 
BRANCH   8   9
HETATM    9  C6  UNL     1       4.193   6.920  22.693  1.00  0.00     0.032 C 
BRANCH   9  10
HETATM   10  C5  UNL     1       5.501   6.911  23.407  1.00  0.00     0.272 C 
BRANCH  10  11
HETATM   11  N2  UNL     1       6.210   8.182  23.374  1.00  0.00     0.091 N 
HETATM   12  C4  UNL     1       6.409   8.647  24.733  1.00  0.00     0.292 C 
HETATM   13  C3  UNL     1       7.801   8.364  25.262  1.00  0.00     0.156 C 
HETATM   14  N1  UNL     1       8.778   8.898  24.347  1.00  0.00    -0.349 N 
HETATM   15  C2  UNL     1      10.125   9.073  24.712  1.00  0.00     0.215 C 
HETATM   16  C23 UNL     1       8.335   9.257  23.023  1.00  0.00     0.156 C 
HETATM   17  C1  UNL     1      10.629   8.711  26.082  1.00  0.00     0.117 C 
HETATM   18  O1  UNL     1      11.001   9.537  23.932  1.00  0.00    -0.274 OA
HETATM   19  C22 UNL     1       7.401   8.123  22.587  1.00  0.00     0.292 C 
ENDBRANCH  10  11
ENDBRANCH   9  10
ENDBRANCH   8   9
ENDBRANCH   7   8
ENDBRANCH   1   7
BRANCH   5  20
HETATM   20  C10 UNL     1       6.405   4.658  17.866  1.00  0.00     0.035 C 
HETATM   21  C11 UNL     1       6.109   5.062  16.434  1.00  0.00     0.039 C 
HETATM   22  C12 UNL     1       5.436   3.596  18.305  1.00  0.00     0.036 C 
HETATM   23  C13 UNL     1       6.061   2.335  18.801  1.00  0.00    -0.007 C 
HETATM   24  C14 UNL     1       6.517   1.502  17.622  1.00  0.00     0.014 C 
HETATM   25  C18 UNL     1       7.223   2.521  19.722  1.00  0.00    -0.009 C 
HETATM   26  C15 UNL     1       8.015   1.706  17.695  1.00  0.00    -0.043 C 
HETATM   27  C16 UNL     1       8.788   0.687  16.927  1.00  0.00     0.015 C 
HETATM   28  C17 UNL     1       8.230   1.521  19.182  1.00  0.00     0.014 C 
HETATM   29  C21 UNL     1       8.306   3.100  17.227  1.00  0.00     0.016 C 
HETATM   30  C20 UNL     1       7.816   4.187  18.081  1.00  0.00     0.014 C 
HETATM   31  C19 UNL     1       7.914   3.849  19.563  1.00  0.00     0.012 C 
ENDBRANCH   5  20
TORSDOF 6
ENDMDL
MODEL 3
REMARK VINA RESULT: -9.463151011      1.378      1.941
REMARK  6 active torsions:
REMARK  status: ('A' for Active; 'I' for Inactive)
REMARK       I    between atoms: C2_2  and  N1_4 
REMARK    1  A    between atoms: N2_7  and  C5_8 
REMARK    2  A    between atoms: C5_8  and  C6_9 
REMARK    3  A    between atoms: C6_9  and  C7_10 
REMARK    4  A    between atoms: C7_10  and  C8_11 
REMARK    5  A    between atoms: C8_11  and  N3_12 
REMARK       I    between atoms: N3_12  and  C9_14 
REMARK       I    between atoms: C9_14  and  N4_16 
REMARK    6  A    between atoms: N4_16  and  C10_18 
ROOT
HETATM    1  N3  UNL     1       3.907   5.272  20.419  1.00  0.00    -0.343 N 
ATOM      2  H3  UNL     1       3.354   5.478  19.588  1.00  0.00     0.164 HD
HETATM    3  C9  UNL     1       5.196   4.727  20.227  1.00  0.00     0.316 C 
HETATM    4  O2  UNL     1       5.874   4.466  21.247  1.00  0.00    -0.247 OA
HETATM    5  N4  UNL     1       5.646   4.508  18.899  1.00  0.00    -0.334 N 
ATOM      6  H4  UNL     1       5.025   4.752  18.128  1.00  0.00     0.165 HD
ENDROOT
BRANCH   1   7
HETATM    7  C8  UNL     1       3.311   5.560  21.702  1.00  0.00     0.124 C 
BRANCH   7   8
HETATM    8  C7  UNL     1       3.513   6.986  22.122  1.00  0.00     0.021 C 
BRANCH   8   9
HETATM    9  C6  UNL     1       3.990   7.006  23.575  1.00  0.00     0.032 C 
BRANCH   9  10
HETATM   10  C5  UNL     1       5.474   6.894  23.648  1.00  0.00     0.272 C 
BRANCH  10  11
HETATM   11  N2  UNL     1       6.176   8.165  23.541  1.00  0.00     0.091 N 
HETATM   12  C4  UNL     1       6.426   8.680  24.872  1.00  0.00     0.292 C 
HETATM   13  C3  UNL     1       7.839   8.420  25.356  1.00  0.00     0.156 C 
HETATM   14  N1  UNL     1       8.777   8.922  24.383  1.00  0.00    -0.349 N 
HETATM   15  C2  UNL     1      10.137   9.113  24.689  1.00  0.00     0.215 C 
HETATM   16  C23 UNL     1       8.281   9.230  23.066  1.00  0.00     0.156 C 
HETATM   17  C1  UNL     1      10.696   8.804  26.050  1.00  0.00     0.117 C 
HETATM   18  O1  UNL     1      10.980   9.551  23.858  1.00  0.00    -0.274 OA
HETATM   19  C22 UNL     1       7.335   8.079  22.709  1.00  0.00     0.292 C 
ENDBRANCH  10  11
ENDBRANCH   9  10
ENDBRANCH   8   9
ENDBRANCH   7   8
ENDBRANCH   1   7
BRANCH   5  20
HETATM   20  C10 UNL     1       6.961   3.947  18.588  1.00  0.00     0.035 C 
HETATM   21  C11 UNL     1       7.936   4.783  19.396  1.00  0.00     0.039 C 
HETATM   22  C12 UNL     1       7.280   4.067  17.124  1.00  0.00     0.036 C 
HETATM   23  C13 UNL     1       7.529   2.773  16.423  1.00  0.00    -0.007 C 
HETATM   24  C14 UNL     1       8.928   2.289  16.741  1.00  0.00     0.014 C 
HETATM   25  C18 UNL     1       6.567   1.677  16.752  1.00  0.00    -0.009 C 
HETATM   26  C15 UNL     1       8.624   1.158  17.701  1.00  0.00    -0.043 C 
HETATM   27  C16 UNL     1       9.763   0.210  17.875  1.00  0.00     0.015 C 
HETATM   28  C17 UNL     1       7.487   0.488  16.960  1.00  0.00     0.014 C 
HETATM   29  C21 UNL     1       8.199   1.770  19.002  1.00  0.00     0.016 C 
HETATM   30  C20 UNL     1       6.928   2.500  18.991  1.00  0.00     0.014 C 
HETATM   31  C19 UNL     1       5.891   1.846  18.087  1.00  0.00     0.012 C 
ENDBRANCH   5  20
TORSDOF 6
ENDMDL
MODEL 4
REMARK VINA RESULT: -9.403802860      0.937      1.211
REMARK  6 active torsions:
REMARK  status: ('A' for Active; 'I' for Inactive)
REMARK       I    between atoms: C2_2  and  N1_4 
REMARK    1  A    between atoms: N2_7  and  C5_8 
REMARK    2  A    between atoms: C5_8  and  C6_9 
REMARK    3  A    between atoms: C6_9  and  C7_10 
REMARK    4  A    between atoms: C7_10  and  C8_11 
REMARK    5  A    between atoms: C8_11  and  N3_12 
REMARK       I    between atoms: N3_12  and  C9_14 
REMARK       I    between atoms: C9_14  and  N4_16 
REMARK    6  A    between atoms: N4_16  and  C10_18 
ROOT
HETATM    1  N3  UNL     1       5.323   6.873  19.929  1.00  0.00    -0.343 N 
ATOM      2  H3  UNL     1       4.518   7.001  19.317  1.00  0.00     0.164 HD
HETATM    3  C9  UNL     1       5.933   5.598  19.948  1.00  0.00     0.316 C 
HETATM    4  O2  UNL     1       6.917   5.438  20.705  1.00  0.00    -0.247 OA
HETATM    5  N4  UNL     1       5.399   4.582  19.116  1.00  0.00    -0.334 N 
ATOM      6  H4  UNL     1       4.594   4.804  18.531  1.00  0.00     0.165 HD
ENDROOT
BRANCH   1   7
HETATM    7  C8  UNL     1       5.753   8.009  20.709  1.00  0.00     0.124 C 
BRANCH   7   8
HETATM    8  C7  UNL     1       6.938   8.704  20.106  1.00  0.00     0.021 C 
BRANCH   8   9
HETATM    9  C6  UNL     1       8.062   8.742  21.143  1.00  0.00     0.032 C 
BRANCH   9  10
HETATM   10  C5  UNL     1       7.542   8.415  22.501  1.00  0.00     0.272 C 
BRANCH  10  11
HETATM   11  N2  UNL     1       8.167   9.168  23.579  1.00  0.00     0.091 N 
HETATM   12  C4  UNL     1       7.588   8.755  24.842  1.00  0.00     0.292 C 
HETATM   13  C3  UNL     1       8.452   7.765  25.597  1.00  0.00     0.156 C 
HETATM   14  N1  UNL     1       9.778   8.306  25.749  1.00  0.00    -0.349 N 
HETATM   15  C2  UNL     1      10.701   7.772  26.667  1.00  0.00     0.215 C 
HETATM   16  C23 UNL     1      10.146   9.428  24.924  1.00  0.00     0.156 C 
HETATM   17  C1  UNL     1      10.359   6.602  27.548  1.00  0.00     0.117 C 
HETATM   18  O1  UNL     1      11.869   8.226  26.821  1.00  0.00    -0.274 OA
HETATM   19  C22 UNL     1       9.594   9.105  23.531  1.00  0.00     0.292 C 
ENDBRANCH  10  11
ENDBRANCH   9  10
ENDBRANCH   8   9
ENDBRANCH   7   8
ENDBRANCH   1   7
BRANCH   5  20
HETATM   20  C10 UNL     1       5.951   3.228  19.061  1.00  0.00     0.035 C 
HETATM   21  C11 UNL     1       4.857   2.343  19.628  1.00  0.00     0.039 C 
HETATM   22  C12 UNL     1       7.193   3.102  19.899  1.00  0.00     0.036 C 
HETATM   23  C13 UNL     1       8.420   2.694  19.154  1.00  0.00    -0.007 C 
HETATM   24  C14 UNL     1       8.381   1.203  18.897  1.00  0.00     0.014 C 
HETATM   25  C18 UNL     1       8.632   3.390  17.848  1.00  0.00    -0.009 C 
HETATM   26  C15 UNL     1       8.059   1.179  17.419  1.00  0.00    -0.043 C 
HETATM   27  C16 UNL     1       8.361  -0.129  16.769  1.00  0.00     0.015 C 
HETATM   28  C17 UNL     1       9.014   2.246  16.928  1.00  0.00     0.014 C 
HETATM   29  C21 UNL     1       6.618   1.564  17.262  1.00  0.00     0.016 C 
HETATM   30  C20 UNL     1       6.272   2.943  17.621  1.00  0.00     0.014 C 
HETATM   31  C19 UNL     1       7.365   3.932  17.240  1.00  0.00     0.012 C 
ENDBRANCH   5  20
TORSDOF 6
ENDMDL
MODEL 5
REMARK VINA RESULT: -8.977886288      2.163      3.071
REMARK  6 active torsions:
REMARK  status: ('A' for Active; 'I' for Inactive)
REMARK       I    between atoms: C2_2  and  N1_4 
REMARK    1  A    between atoms: N2_7  and  C5_8 
REMARK    2  A    between atoms: C5_8  and  C6_9 
REMARK    3  A    between atoms: C6_9  and  C7_10 
REMARK    4  A    between atoms: C7_10  and  C8_11 
REMARK    5  A    between atoms: C8_11  and  N3_12 
REMARK       I    between atoms: N3_12  and  C9_14 
REMARK       I    between atoms: C9_14  and  N4_16 
REMARK    6  A    between atoms: N4_16  and  C10_18 
ROOT
HETATM    1  N3  UNL     1       3.026   5.090  20.965  1.00  0.00    -0.343 N 
ATOM      2  H3  UNL     1       2.668   5.547  20.126  1.00  0.00     0.164 HD
HETATM    3  C9  UNL     1       4.344   4.581  20.918  1.00  0.00     0.316 C 
HETATM    4  O2  UNL     1       4.782   4.012  21.943  1.00  0.00    -0.247 OA
HETATM    5  N4  UNL     1       5.087   4.742  19.721  1.00  0.00    -0.334 N 
ATOM      6  H4  UNL     1       4.648   5.220  18.935  1.00  0.00     0.165 HD
ENDROOT
BRANCH   1   7
HETATM    7  C8  UNL     1       2.147   5.013  22.107  1.00  0.00     0.124 C 
BRANCH   7   8
HETATM    8  C7  UNL     1       1.857   6.360  22.700  1.00  0.00     0.021 C 
BRANCH   8   9
HETATM    9  C6  UNL     1       2.550   6.455  24.060  1.00  0.00     0.032 C 
BRANCH   9  10
HETATM   10  C5  UNL     1       3.212   7.780  24.227  1.00  0.00     0.272 C 
BRANCH  10  11
HETATM   11  N2  UNL     1       4.581   7.707  24.715  1.00  0.00     0.091 N 
HETATM   12  C4  UNL     1       5.332   6.789  23.881  1.00  0.00     0.292 C 
HETATM   13  C3  UNL     1       6.185   7.491  22.842  1.00  0.00     0.156 C 
HETATM   14  N1  UNL     1       7.028   8.462  23.492  1.00  0.00    -0.349 N 
HETATM   15  C2  UNL     1       8.138   9.036  22.847  1.00  0.00     0.215 C 
HETATM   16  C23 UNL     1       6.701   8.840  24.843  1.00  0.00     0.156 C 
HETATM   17  C1  UNL     1       8.514   8.670  21.437  1.00  0.00     0.117 C 
HETATM   18  O1  UNL     1       8.893   9.889  23.391  1.00  0.00    -0.274 OA
HETATM   19  C22 UNL     1       5.177   8.998  24.863  1.00  0.00     0.292 C 
ENDBRANCH  10  11
ENDBRANCH   9  10
ENDBRANCH   8   9
ENDBRANCH   7   8
ENDBRANCH   1   7
BRANCH   5  20
HETATM   20  C10 UNL     1       6.457   4.251  19.565  1.00  0.00     0.035 C 
HETATM   21  C11 UNL     1       7.215   4.850  20.735  1.00  0.00     0.039 C 
HETATM   22  C12 UNL     1       7.068   4.716  18.272  1.00  0.00     0.036 C 
HETATM   23  C13 UNL     1       7.500   3.627  17.349  1.00  0.00    -0.007 C 
HETATM   24  C14 UNL     1       8.819   3.057  17.825  1.00  0.00     0.014 C 
HETATM   25  C18 UNL     1       6.530   2.500  17.197  1.00  0.00    -0.009 C 
HETATM   26  C15 UNL     1       8.364   1.733  18.401  1.00  0.00    -0.043 C 
HETATM   27  C16 UNL     1       9.474   0.752  18.575  1.00  0.00     0.015 C 
HETATM   28  C17 UNL     1       7.428   1.281  17.300  1.00  0.00     0.014 C 
HETATM   29  C21 UNL     1       7.659   2.018  19.692  1.00  0.00     0.016 C 
HETATM   30  C20 UNL     1       6.392   2.750  19.593  1.00  0.00     0.014 C 
HETATM   31  C19 UNL     1       5.588   2.352  18.362  1.00  0.00     0.012 C 
ENDBRANCH   5  20
TORSDOF 6
ENDMDL
