MODEL 1
REMARK VINA RESULT: -8.251866294      0.000      0.000
REMARK  6 active torsions:
REMARK  status: ('A' for Active; 'I' for Inactive)
REMARK    1  A    between atoms: C3_3  and  N1_4 
REMARK       I    between atoms: N1_4  and  C4_6 
REMARK    2  A    between atoms: C4_6  and  C5_8 
REMARK    3  A    between atoms: C5_8  and  C6_9 
REMARK    4  A    between atoms: C6_9  and  N2_10 
REMARK    5  A    between atoms: C12_16  and  N3_17 
REMARK       I    between atoms: N3_17  and  C13_19 
REMARK    6  A    between atoms: C13_19  and  C14_21 
ROOT
HETATM    1  C1  UNL     1       2.600   3.808  23.769  1.00  0.00     0.014 C 
HETATM    2  C2  UNL     1       3.316   3.019  23.246  1.00  0.00    -0.098 C 
HETATM    3  C3  UNL     1       4.202   2.069  22.619  1.00  0.00     0.216 C 
ENDROOT
BRANCH   3   4
HETATM    4  N1  UNL     1       5.159   2.691  21.720  1.00  0.00    -0.350 N 
HETATM    5  C4  UNL     1       4.901   2.767  20.332  1.00  0.00     0.232 C 
HETATM    6  O1  UNL     1       3.795   2.270  19.914  1.00  0.00    -0.272 OA
ATOM      7  H1  UNL     1       6.026   3.078  22.095  1.00  0.00     0.163 HD
BRANCH   5   8
HETATM    8  C5  UNL     1       5.809   3.375  19.318  1.00  0.00     0.076 C 
HETATM    9  C19 UNL     1       4.964   3.653  18.097  1.00  0.00     0.025 C 
HETATM   10  C20 UNL     1       6.077   3.926  17.078  1.00  0.00     0.007 C 
HETATM   11  C21 UNL     1       6.967   2.723  17.300  1.00  0.00    -0.009 C 
HETATM   12  C22 UNL     1       8.431   3.024  17.243  1.00  0.00     0.005 C 
HETATM   13  C25 UNL     1       6.671   2.266  18.711  1.00  0.00     0.012 C 
HETATM   14  C23 UNL     1       9.056   2.580  18.548  1.00  0.00     0.001 C 
HETATM   15  C24 UNL     1       7.934   1.968  19.379  1.00  0.00     0.006 C 
BRANCH   8  16
HETATM   16  C6  UNL     1       6.630   4.488  19.833  1.00  0.00     0.079 C 
BRANCH  16  17
HETATM   17  N2  UNL     1       6.153   5.782  19.840  1.00  0.00    -0.383 N 
HETATM   18  C7  UNL     1       6.823   6.921  19.440  1.00  0.00     0.086 C 
HETATM   19  C8  UNL     1       5.702   7.990  19.559  1.00  0.00     0.027 C 
HETATM   20  C18 UNL     1       7.893   7.414  20.393  1.00  0.00     0.050 C 
HETATM   21  C9  UNL     1       4.799   7.450  20.614  1.00  0.00     0.027 C 
HETATM   22  C10 UNL     1       5.474   6.177  21.071  1.00  0.00     0.086 C 
HETATM   23  C11 UNL     1       6.501   6.484  22.164  1.00  0.00     0.050 C 
HETATM   24  C12 UNL     1       7.245   7.718  21.717  1.00  0.00     0.088 C 
BRANCH  24  25
HETATM   25  N3  UNL     1       8.276   8.126  22.634  1.00  0.00    -0.356 N 
HETATM   26  C13 UNL     1       8.011   8.784  23.863  1.00  0.00     0.222 C 
HETATM   27  O2  UNL     1       6.787   9.006  24.137  1.00  0.00    -0.273 OA
ATOM     28  H3  UNL     1       9.247   7.934  22.387  1.00  0.00     0.162 HD
BRANCH  26  29
HETATM   29  C14 UNL     1       9.013   9.220  24.830  1.00  0.00     0.078 C 
HETATM   30  C15 UNL     1      10.447   9.262  24.344  1.00  0.00     0.014 C 
HETATM   31  C16 UNL     1      10.839   8.865  25.775  1.00  0.00     0.002 C 
HETATM   32  C17 UNL     1       9.476   8.160  25.834  1.00  0.00     0.014 C 
ENDBRANCH  26  29
ENDBRANCH  24  25
ENDBRANCH  16  17
ENDBRANCH   8  16
ENDBRANCH   5   8
ENDBRANCH   3   4
TORSDOF 6
ENDMDL
MODEL 2
REMARK VINA RESULT: -8.235320183      1.933      3.224
REMARK  6 active torsions:
REMARK  status: ('A' for Active; 'I' for Inactive)
REMARK    1  A    between atoms: C3_3  and  N1_4 
REMARK       I    between atoms: N1_4  and  C4_6 
REMARK    2  A    between atoms: C4_6  and  C5_8 
REMARK    3  A    between atoms: C5_8  and  C6_9 
REMARK    4  A    between atoms: C6_9  and  N2_10 
REMARK    5  A    between atoms: C12_16  and  N3_17 
REMARK       I    between atoms: N3_17  and  C13_19 
REMARK    6  A    between atoms: C13_19  and  C14_21 
ROOT
HETATM    1  C1  UNL     1       2.745   8.446  17.458  1.00  0.00     0.014 C 
HETATM    2  C2  UNL     1       3.019   7.355  17.078  1.00  0.00    -0.098 C 
HETATM    3  C3  UNL     1       3.343   6.022  16.632  1.00  0.00     0.216 C 
ENDROOT
BRANCH   3   4
HETATM    4  N1  UNL     1       4.225   5.316  17.546  1.00  0.00    -0.350 N 
HETATM    5  C4  UNL     1       5.620   5.281  17.320  1.00  0.00     0.232 C 
HETATM    6  O1  UNL     1       6.061   5.899  16.285  1.00  0.00    -0.272 OA
ATOM      7  H1  UNL     1       3.833   4.840  18.359  1.00  0.00     0.163 HD
BRANCH   5   8
HETATM    8  C5  UNL     1       6.617   4.586  18.183  1.00  0.00     0.076 C 
HETATM    9  C19 UNL     1       7.590   3.903  17.252  1.00  0.00     0.025 C 
HETATM   10  C20 UNL     1       8.296   2.983  18.255  1.00  0.00     0.007 C 
HETATM   11  C21 UNL     1       7.107   2.344  18.940  1.00  0.00    -0.009 C 
HETATM   12  C22 UNL     1       7.275   2.159  20.414  1.00  0.00     0.005 C 
HETATM   13  C25 UNL     1       5.968   3.321  18.750  1.00  0.00     0.012 C 
HETATM   14  C23 UNL     1       6.135   2.867  21.113  1.00  0.00     0.001 C 
HETATM   15  C24 UNL     1       5.254   3.453  20.016  1.00  0.00     0.006 C 
BRANCH   8  16
HETATM   16  C6  UNL     1       7.189   5.434  19.247  1.00  0.00     0.079 C 
BRANCH  16  17
HETATM   17  N2  UNL     1       6.636   6.658  19.556  1.00  0.00    -0.383 N 
HETATM   18  C7  UNL     1       7.236   7.897  19.444  1.00  0.00     0.086 C 
HETATM   19  C8  UNL     1       6.054   8.840  19.803  1.00  0.00     0.027 C 
HETATM   20  C18 UNL     1       8.281   8.212  20.495  1.00  0.00     0.050 C 
HETATM   21  C9  UNL     1       5.191   8.013  20.693  1.00  0.00     0.027 C 
HETATM   22  C10 UNL     1       5.943   6.710  20.841  1.00  0.00     0.086 C 
HETATM   23  C11 UNL     1       6.957   6.809  21.983  1.00  0.00     0.050 C 
HETATM   24  C12 UNL     1       7.624   8.155  21.848  1.00  0.00     0.088 C 
BRANCH  24  25
HETATM   25  N3  UNL     1       8.634   8.395  22.843  1.00  0.00    -0.356 N 
HETATM   26  C13 UNL     1       8.352   8.912  24.134  1.00  0.00     0.222 C 
HETATM   27  O2  UNL     1       7.129   9.165  24.389  1.00  0.00    -0.273 OA
ATOM     28  H3  UNL     1       9.604   8.182  22.609  1.00  0.00     0.162 HD
BRANCH  26  29
HETATM   29  C14 UNL     1       9.332   9.174  25.182  1.00  0.00     0.078 C 
HETATM   30  C15 UNL     1      10.790   9.052  24.789  1.00  0.00     0.014 C 
HETATM   31  C16 UNL     1      11.031   8.548  26.219  1.00  0.00     0.002 C 
HETATM   32  C17 UNL     1       9.588   8.023  26.158  1.00  0.00     0.014 C 
ENDBRANCH  26  29
ENDBRANCH  24  25
ENDBRANCH  16  17
ENDBRANCH   8  16
ENDBRANCH   5   8
ENDBRANCH   3   4
TORSDOF 6
ENDMDL
MODEL 3
REMARK VINA RESULT: -7.980880156      1.178      1.362
REMARK  6 active torsions:
REMARK  status: ('A' for Active; 'I' for Inactive)
REMARK    1  A    between atoms: C3_3  and  N1_4 
REMARK       I    between atoms: N1_4  and  C4_6 
REMARK    2  A    between atoms: C4_6  and  C5_8 
REMARK    3  A    between atoms: C5_8  and  C6_9 
REMARK    4  A    between atoms: C6_9  and  N2_10 
REMARK    5  A    between atoms: C12_16  and  N3_17 
REMARK       I    between atoms: N3_17  and  C13_19 
REMARK    6  A    between atoms: C13_19  and  C14_21 
ROOT
HETATM    1  C1  UNL     1       1.570  -0.207  20.572  1.00  0.00     0.014 C 
HETATM    2  C2  UNL     1       2.083   0.826  20.855  1.00  0.00    -0.098 C 
HETATM    3  C3  UNL     1       2.695   2.089  21.184  1.00  0.00     0.216 C 
ENDROOT
BRANCH   3   4
HETATM    4  N1  UNL     1       3.519   2.619  20.110  1.00  0.00    -0.350 N 
HETATM    5  C4  UNL     1       4.850   3.027  20.355  1.00  0.00     0.232 C 
HETATM    6  O1  UNL     1       5.288   2.905  21.555  1.00  0.00    -0.272 OA
ATOM      7  H1  UNL     1       3.132   2.696  19.169  1.00  0.00     0.163 HD
BRANCH   5   8
HETATM    8  C5  UNL     1       5.782   3.588  19.336  1.00  0.00     0.076 C 
HETATM    9  C19 UNL     1       4.947   3.901  18.117  1.00  0.00     0.025 C 
HETATM   10  C20 UNL     1       6.068   4.117  17.093  1.00  0.00     0.007 C 
HETATM   11  C21 UNL     1       6.901   2.874  17.317  1.00  0.00    -0.009 C 
HETATM   12  C22 UNL     1       8.377   3.105  17.254  1.00  0.00     0.005 C 
HETATM   13  C25 UNL     1       6.588   2.436  18.730  1.00  0.00     0.012 C 
HETATM   14  C23 UNL     1       8.984   2.637  18.558  1.00  0.00     0.001 C 
HETATM   15  C24 UNL     1       7.838   2.082  19.395  1.00  0.00     0.006 C 
BRANCH   8  16
HETATM   16  C6  UNL     1       6.657   4.662  19.844  1.00  0.00     0.079 C 
BRANCH  16  17
HETATM   17  N2  UNL     1       6.209   5.964  19.931  1.00  0.00    -0.383 N 
HETATM   18  C7  UNL     1       6.906   7.110  19.603  1.00  0.00     0.086 C 
HETATM   19  C8  UNL     1       5.809   8.195  19.788  1.00  0.00     0.027 C 
HETATM   20  C18 UNL     1       7.986   7.518  20.585  1.00  0.00     0.050 C 
HETATM   21  C9  UNL     1       4.893   7.611  20.808  1.00  0.00     0.027 C 
HETATM   22  C10 UNL     1       5.538   6.297  21.185  1.00  0.00     0.086 C 
HETATM   23  C11 UNL     1       6.570   6.511  22.294  1.00  0.00     0.050 C 
HETATM   24  C12 UNL     1       7.343   7.753  21.925  1.00  0.00     0.088 C 
BRANCH  24  25
HETATM   25  N3  UNL     1       8.382   8.080  22.865  1.00  0.00    -0.356 N 
HETATM   26  C13 UNL     1       8.163   8.860  24.031  1.00  0.00     0.222 C 
HETATM   27  O2  UNL     1       6.974   9.273  24.223  1.00  0.00    -0.273 OA
ATOM     28  H3  UNL     1       9.325   7.735  22.684  1.00  0.00     0.162 HD
BRANCH  26  29
HETATM   29  C14 UNL     1       9.175   9.222  25.018  1.00  0.00     0.078 C 
HETATM   30  C15 UNL     1      10.610   9.249  24.534  1.00  0.00     0.014 C 
HETATM   31  C16 UNL     1      10.990   8.774  25.944  1.00  0.00     0.002 C 
HETATM   32  C17 UNL     1       9.608   8.103  25.969  1.00  0.00     0.014 C 
ENDBRANCH  26  29
ENDBRANCH  24  25
ENDBRANCH  16  17
ENDBRANCH   8  16
ENDBRANCH   5   8
ENDBRANCH   3   4
TORSDOF 6
ENDMDL
MODEL 4
REMARK VINA RESULT: -7.773761307      2.312      7.148
REMARK  6 active torsions:
REMARK  status: ('A' for Active; 'I' for Inactive)
REMARK    1  A    between atoms: C3_3  and  N1_4 
REMARK       I    between atoms: N1_4  and  C4_6 
REMARK    2  A    between atoms: C4_6  and  C5_8 
REMARK    3  A    between atoms: C5_8  and  C6_9 
REMARK    4  A    between atoms: C6_9  and  N2_10 
REMARK    5  A    between atoms: C12_16  and  N3_17 
REMARK       I    between atoms: N3_17  and  C13_19 
REMARK    6  A    between atoms: C13_19  and  C14_21 
ROOT
HETATM    1  C1  UNL     1       9.367   9.097  24.227  1.00  0.00     0.014 C 
HETATM    2  C2  UNL     1       8.497   8.495  24.765  1.00  0.00    -0.098 C 
HETATM    3  C3  UNL     1       7.444   7.748  25.409  1.00  0.00     0.216 C 
ENDROOT
BRANCH   3   4
HETATM    4  N1  UNL     1       6.399   7.331  24.489  1.00  0.00    -0.350 N 
HETATM    5  C4  UNL     1       5.219   8.097  24.342  1.00  0.00     0.232 C 
HETATM    6  O1  UNL     1       5.122   9.164  25.048  1.00  0.00    -0.272 OA
ATOM      7  H1  UNL     1       6.518   6.477  23.943  1.00  0.00     0.163 HD
BRANCH   5   8
HETATM    8  C5  UNL     1       4.083   7.765  23.436  1.00  0.00     0.076 C 
HETATM    9  C19 UNL     1       3.565   9.078  22.897  1.00  0.00     0.025 C 
HETATM   10  C20 UNL     1       2.236   8.599  22.301  1.00  0.00     0.007 C 
HETATM   11  C21 UNL     1       1.668   7.818  23.466  1.00  0.00    -0.009 C 
HETATM   12  C22 UNL     1       0.967   6.556  23.075  1.00  0.00     0.005 C 
HETATM   13  C25 UNL     1       2.866   7.412  24.295  1.00  0.00     0.012 C 
HETATM   14  C23 UNL     1       1.621   5.406  23.809  1.00  0.00     0.001 C 
HETATM   15  C24 UNL     1       2.711   6.014  24.682  1.00  0.00     0.006 C 
BRANCH   8  16
HETATM   16  C6  UNL     1       4.385   6.708  22.451  1.00  0.00     0.079 C 
BRANCH  16  17
HETATM   17  N2  UNL     1       4.720   7.020  21.151  1.00  0.00    -0.383 N 
HETATM   18  C7  UNL     1       4.542   6.234  20.030  1.00  0.00     0.086 C 
HETATM   19  C8  UNL     1       4.983   7.208  18.903  1.00  0.00     0.027 C 
HETATM   20  C18 UNL     1       5.499   5.067  19.895  1.00  0.00     0.050 C 
HETATM   21  C9  UNL     1       5.952   8.120  19.573  1.00  0.00     0.027 C 
HETATM   22  C10 UNL     1       6.056   7.587  20.984  1.00  0.00     0.086 C 
HETATM   23  C11 UNL     1       7.111   6.479  21.056  1.00  0.00     0.050 C 
HETATM   24  C12 UNL     1       6.902   5.610  19.841  1.00  0.00     0.088 C 
BRANCH  24  25
HETATM   25  N3  UNL     1       7.808   4.495  19.774  1.00  0.00    -0.356 N 
HETATM   26  C13 UNL     1       8.169   3.855  18.559  1.00  0.00     0.222 C 
HETATM   27  O2  UNL     1       7.646   4.319  17.495  1.00  0.00    -0.273 OA
ATOM     28  H3  UNL     1       8.211   4.146  20.643  1.00  0.00     0.162 HD
BRANCH  26  29
HETATM   29  C14 UNL     1       9.081   2.723  18.430  1.00  0.00     0.078 C 
HETATM   30  C15 UNL     1       9.142   2.058  17.070  1.00  0.00     0.014 C 
HETATM   31  C16 UNL     1       9.381   0.746  17.832  1.00  0.00     0.002 C 
HETATM   32  C17 UNL     1       8.563   1.386  18.965  1.00  0.00     0.014 C 
ENDBRANCH  26  29
ENDBRANCH  24  25
ENDBRANCH  16  17
ENDBRANCH   8  16
ENDBRANCH   5   8
ENDBRANCH   3   4
TORSDOF 6
ENDMDL
MODEL 5
REMARK VINA RESULT: -7.633910996      2.842      5.125
REMARK  6 active torsions:
REMARK  status: ('A' for Active; 'I' for Inactive)
REMARK    1  A    between atoms: C3_3  and  N1_4 
REMARK       I    between atoms: N1_4  and  C4_6 
REMARK    2  A    between atoms: C4_6  and  C5_8 
REMARK    3  A    between atoms: C5_8  and  C6_9 
REMARK    4  A    between atoms: C6_9  and  N2_10 
REMARK    5  A    between atoms: C12_16  and  N3_17 
REMARK       I    between atoms: N3_17  and  C13_19 
REMARK    6  A    between atoms: C13_19  and  C14_21 
ROOT
HETATM    1  C1  UNL     1       4.932   3.327  11.931  1.00  0.00     0.014 C 
HETATM    2  C2  UNL     1       4.887   3.878  12.981  1.00  0.00    -0.098 C 
HETATM    3  C3  UNL     1       4.852   4.549  14.258  1.00  0.00     0.216 C 
ENDROOT
BRANCH   3   4
HETATM    4  N1  UNL     1       5.462   3.773  15.324  1.00  0.00    -0.350 N 
HETATM    5  C4  UNL     1       6.103   4.415  16.409  1.00  0.00     0.232 C 
HETATM    6  O1  UNL     1       6.116   5.698  16.405  1.00  0.00    -0.272 OA
ATOM      7  H1  UNL     1       5.426   2.753  15.290  1.00  0.00     0.163 HD
BRANCH   5   8
HETATM    8  C5  UNL     1       6.765   3.723  17.551  1.00  0.00     0.076 C 
HETATM    9  C19 UNL     1       7.418   4.800  18.385  1.00  0.00     0.025 C 
HETATM   10  C20 UNL     1       8.313   3.925  19.271  1.00  0.00     0.007 C 
HETATM   11  C21 UNL     1       8.988   3.062  18.227  1.00  0.00    -0.009 C 
HETATM   12  C22 UNL     1       9.166   1.634  18.633  1.00  0.00     0.005 C 
HETATM   13  C25 UNL     1       8.049   3.065  17.042  1.00  0.00     0.012 C 
HETATM   14  C23 UNL     1       8.493   0.761  17.597  1.00  0.00     0.001 C 
HETATM   15  C24 UNL     1       7.937   1.701  16.534  1.00  0.00     0.006 C 
BRANCH   8  16
HETATM   16  C6  UNL     1       5.897   2.761  18.258  1.00  0.00     0.079 C 
BRANCH  16  17
HETATM   17  N2  UNL     1       4.656   3.133  18.729  1.00  0.00    -0.383 N 
HETATM   18  C7  UNL     1       4.153   4.415  18.836  1.00  0.00     0.086 C 
HETATM   19  C8  UNL     1       2.693   4.131  19.285  1.00  0.00     0.027 C 
HETATM   20  C18 UNL     1       4.724   5.245  19.968  1.00  0.00     0.050 C 
HETATM   21  C9  UNL     1       2.782   2.825  19.997  1.00  0.00     0.027 C 
HETATM   22  C10 UNL     1       4.254   2.484  19.974  1.00  0.00     0.086 C 
HETATM   23  C11 UNL     1       4.968   3.134  21.161  1.00  0.00     0.050 C 
HETATM   24  C12 UNL     1       4.432   4.540  21.266  1.00  0.00     0.088 C 
BRANCH  24  25
HETATM   25  N3  UNL     1       5.029   5.302  22.330  1.00  0.00    -0.356 N 
HETATM   26  C13 UNL     1       4.308   6.232  23.123  1.00  0.00     0.222 C 
HETATM   27  O2  UNL     1       3.072   6.373  22.851  1.00  0.00    -0.273 OA
ATOM     28  H3  UNL     1       6.021   5.167  22.523  1.00  0.00     0.162 HD
BRANCH  26  29
HETATM   29  C14 UNL     1       4.859   7.031  24.213  1.00  0.00     0.078 C 
HETATM   30  C15 UNL     1       4.054   8.244  24.634  1.00  0.00     0.014 C 
HETATM   31  C16 UNL     1       5.404   8.912  24.934  1.00  0.00     0.002 C 
HETATM   32  C17 UNL     1       5.970   8.010  23.826  1.00  0.00     0.014 C 
ENDBRANCH  26  29
ENDBRANCH  24  25
ENDBRANCH  16  17
ENDBRANCH   8  16
ENDBRANCH   5   8
ENDBRANCH   3   4
TORSDOF 6
ENDMDL
