MODEL 1
REMARK VINA RESULT: -7.429784030      0.000      0.000
REMARK  7 active torsions:
REMARK  status: ('A' for Active; 'I' for Inactive)
REMARK    1  A    between atoms: C2_2  and  C3_3 
REMARK    2  A    between atoms: C3_3  and  N1_4 
REMARK       I    between atoms: N1_4  and  C4_6 
REMARK    3  A    between atoms: C4_6  and  C5_8 
REMARK    4  A    between atoms: C6_9  and  C7_10 
REMARK    5  A    between atoms: C14_20  and  C15_21 
REMARK    6  A    between atoms: C16_22  and  C17_23 
REMARK    7  A    between atoms: C18_24  and  C19_25 
ROOT
HETATM    1  C5  UNL     1       5.121   5.459  21.805  1.00  0.00     0.099 C 
HETATM    2  C6  UNL     1       3.842   5.729  22.599  1.00  0.00     0.089 C 
HETATM    3  C8  UNL     1       2.781   5.824  21.553  1.00  0.00     0.020 C 
HETATM    4  C9  UNL     1       3.206   4.701  20.593  1.00  0.00     0.001 C 
HETATM    5  C10 UNL     1       2.715   3.431  21.166  1.00  0.00     0.009 C 
HETATM    6  C11 UNL     1       1.536   2.851  20.371  1.00  0.00     0.084 C 
HETATM    7  C12 UNL     1       2.262   1.536  20.248  1.00  0.00     0.132 C 
HETATM    8  O3  UNL     1       2.018   0.417  19.882  1.00  0.00    -0.298 OA
HETATM    9  C13 UNL     1       3.454   2.206  20.782  1.00  0.00     0.068 C 
HETATM   10  C14 UNL     1       4.524   2.434  19.746  1.00  0.00     0.025 C 
HETATM   11  C22 UNL     1       5.416   3.582  20.140  1.00  0.00    -0.001 C 
HETATM   12  C23 UNL     1       6.334   3.047  21.237  1.00  0.00     0.011 C 
HETATM   13  C24 UNL     1       4.706   4.845  20.508  1.00  0.00    -0.023 C 
HETATM   14  C25 UNL     1       4.929   5.814  19.335  1.00  0.00     0.017 C 
ENDROOT
BRANCH   1  15
HETATM   15  C4  UNL     1       5.993   6.629  21.728  1.00  0.00     0.223 C 
HETATM   16  N1  UNL     1       7.199   6.810  22.453  1.00  0.00    -0.357 N 
ATOM     17  H1  UNL     1       7.504   6.073  23.088  1.00  0.00     0.162 HD
HETATM   18  O1  UNL     1       5.690   7.608  20.957  1.00  0.00    -0.273 OA
BRANCH  16  19
HETATM   19  C3  UNL     1       8.017   8.004  22.325  1.00  0.00     0.149 C 
BRANCH  19  20
HETATM   20  C2  UNL     1       8.115   8.770  23.579  1.00  0.00    -0.018 C 
HETATM   21  C1  UNL     1       8.186   8.116  24.723  1.00  0.00     0.008 C 
ENDBRANCH  19  20
ENDBRANCH  16  19
ENDBRANCH   1  15
BRANCH   2  22
HETATM   22  C7  UNL     1       3.941   6.872  23.486  1.00  0.00     0.236 C 
HETATM   23  N2  UNL     1       4.744   6.817  24.648  1.00  0.00    -0.062 NA
HETATM   24  O2  UNL     1       3.317   7.927  23.240  1.00  0.00    -0.276 OA
ENDBRANCH   2  22
BRANCH  10  25
HETATM   25  C15 UNL     1       4.007   2.505  18.377  1.00  0.00    -0.012 C 
HETATM   26  C16 UNL     1       4.727   2.158  17.322  1.00  0.00     0.061 C 
BRANCH  26  27
HETATM   27  C17 UNL     1       6.071   1.693  17.519  1.00  0.00    -0.074 C 
HETATM   28  C18 UNL     1       7.219   1.314  17.695  1.00  0.00    -0.074 C 
BRANCH  28  29
HETATM   29  C19 UNL     1       8.570   0.894  17.892  1.00  0.00     0.060 C 
HETATM   30  C20 UNL     1       9.480   1.737  18.292  1.00  0.00    -0.022 C 
HETATM   31  C21 UNL     1       9.125   3.145  18.548  1.00  0.00     0.036 C 
ENDBRANCH  28  29
ENDBRANCH  26  27
ENDBRANCH  10  25
TORSDOF 7
ENDMDL
MODEL 2
REMARK VINA RESULT: -7.403408837      2.771      4.756
REMARK  7 active torsions:
REMARK  status: ('A' for Active; 'I' for Inactive)
REMARK    1  A    between atoms: C2_2  and  C3_3 
REMARK    2  A    between atoms: C3_3  and  N1_4 
REMARK       I    between atoms: N1_4  and  C4_6 
REMARK    3  A    between atoms: C4_6  and  C5_8 
REMARK    4  A    between atoms: C6_9  and  C7_10 
REMARK    5  A    between atoms: C14_20  and  C15_21 
REMARK    6  A    between atoms: C16_22  and  C17_23 
REMARK    7  A    between atoms: C18_24  and  C19_25 
ROOT
HETATM    1  C5  UNL     1       6.173   6.215  19.103  1.00  0.00     0.099 C 
HETATM    2  C6  UNL     1       7.451   6.286  19.940  1.00  0.00     0.089 C 
HETATM    3  C8  UNL     1       7.500   4.965  20.634  1.00  0.00     0.020 C 
HETATM    4  C9  UNL     1       7.025   4.022  19.518  1.00  0.00     0.001 C 
HETATM    5  C10 UNL     1       8.189   3.758  18.647  1.00  0.00     0.009 C 
HETATM    6  C11 UNL     1       8.724   2.328  18.808  1.00  0.00     0.084 C 
HETATM    7  C12 UNL     1       8.631   2.121  17.318  1.00  0.00     0.132 C 
HETATM    8  O3  UNL     1       8.985   1.304  16.510  1.00  0.00    -0.298 OA
HETATM    9  C13 UNL     1       7.891   3.387  17.244  1.00  0.00     0.068 C 
HETATM   10  C14 UNL     1       6.423   3.203  16.956  1.00  0.00     0.025 C 
HETATM   11  C22 UNL     1       5.627   4.381  17.454  1.00  0.00    -0.001 C 
HETATM   12  C23 UNL     1       5.870   5.509  16.453  1.00  0.00     0.011 C 
HETATM   13  C24 UNL     1       5.881   4.768  18.875  1.00  0.00    -0.023 C 
HETATM   14  C25 UNL     1       4.641   4.317  19.665  1.00  0.00     0.017 C 
ENDROOT
BRANCH   1  15
HETATM   15  C4  UNL     1       5.090   7.023  19.661  1.00  0.00     0.223 C 
HETATM   16  N1  UNL     1       4.743   7.107  21.034  1.00  0.00    -0.357 N 
ATOM     17  H1  UNL     1       5.282   6.565  21.709  1.00  0.00     0.162 HD
HETATM   18  O1  UNL     1       4.358   7.737  18.887  1.00  0.00    -0.273 OA
BRANCH  16  19
HETATM   19  C3  UNL     1       3.651   7.934  21.515  1.00  0.00     0.149 C 
BRANCH  19  20
HETATM   20  C2  UNL     1       3.747   8.231  22.955  1.00  0.00    -0.018 C 
HETATM   21  C1  UNL     1       4.237   7.313  23.765  1.00  0.00     0.008 C 
ENDBRANCH  19  20
ENDBRANCH  16  19
ENDBRANCH   1  15
BRANCH   2  22
HETATM   22  C7  UNL     1       7.511   7.444  20.810  1.00  0.00     0.236 C 
HETATM   23  N2  UNL     1       7.529   7.290  22.215  1.00  0.00    -0.062 NA
HETATM   24  O2  UNL     1       7.548   8.599  20.334  1.00  0.00    -0.276 OA
ENDBRANCH   2  22
BRANCH  10  25
HETATM   25  C15 UNL     1       5.905   1.897  17.371  1.00  0.00    -0.012 C 
HETATM   26  C16 UNL     1       5.434   1.009  16.510  1.00  0.00     0.061 C 
BRANCH  26  27
HETATM   27  C17 UNL     1       5.428   1.330  15.111  1.00  0.00    -0.074 C 
HETATM   28  C18 UNL     1       5.401   1.600  13.920  1.00  0.00    -0.074 C 
BRANCH  28  29
HETATM   29  C19 UNL     1       5.358   1.895  12.523  1.00  0.00     0.060 C 
HETATM   30  C20 UNL     1       5.040   3.087  12.102  1.00  0.00    -0.022 C 
HETATM   31  C21 UNL     1       4.719   4.154  13.067  1.00  0.00     0.036 C 
ENDBRANCH  28  29
ENDBRANCH  26  27
ENDBRANCH  10  25
TORSDOF 7
ENDMDL
MODEL 3
REMARK VINA RESULT: -7.316372953      1.230      1.615
REMARK  7 active torsions:
REMARK  status: ('A' for Active; 'I' for Inactive)
REMARK    1  A    between atoms: C2_2  and  C3_3 
REMARK    2  A    between atoms: C3_3  and  N1_4 
REMARK       I    between atoms: N1_4  and  C4_6 
REMARK    3  A    between atoms: C4_6  and  C5_8 
REMARK    4  A    between atoms: C6_9  and  C7_10 
REMARK    5  A    between atoms: C14_20  and  C15_21 
REMARK    6  A    between atoms: C16_22  and  C17_23 
REMARK    7  A    between atoms: C18_24  and  C19_25 
ROOT
HETATM    1  C5  UNL     1       5.504   5.406  21.583  1.00  0.00     0.099 C 
HETATM    2  C6  UNL     1       4.253   5.824  22.358  1.00  0.00     0.089 C 
HETATM    3  C8  UNL     1       3.212   5.985  21.299  1.00  0.00     0.020 C 
HETATM    4  C9  UNL     1       3.532   4.795  20.381  1.00  0.00     0.001 C 
HETATM    5  C10 UNL     1       2.918   3.598  20.991  1.00  0.00     0.009 C 
HETATM    6  C11 UNL     1       1.694   3.108  20.206  1.00  0.00     0.084 C 
HETATM    7  C12 UNL     1       2.291   1.725  20.131  1.00  0.00     0.132 C 
HETATM    8  O3  UNL     1       1.942   0.624  19.801  1.00  0.00    -0.298 OA
HETATM    9  C13 UNL     1       3.538   2.296  20.654  1.00  0.00     0.068 C 
HETATM   10  C14 UNL     1       4.631   2.385  19.620  1.00  0.00     0.025 C 
HETATM   11  C22 UNL     1       5.627   3.455  19.984  1.00  0.00    -0.001 C 
HETATM   12  C23 UNL     1       6.483   2.871  21.106  1.00  0.00     0.011 C 
HETATM   13  C24 UNL     1       5.039   4.792  20.304  1.00  0.00    -0.023 C 
HETATM   14  C25 UNL     1       5.361   5.695  19.102  1.00  0.00     0.017 C 
ENDROOT
BRANCH   1  15
HETATM   15  C4  UNL     1       6.485   6.484  21.476  1.00  0.00     0.223 C 
HETATM   16  N1  UNL     1       6.314   7.689  20.746  1.00  0.00    -0.357 N 
ATOM     17  H1  UNL     1       5.438   7.838  20.246  1.00  0.00     0.162 HD
HETATM   18  O1  UNL     1       7.617   6.385  22.071  1.00  0.00    -0.273 OA
BRANCH  16  19
HETATM   19  C3  UNL     1       7.337   8.719  20.685  1.00  0.00     0.149 C 
BRANCH  19  20
HETATM   20  C2  UNL     1       7.259   9.533  19.460  1.00  0.00    -0.018 C 
HETATM   21  C1  UNL     1       6.121   9.580  18.796  1.00  0.00     0.008 C 
ENDBRANCH  19  20
ENDBRANCH  16  19
ENDBRANCH   1  15
BRANCH   2  22
HETATM   22  C7  UNL     1       4.457   6.982  23.207  1.00  0.00     0.236 C 
HETATM   23  N2  UNL     1       4.946   6.832  24.525  1.00  0.00    -0.062 NA
HETATM   24  O2  UNL     1       4.203   8.132  22.790  1.00  0.00    -0.276 OA
ENDBRANCH   2  22
BRANCH  10  25
HETATM   25  C15 UNL     1       4.131   2.459  18.246  1.00  0.00    -0.012 C 
HETATM   26  C16 UNL     1       4.857   2.098  17.200  1.00  0.00     0.061 C 
BRANCH  26  27
HETATM   27  C17 UNL     1       6.192   1.613  17.413  1.00  0.00    -0.074 C 
HETATM   28  C18 UNL     1       7.330   1.214  17.609  1.00  0.00    -0.074 C 
BRANCH  28  29
HETATM   29  C19 UNL     1       8.669   0.772  17.835  1.00  0.00     0.060 C 
HETATM   30  C20 UNL     1       9.582   1.600  18.258  1.00  0.00    -0.022 C 
HETATM   31  C21 UNL     1       9.244   3.012  18.509  1.00  0.00     0.036 C 
ENDBRANCH  28  29
ENDBRANCH  26  27
ENDBRANCH  10  25
TORSDOF 7
ENDMDL
MODEL 4
REMARK VINA RESULT: -7.287334589      1.977      2.462
REMARK  7 active torsions:
REMARK  status: ('A' for Active; 'I' for Inactive)
REMARK    1  A    between atoms: C2_2  and  C3_3 
REMARK    2  A    between atoms: C3_3  and  N1_4 
REMARK       I    between atoms: N1_4  and  C4_6 
REMARK    3  A    between atoms: C4_6  and  C5_8 
REMARK    4  A    between atoms: C6_9  and  C7_10 
REMARK    5  A    between atoms: C14_20  and  C15_21 
REMARK    6  A    between atoms: C16_22  and  C17_23 
REMARK    7  A    between atoms: C18_24  and  C19_25 
ROOT
HETATM    1  C5  UNL     1       6.302   6.619  22.003  1.00  0.00     0.099 C 
HETATM    2  C6  UNL     1       4.890   6.779  22.569  1.00  0.00     0.089 C 
HETATM    3  C8  UNL     1       4.130   7.434  21.463  1.00  0.00     0.020 C 
HETATM    4  C9  UNL     1       4.695   6.699  20.237  1.00  0.00     0.001 C 
HETATM    5  C10 UNL     1       3.985   5.407  20.139  1.00  0.00     0.009 C 
HETATM    6  C11 UNL     1       2.999   5.372  18.963  1.00  0.00     0.084 C 
HETATM    7  C12 UNL     1       3.634   4.098  18.465  1.00  0.00     0.132 C 
HETATM    8  O3  UNL     1       3.406   3.256  17.639  1.00  0.00    -0.298 OA
HETATM    9  C13 UNL     1       4.703   4.312  19.448  1.00  0.00     0.068 C 
HETATM   10  C14 UNL     1       6.010   4.731  18.826  1.00  0.00     0.025 C 
HETATM   11  C22 UNL     1       6.859   5.482  19.817  1.00  0.00    -0.001 C 
HETATM   12  C23 UNL     1       7.436   4.431  20.762  1.00  0.00     0.011 C 
HETATM   13  C24 UNL     1       6.176   6.614  20.515  1.00  0.00    -0.023 C 
HETATM   14  C25 UNL     1       6.753   7.900  19.901  1.00  0.00     0.017 C 
ENDROOT
BRANCH   1  15
HETATM   15  C4  UNL     1       7.250   7.570  22.579  1.00  0.00     0.223 C 
HETATM   16  N1  UNL     1       7.825   7.484  23.873  1.00  0.00    -0.357 N 
ATOM     17  H1  UNL     1       7.570   6.698  24.471  1.00  0.00     0.162 HD
HETATM   18  O1  UNL     1       7.629   8.590  21.901  1.00  0.00    -0.273 OA
BRANCH  16  19
HETATM   19  C3  UNL     1       8.764   8.471  24.379  1.00  0.00     0.149 C 
BRANCH  19  20
HETATM   20  C2  UNL     1       9.264   8.149  25.727  1.00  0.00    -0.018 C 
HETATM   21  C1  UNL     1      10.497   8.489  26.048  1.00  0.00     0.008 C 
ENDBRANCH  19  20
ENDBRANCH  16  19
ENDBRANCH   1  15
BRANCH   2  22
HETATM   22  C7  UNL     1       4.851   7.473  23.842  1.00  0.00     0.236 C 
HETATM   23  N2  UNL     1       4.644   8.871  23.895  1.00  0.00    -0.062 NA
HETATM   24  O2  UNL     1       5.000   6.849  24.915  1.00  0.00    -0.276 OA
ENDBRANCH   2  22
BRANCH  10  25
HETATM   25  C15 UNL     1       5.854   5.395  17.529  1.00  0.00    -0.012 C 
HETATM   26  C16 UNL     1       6.412   4.936  16.420  1.00  0.00     0.061 C 
BRANCH  26  27
HETATM   27  C17 UNL     1       7.204   3.740  16.481  1.00  0.00    -0.074 C 
HETATM   28  C18 UNL     1       7.877   2.724  16.554  1.00  0.00    -0.074 C 
BRANCH  28  29
HETATM   29  C19 UNL     1       8.678   1.546  16.655  1.00  0.00     0.060 C 
HETATM   30  C20 UNL     1       8.881   0.974  17.809  1.00  0.00    -0.022 C 
HETATM   31  C21 UNL     1       8.281   1.538  19.032  1.00  0.00     0.036 C 
ENDBRANCH  28  29
ENDBRANCH  26  27
ENDBRANCH  10  25
TORSDOF 7
ENDMDL
MODEL 5
REMARK VINA RESULT: -7.214415782      3.137      5.240
REMARK  7 active torsions:
REMARK  status: ('A' for Active; 'I' for Inactive)
REMARK    1  A    between atoms: C2_2  and  C3_3 
REMARK    2  A    between atoms: C3_3  and  N1_4 
REMARK       I    between atoms: N1_4  and  C4_6 
REMARK    3  A    between atoms: C4_6  and  C5_8 
REMARK    4  A    between atoms: C6_9  and  C7_10 
REMARK    5  A    between atoms: C14_20  and  C15_21 
REMARK    6  A    between atoms: C16_22  and  C17_23 
REMARK    7  A    between atoms: C18_24  and  C19_25 
ROOT
HETATM    1  C5  UNL     1       6.430   5.540  18.213  1.00  0.00     0.099 C 
HETATM    2  C6  UNL     1       7.437   5.623  19.361  1.00  0.00     0.089 C 
HETATM    3  C8  UNL     1       7.181   4.385  20.155  1.00  0.00     0.020 C 
HETATM    4  C9  UNL     1       6.942   3.357  19.037  1.00  0.00     0.001 C 
HETATM    5  C10 UNL     1       8.270   2.930  18.549  1.00  0.00     0.009 C 
HETATM    6  C11 UNL     1       8.614   1.497  18.976  1.00  0.00     0.084 C 
HETATM    7  C12 UNL     1       8.907   1.135  17.542  1.00  0.00     0.132 C 
HETATM    8  O3  UNL     1       9.393   0.216  16.939  1.00  0.00    -0.298 OA
HETATM    9  C13 UNL     1       8.329   2.429  17.156  1.00  0.00     0.068 C 
HETATM   10  C14 UNL     1       6.983   2.304  16.491  1.00  0.00     0.025 C 
HETATM   11  C22 UNL     1       6.189   3.575  16.644  1.00  0.00    -0.001 C 
HETATM   12  C23 UNL     1       6.791   4.571  15.655  1.00  0.00     0.011 C 
HETATM   13  C24 UNL     1       6.085   4.097  18.041  1.00  0.00    -0.023 C 
HETATM   14  C25 UNL     1       4.643   3.811  18.493  1.00  0.00     0.017 C 
ENDROOT
BRANCH   1  15
HETATM   15  C4  UNL     1       5.313   6.469  18.376  1.00  0.00     0.223 C 
HETATM   16  N1  UNL     1       4.591   6.691  19.578  1.00  0.00    -0.357 N 
ATOM     17  H1  UNL     1       4.857   6.169  20.412  1.00  0.00     0.162 HD
HETATM   18  O1  UNL     1       4.907   7.167  17.381  1.00  0.00    -0.273 OA
BRANCH  16  19
HETATM   19  C3  UNL     1       3.488   7.632  19.664  1.00  0.00     0.149 C 
BRANCH  19  20
HETATM   20  C2  UNL     1       3.900   8.953  20.170  1.00  0.00    -0.018 C 
HETATM   21  C1  UNL     1       3.984   9.962  19.326  1.00  0.00     0.008 C 
ENDBRANCH  19  20
ENDBRANCH  16  19
ENDBRANCH   1  15
BRANCH   2  22
HETATM   22  C7  UNL     1       7.363   6.864  20.109  1.00  0.00     0.236 C 
HETATM   23  N2  UNL     1       7.044   6.857  21.486  1.00  0.00    -0.062 NA
HETATM   24  O2  UNL     1       7.578   7.961  19.550  1.00  0.00    -0.276 OA
ENDBRANCH   2  22
BRANCH  10  25
HETATM   25  C15 UNL     1       6.259   1.085  16.859  1.00  0.00    -0.012 C 
HETATM   26  C16 UNL     1       5.493   0.423  16.006  1.00  0.00     0.061 C 
BRANCH  26  27
HETATM   27  C17 UNL     1       5.360   0.914  14.663  1.00  0.00    -0.074 C 
HETATM   28  C18 UNL     1       5.268   1.329  13.518  1.00  0.00    -0.074 C 
BRANCH  28  29
HETATM   29  C19 UNL     1       5.178   1.830  12.183  1.00  0.00     0.060 C 
HETATM   30  C20 UNL     1       4.812   3.060  11.956  1.00  0.00    -0.022 C 
HETATM   31  C21 UNL     1       4.485   3.957  13.079  1.00  0.00     0.036 C 
ENDBRANCH  28  29
ENDBRANCH  26  27
ENDBRANCH  10  25
TORSDOF 7
ENDMDL
