MODEL 1
REMARK VINA RESULT: -9.684226642      0.000      0.000
REMARK  12 active torsions:
REMARK  status: ('A' for Active; 'I' for Inactive)
REMARK       I    between atoms: C2_2  and  N1_4 
REMARK    1  A    between atoms: N1_4  and  C3_6 
REMARK    2  A    between atoms: C3_6  and  C4_7 
REMARK       I    between atoms: C4_7  and  N2_9 
REMARK    3  A    between atoms: N2_9  and  C5_11 
REMARK    4  A    between atoms: C5_11  and  C6_12 
REMARK    5  A    between atoms: C5_11  and  C12_18 
REMARK    6  A    between atoms: C6_12  and  C7_13 
REMARK       I    between atoms: C12_18  and  N3_20 
REMARK    7  A    between atoms: C20_28  and  C21_29 
REMARK       I    between atoms: C21_29  and  N4_31 
REMARK    8  A    between atoms: N4_31  and  C22_33 
REMARK    9  A    between atoms: C27_38  and  O5_39 
REMARK   10  A    between atoms: O5_39  and  C28_40 
REMARK   11  A    between atoms: C28_40  and  C29_41 
REMARK   12  A    between atoms: C29_41  and  N5_42 
REMARK       I    between atoms: N5_42  and  C30_44 
ROOT
HETATM    1  C12 UNL     1      13.073  24.279   5.499  1.00  0.00     0.243 C 
HETATM    2  O3  UNL     1      12.866  24.259   4.233  1.00  0.00    -0.271 OA
HETATM    3  N3  UNL     1      12.368  25.130   6.378  1.00  0.00    -0.336 N 
HETATM    4  C13 UNL     1      12.748  25.283   7.759  1.00  0.00     0.132 C 
HETATM    5  C14 UNL     1      11.899  26.429   8.287  1.00  0.00     0.010 C 
HETATM    6  C15 UNL     1      11.571  26.308   9.723  1.00  0.00     0.007 C 
HETATM    7  C16 UNL     1      10.492  27.297  10.071  1.00  0.00     0.000 C 
HETATM    8  C17 UNL     1       9.305  27.229   9.163  1.00  0.00     0.000 C 
HETATM    9  C18 UNL     1       9.732  27.269   7.682  1.00  0.00     0.007 C 
HETATM   10  C19 UNL     1      10.639  26.126   7.502  1.00  0.00     0.023 C 
HETATM   11  C20 UNL     1      11.228  25.935   6.119  1.00  0.00     0.183 C 
ENDROOT
BRANCH  11  12
HETATM   12  C21 UNL     1      10.218  25.350   5.213  1.00  0.00     0.241 C 
HETATM   13  O4  UNL     1       9.593  24.326   5.582  1.00  0.00    -0.271 OA
HETATM   14  N4  UNL     1       9.968  25.946   3.960  1.00  0.00    -0.348 N 
ATOM     15  H4  UNL     1      10.492  26.774   3.674  1.00  0.00     0.163 HD
BRANCH  14  16
HETATM   16  C22 UNL     1       8.978  25.388   3.091  1.00  0.00     0.055 C 
HETATM   17  C23 UNL     1       8.797  23.885   3.341  1.00  0.00     0.041 C 
HETATM   18  C24 UNL     1       9.199  25.633   1.641  1.00  0.00     0.033 C 
HETATM   19  C25 UNL     1       8.846  27.125   1.546  1.00  0.00     0.005 C 
HETATM   20  C26 UNL     1       7.642  27.247   2.464  1.00  0.00     0.034 C 
HETATM   21  C27 UNL     1       7.605  25.986   3.310  1.00  0.00     0.149 C 
BRANCH  21  22
HETATM   22  O5  UNL     1       7.321  26.213   4.627  1.00  0.00    -0.382 OA
BRANCH  22  23
HETATM   23  C28 UNL     1       7.017  27.559   4.806  1.00  0.00     0.188 C 
BRANCH  23  24
HETATM   24  C29 UNL     1       6.196  27.781   6.057  1.00  0.00     0.148 C 
BRANCH  24  25
HETATM   25  N5  UNL     1       4.797  27.548   5.801  1.00  0.00    -0.363 N 
HETATM   26  C30 UNL     1       4.152  26.319   5.993  1.00  0.00     0.181 C 
HETATM   27  N6  UNL     1       4.354  25.258   5.281  1.00  0.00    -0.374 N 
HETATM   28  N7  UNL     1       3.187  26.176   7.038  1.00  0.00    -0.064 NA
ATOM     29  H62 UNL     1       5.043  25.359   4.536  1.00  0.00     0.158 HD
ATOM     30  H61 UNL     1       3.885  24.363   5.421  1.00  0.00     0.158 HD
ATOM     31  H5  UNL     1       4.239  28.330   5.456  1.00  0.00     0.162 HD
ENDBRANCH  24  25
ENDBRANCH  23  24
ENDBRANCH  22  23
ENDBRANCH  21  22
ENDBRANCH  14  16
ENDBRANCH  11  12
BRANCH   1  32
HETATM   32  C5  UNL     1      14.123  23.319   5.925  1.00  0.00     0.177 C 
BRANCH  32  33
HETATM   33  N2  UNL     1      13.964  22.158   5.015  1.00  0.00    -0.346 N 
HETATM   34  C4  UNL     1      15.006  21.886   4.054  1.00  0.00     0.236 C 
HETATM   35  O2  UNL     1      16.018  22.643   4.017  1.00  0.00    -0.272 OA
ATOM     36  H2  UNL     1      13.136  21.564   5.068  1.00  0.00     0.163 HD
BRANCH  34  37
HETATM   37  C3  UNL     1      14.901  20.752   3.139  1.00  0.00     0.225 C 
BRANCH  37  38
HETATM   38  N1  UNL     1      16.016  19.867   3.315  1.00  0.00    -0.353 N 
HETATM   39  C2  UNL     1      16.595  19.192   2.210  1.00  0.00     0.213 C 
HETATM   40  C1  UNL     1      17.764  18.288   2.419  1.00  0.00     0.117 C 
HETATM   41  O1  UNL     1      16.145  19.337   1.032  1.00  0.00    -0.274 OA
ATOM     42  H1  UNL     1      16.397  19.721   4.249  1.00  0.00     0.162 HD
ENDBRANCH  37  38
ENDBRANCH  34  37
ENDBRANCH  32  33
BRANCH  32  43
HETATM   43  C6  UNL     1      13.777  22.724   7.294  1.00  0.00     0.039 C 
BRANCH  43  44
HETATM   44  C7  UNL     1      14.912  22.673   8.225  1.00  0.00    -0.012 C 
HETATM   45  C8  UNL     1      16.264  22.908   7.595  1.00  0.00     0.005 C 
HETATM   46  C9  UNL     1      16.795  21.509   7.391  1.00  0.00     0.000 C 
HETATM   47  C10 UNL     1      16.257  20.713   8.580  1.00  0.00     0.000 C 
HETATM   48  C11 UNL     1      15.015  21.418   9.018  1.00  0.00     0.005 C 
ENDBRANCH  43  44
ENDBRANCH  32  43
ENDBRANCH   1  32
TORSDOF 12
ENDMDL
MODEL 2
REMARK VINA RESULT: -9.511399834      1.752      3.241
REMARK  12 active torsions:
REMARK  status: ('A' for Active; 'I' for Inactive)
REMARK       I    between atoms: C2_2  and  N1_4 
REMARK    1  A    between atoms: N1_4  and  C3_6 
REMARK    2  A    between atoms: C3_6  and  C4_7 
REMARK       I    between atoms: C4_7  and  N2_9 
REMARK    3  A    between atoms: N2_9  and  C5_11 
REMARK    4  A    between atoms: C5_11  and  C6_12 
REMARK    5  A    between atoms: C5_11  and  C12_18 
REMARK    6  A    between atoms: C6_12  and  C7_13 
REMARK       I    between atoms: C12_18  and  N3_20 
REMARK    7  A    between atoms: C20_28  and  C21_29 
REMARK       I    between atoms: C21_29  and  N4_31 
REMARK    8  A    between atoms: N4_31  and  C22_33 
REMARK    9  A    between atoms: C27_38  and  O5_39 
REMARK   10  A    between atoms: O5_39  and  C28_40 
REMARK   11  A    between atoms: C28_40  and  C29_41 
REMARK   12  A    between atoms: C29_41  and  N5_42 
REMARK       I    between atoms: N5_42  and  C30_44 
ROOT
HETATM    1  C12 UNL     1      12.675  23.492   5.661  1.00  0.00     0.243 C 
HETATM    2  O3  UNL     1      12.553  23.425   4.386  1.00  0.00    -0.271 OA
HETATM    3  N3  UNL     1      12.156  24.559   6.427  1.00  0.00    -0.336 N 
HETATM    4  C13 UNL     1      12.471  24.721   7.822  1.00  0.00     0.132 C 
HETATM    5  C14 UNL     1      11.913  26.081   8.208  1.00  0.00     0.010 C 
HETATM    6  C15 UNL     1      11.471  26.161   9.617  1.00  0.00     0.007 C 
HETATM    7  C16 UNL     1      10.663  27.414   9.814  1.00  0.00     0.000 C 
HETATM    8  C17 UNL     1       9.560  27.575   8.815  1.00  0.00     0.000 C 
HETATM    9  C18 UNL     1      10.079  27.390   7.375  1.00  0.00     0.007 C 
HETATM   10  C19 UNL     1      10.672  26.045   7.340  1.00  0.00     0.023 C 
HETATM   11  C20 UNL     1      11.281  25.602   6.025  1.00  0.00     0.183 C 
ENDROOT
BRANCH  11  12
HETATM   12  C21 UNL     1      10.216  25.221   5.075  1.00  0.00     0.241 C 
HETATM   13  O4  UNL     1       9.530  24.198   5.312  1.00  0.00    -0.271 OA
HETATM   14  N4  UNL     1       9.984  26.006   3.927  1.00  0.00    -0.348 N 
ATOM     15  H4  UNL     1      10.558  26.830   3.746  1.00  0.00     0.163 HD
BRANCH  14  16
HETATM   16  C22 UNL     1       8.942  25.645   3.015  1.00  0.00     0.055 C 
HETATM   17  C23 UNL     1       8.647  24.139   3.071  1.00  0.00     0.041 C 
HETATM   18  C24 UNL     1       9.162  26.062   1.605  1.00  0.00     0.033 C 
HETATM   19  C25 UNL     1       8.926  27.576   1.715  1.00  0.00     0.005 C 
HETATM   20  C26 UNL     1       7.747  27.666   2.670  1.00  0.00     0.034 C 
HETATM   21  C27 UNL     1       7.623  26.311   3.344  1.00  0.00     0.149 C 
BRANCH  21  22
HETATM   22  O5  UNL     1       7.375  26.382   4.685  1.00  0.00    -0.382 OA
BRANCH  22  23
HETATM   23  C28 UNL     1       6.398  27.344   4.921  1.00  0.00     0.188 C 
BRANCH  23  24
HETATM   24  C29 UNL     1       6.668  28.109   6.198  1.00  0.00     0.148 C 
BRANCH  24  25
HETATM   25  N5  UNL     1       5.974  27.510   7.311  1.00  0.00    -0.363 N 
HETATM   26  C30 UNL     1       4.680  27.863   7.717  1.00  0.00     0.181 C 
HETATM   27  N6  UNL     1       4.356  28.994   8.256  1.00  0.00    -0.374 N 
HETATM   28  N7  UNL     1       3.604  26.937   7.551  1.00  0.00    -0.064 NA
ATOM     29  H62 UNL     1       5.124  29.655   8.374  1.00  0.00     0.158 HD
ATOM     30  H61 UNL     1       3.415  29.250   8.552  1.00  0.00     0.158 HD
ATOM     31  H5  UNL     1       6.457  26.782   7.838  1.00  0.00     0.162 HD
ENDBRANCH  24  25
ENDBRANCH  23  24
ENDBRANCH  22  23
ENDBRANCH  21  22
ENDBRANCH  14  16
ENDBRANCH  11  12
BRANCH   1  32
HETATM   32  C5  UNL     1      13.413  22.335   6.230  1.00  0.00     0.177 C 
BRANCH  32  33
HETATM   33  N2  UNL     1      14.814  22.804   6.355  1.00  0.00    -0.346 N 
HETATM   34  C4  UNL     1      15.465  22.705   7.640  1.00  0.00     0.236 C 
HETATM   35  O2  UNL     1      14.821  22.222   8.615  1.00  0.00    -0.272 OA
ATOM     36  H2  UNL     1      15.308  23.190   5.549  1.00  0.00     0.163 HD
BRANCH  34  37
HETATM   37  C3  UNL     1      16.846  23.148   7.814  1.00  0.00     0.225 C 
BRANCH  37  38
HETATM   38  N1  UNL     1      17.438  22.494   8.945  1.00  0.00    -0.353 N 
HETATM   39  C2  UNL     1      18.301  21.380   8.777  1.00  0.00     0.213 C 
HETATM   40  C1  UNL     1      18.915  20.728   9.970  1.00  0.00     0.117 C 
HETATM   41  O1  UNL     1      18.571  20.918   7.627  1.00  0.00    -0.274 OA
ATOM     42  H1  UNL     1      17.235  22.835   9.884  1.00  0.00     0.162 HD
ENDBRANCH  37  38
ENDBRANCH  34  37
ENDBRANCH  32  33
BRANCH  32  43
HETATM   43  C6  UNL     1      13.524  21.212   5.193  1.00  0.00     0.039 C 
BRANCH  43  44
HETATM   44  C7  UNL     1      14.885  21.011   4.677  1.00  0.00    -0.012 C 
HETATM   45  C8  UNL     1      15.060  21.308   3.207  1.00  0.00     0.005 C 
HETATM   46  C9  UNL     1      14.971  19.943   2.568  1.00  0.00     0.000 C 
HETATM   47  C10 UNL     1      15.612  18.997   3.585  1.00  0.00     0.000 C 
HETATM   48  C11 UNL     1      15.451  19.656   4.916  1.00  0.00     0.005 C 
ENDBRANCH  43  44
ENDBRANCH  32  43
ENDBRANCH   1  32
TORSDOF 12
ENDMDL
MODEL 3
REMARK VINA RESULT: -9.379132147      5.254     10.119
REMARK  12 active torsions:
REMARK  status: ('A' for Active; 'I' for Inactive)
REMARK       I    between atoms: C2_2  and  N1_4 
REMARK    1  A    between atoms: N1_4  and  C3_6 
REMARK    2  A    between atoms: C3_6  and  C4_7 
REMARK       I    between atoms: C4_7  and  N2_9 
REMARK    3  A    between atoms: N2_9  and  C5_11 
REMARK    4  A    between atoms: C5_11  and  C6_12 
REMARK    5  A    between atoms: C5_11  and  C12_18 
REMARK    6  A    between atoms: C6_12  and  C7_13 
REMARK       I    between atoms: C12_18  and  N3_20 
REMARK    7  A    between atoms: C20_28  and  C21_29 
REMARK       I    between atoms: C21_29  and  N4_31 
REMARK    8  A    between atoms: N4_31  and  C22_33 
REMARK    9  A    between atoms: C27_38  and  O5_39 
REMARK   10  A    between atoms: O5_39  and  C28_40 
REMARK   11  A    between atoms: C28_40  and  C29_41 
REMARK   12  A    between atoms: C29_41  and  N5_42 
REMARK       I    between atoms: N5_42  and  C30_44 
ROOT
HETATM    1  C12 UNL     1      19.108  18.029   7.020  1.00  0.00     0.243 C 
HETATM    2  O3  UNL     1      19.590  19.172   6.694  1.00  0.00    -0.271 OA
HETATM    3  N3  UNL     1      19.021  17.588   8.359  1.00  0.00    -0.336 N 
HETATM    4  C13 UNL     1      18.665  16.233   8.693  1.00  0.00     0.132 C 
HETATM    5  C14 UNL     1      18.901  16.110  10.190  1.00  0.00     0.010 C 
HETATM    6  C15 UNL     1      17.989  15.156  10.856  1.00  0.00     0.007 C 
HETATM    7  C16 UNL     1      18.086  15.335  12.346  1.00  0.00     0.000 C 
HETATM    8  C17 UNL     1      17.919  16.754  12.789  1.00  0.00     0.000 C 
HETATM    9  C18 UNL     1      18.836  17.701  11.989  1.00  0.00     0.007 C 
HETATM   10  C19 UNL     1      18.466  17.508  10.579  1.00  0.00     0.023 C 
HETATM   11  C20 UNL     1      19.234  18.320   9.556  1.00  0.00     0.183 C 
ENDROOT
BRANCH  11  12
HETATM   12  C21 UNL     1      18.755  19.717   9.551  1.00  0.00     0.241 C 
HETATM   13  O4  UNL     1      19.377  20.574  10.223  1.00  0.00    -0.271 OA
HETATM   14  N4  UNL     1      17.617  20.067   8.796  1.00  0.00    -0.348 N 
ATOM     15  H4  UNL     1      17.119  19.354   8.261  1.00  0.00     0.163 HD
BRANCH  14  16
HETATM   16  C22 UNL     1      17.163  21.424   8.779  1.00  0.00     0.055 C 
HETATM   17  C23 UNL     1      18.296  22.389   8.405  1.00  0.00     0.041 C 
HETATM   18  C24 UNL     1      16.501  21.885  10.028  1.00  0.00     0.033 C 
HETATM   19  C25 UNL     1      15.161  21.140   9.933  1.00  0.00     0.005 C 
HETATM   20  C26 UNL     1      14.818  21.246   8.457  1.00  0.00     0.034 C 
HETATM   21  C27 UNL     1      16.089  21.666   7.740  1.00  0.00     0.149 C 
BRANCH  21  22
HETATM   22  O5  UNL     1      16.310  20.996   6.570  1.00  0.00    -0.382 OA
BRANCH  22  23
HETATM   23  C28 UNL     1      15.296  21.301   5.668  1.00  0.00     0.188 C 
BRANCH  23  24
HETATM   24  C29 UNL     1      15.283  22.775   5.325  1.00  0.00     0.148 C 
BRANCH  24  25
HETATM   25  N5  UNL     1      13.981  23.346   5.561  1.00  0.00    -0.363 N 
HETATM   26  C30 UNL     1      13.394  24.335   4.761  1.00  0.00     0.181 C 
HETATM   27  N6  UNL     1      13.804  25.560   4.679  1.00  0.00    -0.374 N 
HETATM   28  N7  UNL     1      12.254  24.020   3.958  1.00  0.00    -0.064 NA
ATOM     29  H62 UNL     1      14.617  25.785   5.251  1.00  0.00     0.158 HD
ATOM     30  H61 UNL     1      13.376  26.280   4.097  1.00  0.00     0.158 HD
ATOM     31  H5  UNL     1      13.451  23.007   6.365  1.00  0.00     0.162 HD
ENDBRANCH  24  25
ENDBRANCH  23  24
ENDBRANCH  22  23
ENDBRANCH  21  22
ENDBRANCH  14  16
ENDBRANCH  11  12
BRANCH   1  32
HETATM   32  C5  UNL     1      18.658  17.238   5.846  1.00  0.00     0.177 C 
BRANCH  32  33
HETATM   33  N2  UNL     1      19.895  16.617   5.313  1.00  0.00    -0.346 N 
HETATM   34  C4  UNL     1      19.987  15.176   5.283  1.00  0.00     0.236 C 
HETATM   35  O2  UNL     1      19.013  14.493   5.711  1.00  0.00    -0.272 OA
ATOM     36  H2  UNL     1      20.665  17.195   4.975  1.00  0.00     0.163 HD
BRANCH  34  37
HETATM   37  C3  UNL     1      21.181  14.515   4.763  1.00  0.00     0.225 C 
BRANCH  37  38
HETATM   38  N1  UNL     1      22.194  15.484   4.461  1.00  0.00    -0.353 N 
HETATM   39  C2  UNL     1      23.356  15.124   3.731  1.00  0.00     0.213 C 
HETATM   40  C1  UNL     1      24.388  16.156   3.418  1.00  0.00     0.117 C 
HETATM   41  O1  UNL     1      23.546  13.935   3.330  1.00  0.00    -0.274 OA
ATOM     42  H1  UNL     1      22.076  16.446   4.776  1.00  0.00     0.162 HD
ENDBRANCH  37  38
ENDBRANCH  34  37
ENDBRANCH  32  33
BRANCH  32  43
HETATM   43  C6  UNL     1      18.231  18.171   4.707  1.00  0.00     0.039 C 
BRANCH  43  44
HETATM   44  C7  UNL     1      17.343  17.540   3.722  1.00  0.00    -0.012 C 
HETATM   45  C8  UNL     1      17.770  17.702   2.283  1.00  0.00     0.005 C 
HETATM   46  C9  UNL     1      16.930  18.863   1.805  1.00  0.00     0.000 C 
HETATM   47  C10 UNL     1      15.603  18.714   2.551  1.00  0.00     0.000 C 
HETATM   48  C11 UNL     1      15.919  17.962   3.803  1.00  0.00     0.005 C 
ENDBRANCH  43  44
ENDBRANCH  32  43
ENDBRANCH   1  32
TORSDOF 12
ENDMDL
MODEL 4
REMARK VINA RESULT: -9.365413414      3.111      9.700
REMARK  12 active torsions:
REMARK  status: ('A' for Active; 'I' for Inactive)
REMARK       I    between atoms: C2_2  and  N1_4 
REMARK    1  A    between atoms: N1_4  and  C3_6 
REMARK    2  A    between atoms: C3_6  and  C4_7 
REMARK       I    between atoms: C4_7  and  N2_9 
REMARK    3  A    between atoms: N2_9  and  C5_11 
REMARK    4  A    between atoms: C5_11  and  C6_12 
REMARK    5  A    between atoms: C5_11  and  C12_18 
REMARK    6  A    between atoms: C6_12  and  C7_13 
REMARK       I    between atoms: C12_18  and  N3_20 
REMARK    7  A    between atoms: C20_28  and  C21_29 
REMARK       I    between atoms: C21_29  and  N4_31 
REMARK    8  A    between atoms: N4_31  and  C22_33 
REMARK    9  A    between atoms: C27_38  and  O5_39 
REMARK   10  A    between atoms: O5_39  and  C28_40 
REMARK   11  A    between atoms: C28_40  and  C29_41 
REMARK   12  A    between atoms: C29_41  and  N5_42 
REMARK       I    between atoms: N5_42  and  C30_44 
ROOT
HETATM    1  C12 UNL     1       7.458  27.261   4.730  1.00  0.00     0.243 C 
HETATM    2  O3  UNL     1       8.614  27.725   4.423  1.00  0.00    -0.271 OA
HETATM    3  N3  UNL     1       6.548  26.770   3.768  1.00  0.00    -0.336 N 
HETATM    4  C13 UNL     1       5.188  26.441   4.105  1.00  0.00     0.132 C 
HETATM    5  C14 UNL     1       4.496  26.172   2.777  1.00  0.00     0.010 C 
HETATM    6  C15 UNL     1       3.408  25.175   2.868  1.00  0.00     0.007 C 
HETATM    7  C16 UNL     1       3.005  24.753   1.482  1.00  0.00     0.000 C 
HETATM    8  C17 UNL     1       4.158  24.327   0.629  1.00  0.00     0.000 C 
HETATM    9  C18 UNL     1       5.289  25.374   0.655  1.00  0.00     0.007 C 
HETATM   10  C19 UNL     1       5.663  25.514   2.070  1.00  0.00     0.023 C 
HETATM   11  C20 UNL     1       6.762  26.508   2.390  1.00  0.00     0.183 C 
ENDROOT
BRANCH  11  12
HETATM   12  C21 UNL     1       8.079  25.939   2.038  1.00  0.00     0.241 C 
HETATM   13  O4  UNL     1       8.670  26.365   1.017  1.00  0.00    -0.271 OA
HETATM   14  N4  UNL     1       8.652  24.939   2.849  1.00  0.00    -0.348 N 
ATOM     15  H4  UNL     1       8.153  24.599   3.672  1.00  0.00     0.163 HD
BRANCH  14  16
HETATM   16  C22 UNL     1       9.935  24.400   2.517  1.00  0.00     0.055 C 
HETATM   17  C23 UNL     1      10.789  25.421   1.752  1.00  0.00     0.041 C 
HETATM   18  C24 UNL     1       9.908  23.112   1.776  1.00  0.00     0.033 C 
HETATM   19  C25 UNL     1       9.481  22.148   2.893  1.00  0.00     0.005 C 
HETATM   20  C26 UNL     1      10.259  22.657   4.095  1.00  0.00     0.034 C 
HETATM   21  C27 UNL     1      10.754  24.048   3.741  1.00  0.00     0.149 C 
BRANCH  21  22
HETATM   22  O5  UNL     1      10.626  24.954   4.754  1.00  0.00    -0.382 OA
BRANCH  22  23
HETATM   23  C28 UNL     1      11.543  24.655   5.756  1.00  0.00     0.188 C 
BRANCH  23  24
HETATM   24  C29 UNL     1      12.730  25.593   5.721  1.00  0.00     0.148 C 
BRANCH  24  25
HETATM   25  N5  UNL     1      13.780  25.062   4.888  1.00  0.00    -0.363 N 
HETATM   26  C30 UNL     1      14.432  23.843   5.120  1.00  0.00     0.181 C 
HETATM   27  N6  UNL     1      15.237  23.611   6.106  1.00  0.00    -0.374 N 
HETATM   28  N7  UNL     1      14.230  22.745   4.227  1.00  0.00    -0.064 NA
ATOM     29  H62 UNL     1      15.381  24.394   6.743  1.00  0.00     0.158 HD
ATOM     30  H61 UNL     1      15.712  22.725   6.274  1.00  0.00     0.158 HD
ATOM     31  H5  UNL     1      14.067  25.609   4.076  1.00  0.00     0.162 HD
ENDBRANCH  24  25
ENDBRANCH  23  24
ENDBRANCH  22  23
ENDBRANCH  21  22
ENDBRANCH  14  16
ENDBRANCH  11  12
BRANCH   1  32
HETATM   32  C5  UNL     1       7.194  27.298   6.191  1.00  0.00     0.177 C 
BRANCH  32  33
HETATM   33  N2  UNL     1       6.335  28.492   6.389  1.00  0.00    -0.346 N 
HETATM   34  C4  UNL     1       5.129  28.354   7.171  1.00  0.00     0.236 C 
HETATM   35  O2  UNL     1       4.844  27.223   7.660  1.00  0.00    -0.272 OA
ATOM     36  H2  UNL     1       6.591  29.392   5.981  1.00  0.00     0.163 HD
BRANCH  34  37
HETATM   37  C3  UNL     1       4.252  29.499   7.400  1.00  0.00     0.225 C 
BRANCH  37  38
HETATM   38  N1  UNL     1       4.685  30.620   6.617  1.00  0.00    -0.353 N 
HETATM   39  C2  UNL     1       4.167  31.920   6.851  1.00  0.00     0.213 C 
HETATM   40  C1  UNL     1       4.644  33.071   6.031  1.00  0.00     0.117 C 
HETATM   41  O1  UNL     1       3.298  32.136   7.751  1.00  0.00    -0.274 OA
ATOM     42  H1  UNL     1       5.375  30.480   5.880  1.00  0.00     0.162 HD
ENDBRANCH  37  38
ENDBRANCH  34  37
ENDBRANCH  32  33
BRANCH  32  43
HETATM   43  C6  UNL     1       8.470  27.670   6.955  1.00  0.00     0.039 C 
BRANCH  43  44
HETATM   44  C7  UNL     1       8.527  27.128   8.319  1.00  0.00    -0.012 C 
HETATM   45  C8  UNL     1       8.592  28.165   9.415  1.00  0.00     0.005 C 
HETATM   46  C9  UNL     1      10.067  28.233   9.734  1.00  0.00     0.000 C 
HETATM   47  C10 UNL     1      10.572  26.803   9.539  1.00  0.00     0.000 C 
HETATM   48  C11 UNL     1       9.635  26.167   8.564  1.00  0.00     0.005 C 
ENDBRANCH  43  44
ENDBRANCH  32  43
ENDBRANCH   1  32
TORSDOF 12
ENDMDL
MODEL 5
REMARK VINA RESULT: -9.300944092      1.013      1.168
REMARK  12 active torsions:
REMARK  status: ('A' for Active; 'I' for Inactive)
REMARK       I    between atoms: C2_2  and  N1_4 
REMARK    1  A    between atoms: N1_4  and  C3_6 
REMARK    2  A    between atoms: C3_6  and  C4_7 
REMARK       I    between atoms: C4_7  and  N2_9 
REMARK    3  A    between atoms: N2_9  and  C5_11 
REMARK    4  A    between atoms: C5_11  and  C6_12 
REMARK    5  A    between atoms: C5_11  and  C12_18 
REMARK    6  A    between atoms: C6_12  and  C7_13 
REMARK       I    between atoms: C12_18  and  N3_20 
REMARK    7  A    between atoms: C20_28  and  C21_29 
REMARK       I    between atoms: C21_29  and  N4_31 
REMARK    8  A    between atoms: N4_31  and  C22_33 
REMARK    9  A    between atoms: C27_38  and  O5_39 
REMARK   10  A    between atoms: O5_39  and  C28_40 
REMARK   11  A    between atoms: C28_40  and  C29_41 
REMARK   12  A    between atoms: C29_41  and  N5_42 
REMARK       I    between atoms: N5_42  and  C30_44 
ROOT
HETATM    1  C12 UNL     1      13.455  23.625   5.623  1.00  0.00     0.243 C 
HETATM    2  O3  UNL     1      13.276  23.475   4.362  1.00  0.00    -0.271 OA
HETATM    3  N3  UNL     1      12.785  24.611   6.380  1.00  0.00    -0.336 N 
HETATM    4  C13 UNL     1      13.141  24.896   7.746  1.00  0.00     0.132 C 
HETATM    5  C14 UNL     1      12.356  26.144   8.117  1.00  0.00     0.010 C 
HETATM    6  C15 UNL     1      11.986  26.207   9.547  1.00  0.00     0.007 C 
HETATM    7  C16 UNL     1      10.966  27.292   9.749  1.00  0.00     0.000 C 
HETATM    8  C17 UNL     1       9.798  27.195   8.819  1.00  0.00     0.000 C 
HETATM    9  C18 UNL     1      10.261  27.041   7.356  1.00  0.00     0.007 C 
HETATM   10  C19 UNL     1      11.097  25.832   7.333  1.00  0.00     0.023 C 
HETATM   11  C20 UNL     1      11.705  25.450   5.998  1.00  0.00     0.183 C 
ENDROOT
BRANCH  11  12
HETATM   12  C21 UNL     1      10.681  24.829   5.133  1.00  0.00     0.241 C 
HETATM   13  O4  UNL     1      10.009  23.870   5.582  1.00  0.00    -0.271 OA
HETATM   14  N4  UNL     1      10.471  25.320   3.828  1.00  0.00    -0.348 N 
ATOM     15  H4  UNL     1      11.033  26.096   3.478  1.00  0.00     0.163 HD
BRANCH  14  16
HETATM   16  C22 UNL     1       9.468  24.729   2.997  1.00  0.00     0.055 C 
HETATM   17  C23 UNL     1       9.224  23.261   3.373  1.00  0.00     0.041 C 
HETATM   18  C24 UNL     1       9.713  24.839   1.534  1.00  0.00     0.033 C 
HETATM   19  C25 UNL     1       9.422  26.330   1.307  1.00  0.00     0.005 C 
HETATM   20  C26 UNL     1       8.214  26.578   2.196  1.00  0.00     0.034 C 
HETATM   21  C27 UNL     1       8.119  25.398   3.146  1.00  0.00     0.149 C 
BRANCH  21  22
HETATM   22  O5  UNL     1       7.831  25.748   4.434  1.00  0.00    -0.382 OA
BRANCH  22  23
HETATM   23  C28 UNL     1       6.909  26.790   4.431  1.00  0.00     0.188 C 
BRANCH  23  24
HETATM   24  C29 UNL     1       7.049  27.658   5.663  1.00  0.00     0.148 C 
BRANCH  24  25
HETATM   25  N5  UNL     1       6.427  27.034   6.804  1.00  0.00    -0.363 N 
HETATM   26  C30 UNL     1       5.258  27.500   7.420  1.00  0.00     0.181 C 
HETATM   27  N6  UNL     1       5.167  28.598   8.100  1.00  0.00    -0.374 N 
HETATM   28  N7  UNL     1       4.050  26.742   7.324  1.00  0.00    -0.064 NA
ATOM     29  H62 UNL     1       6.029  29.139   8.168  1.00  0.00     0.158 HD
ATOM     30  H61 UNL     1       4.317  28.937   8.549  1.00  0.00     0.158 HD
ATOM     31  H5  UNL     1       6.866  26.197   7.188  1.00  0.00     0.162 HD
ENDBRANCH  24  25
ENDBRANCH  23  24
ENDBRANCH  22  23
ENDBRANCH  21  22
ENDBRANCH  14  16
ENDBRANCH  11  12
BRANCH   1  32
HETATM   32  C5  UNL     1      14.430  22.656   6.185  1.00  0.00     0.177 C 
BRANCH  32  33
HETATM   33  N2  UNL     1      14.188  21.399   5.436  1.00  0.00    -0.346 N 
HETATM   34  C4  UNL     1      15.279  20.819   4.689  1.00  0.00     0.236 C 
HETATM   35  O2  UNL     1      16.402  21.399   4.697  1.00  0.00    -0.272 OA
ATOM     36  H2  UNL     1      13.270  20.953   5.449  1.00  0.00     0.163 HD
BRANCH  34  37
HETATM   37  C3  UNL     1      15.095  19.579   3.940  1.00  0.00     0.225 C 
BRANCH  37  38
HETATM   38  N1  UNL     1      16.340  18.878   3.825  1.00  0.00    -0.353 N 
HETATM   39  C2  UNL     1      16.746  18.304   2.592  1.00  0.00     0.213 C 
HETATM   40  C1  UNL     1      18.054  17.592   2.497  1.00  0.00     0.117 C 
HETATM   41  O1  UNL     1      16.020  18.380   1.554  1.00  0.00    -0.274 OA
ATOM     42  H1  UNL     1      16.944  18.791   4.642  1.00  0.00     0.162 HD
ENDBRANCH  37  38
ENDBRANCH  34  37
ENDBRANCH  32  33
BRANCH  32  43
HETATM   43  C6  UNL     1      14.039  22.277   7.617  1.00  0.00     0.039 C 
BRANCH  43  44
HETATM   44  C7  UNL     1      15.146  22.364   8.579  1.00  0.00    -0.012 C 
HETATM   45  C8  UNL     1      16.526  22.309   7.970  1.00  0.00     0.005 C 
HETATM   46  C9  UNL     1      16.922  20.862   8.149  1.00  0.00     0.000 C 
HETATM   47  C10 UNL     1      16.286  20.447   9.476  1.00  0.00     0.000 C 
HETATM   48  C11 UNL     1      15.110  21.349   9.667  1.00  0.00     0.005 C 
ENDBRANCH  43  44
ENDBRANCH  32  43
ENDBRANCH   1  32
TORSDOF 12
ENDMDL
