MODEL 1
REMARK VINA RESULT: -5.969384814      0.000      0.000
REMARK  15 active torsions:
REMARK  status: ('A' for Active; 'I' for Inactive)
REMARK    1  A    between atoms: C2_2  and  C3_3 
REMARK    2  A    between atoms: C3_3  and  C5_5 
REMARK    3  A    between atoms: C5_5  and  C6_6 
REMARK    4  A    between atoms: C8_11  and  C9_12 
REMARK    5  A    between atoms: C9_12  and  C10_13 
REMARK    6  A    between atoms: C10_13  and  C11_14 
REMARK    7  A    between atoms: C11_14  and  N2_15 
REMARK    8  A    between atoms: C13_22  and  O2_23 
REMARK    9  A    between atoms: C14_25  and  C15_26 
REMARK   10  A    between atoms: C18_31  and  O3_32 
REMARK   11  A    between atoms: C19_34  and  C20_35 
REMARK   12  A    between atoms: C20_35  and  C21_36 
REMARK   13  A    between atoms: C24_41  and  O4_42 
REMARK   14  A    between atoms: C25_44  and  C26_45 
REMARK   15  A    between atoms: C26_45  and  C27_46 
ROOT
HETATM    1  C6  UNL     1      18.859  17.292  10.865  1.00  0.00     0.187 C 
HETATM    2  N1  UNL     1      19.370  18.229   9.873  1.00  0.00    -0.335 N 
ATOM      3  H1  UNL     1      20.306  18.565  10.099  1.00  0.00     0.164 HD
HETATM    4  C7  UNL     1      18.889  18.766   8.707  1.00  0.00     0.265 C 
HETATM    5  O1  UNL     1      18.679  20.045   8.754  1.00  0.00    -0.266 OA
HETATM    6  C8  UNL     1      18.548  18.222   7.379  1.00  0.00     0.079 C 
HETATM    7  N5  UNL     1      18.429  16.816   7.228  1.00  0.00    -0.338 N 
ATOM      8  H5  UNL     1      17.495  16.531   6.933  1.00  0.00     0.167 HD
HETATM    9  C13 UNL     1      19.281  15.744   7.386  1.00  0.00     0.139 C 
HETATM   10  C14 UNL     1      20.603  15.414   6.852  1.00  0.00     0.161 C 
HETATM   11  N6  UNL     1      21.736  16.158   7.224  1.00  0.00    -0.360 N 
ATOM     12  H6  UNL     1      22.242  16.523   6.417  1.00  0.00     0.162 HD
HETATM   13  C18 UNL     1      22.335  16.517   8.429  1.00  0.00     0.135 C 
HETATM   14  C19 UNL     1      22.652  15.755   9.633  1.00  0.00     0.158 C 
HETATM   15  N7  UNL     1      21.524  15.460  10.476  1.00  0.00    -0.357 N 
ATOM     16  H7  UNL     1      20.918  14.770  10.032  1.00  0.00     0.162 HD
HETATM   17  C24 UNL     1      21.020  15.824  11.687  1.00  0.00     0.163 C 
HETATM   18  C25 UNL     1      20.768  17.123  12.386  1.00  0.00     0.079 C 
HETATM   19  N8  UNL     1      19.491  17.651  12.127  1.00  0.00    -0.360 N 
HETATM   20  C30 UNL     1      19.206  19.011  12.347  1.00  0.00     0.152 C 
ENDROOT
BRANCH   6  21
HETATM   21  C9  UNL     1      19.330  18.867   6.244  1.00  0.00     0.064 C 
BRANCH  21  22
HETATM   22  C10 UNL     1      18.558  19.718   5.313  1.00  0.00     0.026 C 
BRANCH  22  23
HETATM   23  C11 UNL     1      17.084  19.833   5.587  1.00  0.00     0.122 C 
BRANCH  23  24
HETATM   24  N2  UNL     1      16.742  21.238   5.407  1.00  0.00    -0.367 N 
HETATM   25  C12 UNL     1      15.938  21.658   4.514  1.00  0.00     0.196 C 
HETATM   26  N3  UNL     1      15.276  20.814   3.586  1.00  0.00    -0.067 NA
HETATM   27  N4  UNL     1      15.686  23.055   4.443  1.00  0.00    -0.067 NA
ATOM     28  H2  UNL     1      17.170  21.922   6.030  1.00  0.00     0.161 HD
ENDBRANCH  23  24
ENDBRANCH  22  23
ENDBRANCH  21  22
ENDBRANCH   6  21
BRANCH   9  29
HETATM   29  O2  UNL     1      18.784  14.836   8.181  1.00  0.00    -0.348 OA
ATOM     30  H2  UNL     1      19.299  14.734   8.973  1.00  0.00     0.219 HD
ENDBRANCH   9  29
BRANCH   1  31
HETATM   31  C5  UNL     1      17.360  17.234  10.911  1.00  0.00     0.051 C 
BRANCH  31  32
HETATM   32  C3  UNL     1      16.777  16.015  11.479  1.00  0.00    -0.015 C 
HETATM   33  C4  UNL     1      17.191  15.546  12.824  1.00  0.00     0.010 C 
BRANCH  32  34
HETATM   34  C2  UNL     1      15.231  16.078  11.452  1.00  0.00    -0.000 C 
HETATM   35  C1  UNL     1      14.681  15.632  12.793  1.00  0.00     0.005 C 
ENDBRANCH  32  34
ENDBRANCH  31  32
ENDBRANCH   1  31
BRANCH  10  36
HETATM   36  C15 UNL     1      20.502  15.269   5.304  1.00  0.00     0.008 C 
HETATM   37  C16 UNL     1      19.994  13.859   4.990  1.00  0.00     0.012 C 
HETATM   38  C17 UNL     1      21.916  15.315   4.788  1.00  0.00     0.012 C 
ENDBRANCH  10  36
BRANCH  18  39
HETATM   39  C26 UNL     1      21.996  17.955  12.333  1.00  0.00     0.011 C 
BRANCH  39  40
HETATM   40  C27 UNL     1      23.240  17.570  13.016  1.00  0.00     0.002 C 
HETATM   41  C28 UNL     1      23.458  18.728  14.064  1.00  0.00     0.013 C 
HETATM   42  C29 UNL     1      24.481  17.724  12.145  1.00  0.00     0.013 C 
ENDBRANCH  39  40
ENDBRANCH  18  39
BRANCH  13  43
HETATM   43  O3  UNL     1      22.661  17.779   8.460  1.00  0.00    -0.348 OA
ATOM     44  H3  UNL     1      23.041  18.073   7.640  1.00  0.00     0.219 HD
ENDBRANCH  13  43
BRANCH  17  45
HETATM   45  O4  UNL     1      20.670  14.797  12.429  1.00  0.00    -0.345 OA
ATOM     46  H4  UNL     1      20.646  14.999  13.357  1.00  0.00     0.219 HD
ENDBRANCH  17  45
BRANCH  14  47
HETATM   47  C20 UNL     1      23.462  14.491   9.400  1.00  0.00     0.037 C 
BRANCH  47  48
HETATM   48  C21 UNL     1      22.704  13.240   9.198  1.00  0.00    -0.020 C 
HETATM   49  C22 UNL     1      23.023  12.741   7.767  1.00  0.00     0.009 C 
HETATM   50  C23 UNL     1      23.011  12.081  10.077  1.00  0.00     0.009 C 
ENDBRANCH  47  48
ENDBRANCH  14  47
TORSDOF 15
ENDMDL
MODEL 2
REMARK VINA RESULT: -5.920178828      1.249      1.552
REMARK  15 active torsions:
REMARK  status: ('A' for Active; 'I' for Inactive)
REMARK    1  A    between atoms: C2_2  and  C3_3 
REMARK    2  A    between atoms: C3_3  and  C5_5 
REMARK    3  A    between atoms: C5_5  and  C6_6 
REMARK    4  A    between atoms: C8_11  and  C9_12 
REMARK    5  A    between atoms: C9_12  and  C10_13 
REMARK    6  A    between atoms: C10_13  and  C11_14 
REMARK    7  A    between atoms: C11_14  and  N2_15 
REMARK    8  A    between atoms: C13_22  and  O2_23 
REMARK    9  A    between atoms: C14_25  and  C15_26 
REMARK   10  A    between atoms: C18_31  and  O3_32 
REMARK   11  A    between atoms: C19_34  and  C20_35 
REMARK   12  A    between atoms: C20_35  and  C21_36 
REMARK   13  A    between atoms: C24_41  and  O4_42 
REMARK   14  A    between atoms: C25_44  and  C26_45 
REMARK   15  A    between atoms: C26_45  and  C27_46 
ROOT
HETATM    1  C6  UNL     1      18.869  17.257  10.765  1.00  0.00     0.187 C 
HETATM    2  N1  UNL     1      19.361  18.188   9.756  1.00  0.00    -0.335 N 
ATOM      3  H1  UNL     1      20.293  18.540   9.972  1.00  0.00     0.164 HD
HETATM    4  C7  UNL     1      18.866  18.701   8.586  1.00  0.00     0.265 C 
HETATM    5  O1  UNL     1      18.637  19.978   8.617  1.00  0.00    -0.266 OA
HETATM    6  C8  UNL     1      18.524  18.135   7.268  1.00  0.00     0.079 C 
HETATM    7  N5  UNL     1      18.425  16.725   7.137  1.00  0.00    -0.338 N 
ATOM      8  H5  UNL     1      17.493  16.423   6.851  1.00  0.00     0.167 HD
HETATM    9  C13 UNL     1      19.293  15.668   7.305  1.00  0.00     0.139 C 
HETATM   10  C14 UNL     1      20.617  15.349   6.767  1.00  0.00     0.161 C 
HETATM   11  N6  UNL     1      21.741  16.115   7.121  1.00  0.00    -0.360 N 
ATOM     12  H6  UNL     1      22.237  16.476   6.306  1.00  0.00     0.162 HD
HETATM   13  C18 UNL     1      22.342  16.499   8.318  1.00  0.00     0.135 C 
HETATM   14  C19 UNL     1      22.677  15.758   9.531  1.00  0.00     0.158 C 
HETATM   15  N7  UNL     1      21.558  15.459  10.385  1.00  0.00    -0.357 N 
ATOM     16  H7  UNL     1      20.960  14.754   9.953  1.00  0.00     0.162 HD
HETATM   17  C24 UNL     1      21.057  15.832  11.593  1.00  0.00     0.163 C 
HETATM   18  C25 UNL     1      20.789  17.137  12.276  1.00  0.00     0.079 C 
HETATM   19  N8  UNL     1      19.504  17.643  12.018  1.00  0.00    -0.360 N 
HETATM   20  C30 UNL     1      19.201  19.002  12.221  1.00  0.00     0.152 C 
ENDROOT
BRANCH   6  21
HETATM   21  C9  UNL     1      19.290  18.776   6.119  1.00  0.00     0.064 C 
BRANCH  21  22
HETATM   22  C10 UNL     1      18.901  18.359   4.755  1.00  0.00     0.026 C 
BRANCH  22  23
HETATM   23  C11 UNL     1      17.875  19.216   4.068  1.00  0.00     0.122 C 
BRANCH  23  24
HETATM   24  N2  UNL     1      17.790  18.733   2.695  1.00  0.00    -0.367 N 
HETATM   25  C12 UNL     1      16.705  18.353   2.148  1.00  0.00     0.196 C 
HETATM   26  N3  UNL     1      15.447  18.353   2.804  1.00  0.00    -0.067 NA
HETATM   27  N4  UNL     1      16.756  17.903   0.801  1.00  0.00    -0.067 NA
ATOM     28  H2  UNL     1      18.646  18.697   2.143  1.00  0.00     0.161 HD
ENDBRANCH  23  24
ENDBRANCH  22  23
ENDBRANCH  21  22
ENDBRANCH   6  21
BRANCH   9  29
HETATM   29  O2  UNL     1      18.814  14.764   8.115  1.00  0.00    -0.348 OA
ATOM     30  H2  UNL     1      17.882  14.628   7.988  1.00  0.00     0.219 HD
ENDBRANCH   9  29
BRANCH   1  31
HETATM   31  C5  UNL     1      17.372  17.179  10.821  1.00  0.00     0.051 C 
BRANCH  31  32
HETATM   32  C3  UNL     1      16.810  15.952  11.393  1.00  0.00    -0.015 C 
HETATM   33  C4  UNL     1      17.293  15.451  12.704  1.00  0.00     0.010 C 
BRANCH  32  34
HETATM   34  C2  UNL     1      15.265  16.028  11.454  1.00  0.00    -0.000 C 
HETATM   35  C1  UNL     1      14.790  15.619  12.834  1.00  0.00     0.005 C 
ENDBRANCH  32  34
ENDBRANCH  31  32
ENDBRANCH   1  31
BRANCH  10  36
HETATM   36  C15 UNL     1      20.509  15.182   5.222  1.00  0.00     0.008 C 
HETATM   37  C16 UNL     1      20.067  13.746   4.929  1.00  0.00     0.012 C 
HETATM   38  C17 UNL     1      21.914  15.290   4.691  1.00  0.00     0.012 C 
ENDBRANCH  10  36
BRANCH  18  39
HETATM   39  C26 UNL     1      22.005  17.985  12.204  1.00  0.00     0.011 C 
BRANCH  39  40
HETATM   40  C27 UNL     1      22.829  18.286  13.384  1.00  0.00     0.002 C 
HETATM   41  C28 UNL     1      24.033  17.275  13.259  1.00  0.00     0.013 C 
HETATM   42  C29 UNL     1      22.198  17.832  14.695  1.00  0.00     0.013 C 
ENDBRANCH  39  40
ENDBRANCH  18  39
BRANCH  13  43
HETATM   43  O3  UNL     1      22.650  17.766   8.330  1.00  0.00    -0.348 OA
ATOM     44  H3  UNL     1      22.162  18.248   8.987  1.00  0.00     0.219 HD
ENDBRANCH  13  43
BRANCH  17  45
HETATM   45  O4  UNL     1      20.725  14.810  12.351  1.00  0.00    -0.345 OA
ATOM     46  H4  UNL     1      20.267  14.127  11.875  1.00  0.00     0.219 HD
ENDBRANCH  17  45
BRANCH  14  47
HETATM   47  C20 UNL     1      23.504  14.503   9.310  1.00  0.00     0.037 C 
BRANCH  47  48
HETATM   48  C21 UNL     1      22.766  13.231   9.188  1.00  0.00    -0.020 C 
HETATM   49  C22 UNL     1      23.008  12.699   7.753  1.00  0.00     0.009 C 
HETATM   50  C23 UNL     1      23.154  12.104  10.076  1.00  0.00     0.009 C 
ENDBRANCH  47  48
ENDBRANCH  14  47
TORSDOF 15
ENDMDL
MODEL 3
REMARK VINA RESULT: -5.911017861      2.075      2.510
REMARK  15 active torsions:
REMARK  status: ('A' for Active; 'I' for Inactive)
REMARK    1  A    between atoms: C2_2  and  C3_3 
REMARK    2  A    between atoms: C3_3  and  C5_5 
REMARK    3  A    between atoms: C5_5  and  C6_6 
REMARK    4  A    between atoms: C8_11  and  C9_12 
REMARK    5  A    between atoms: C9_12  and  C10_13 
REMARK    6  A    between atoms: C10_13  and  C11_14 
REMARK    7  A    between atoms: C11_14  and  N2_15 
REMARK    8  A    between atoms: C13_22  and  O2_23 
REMARK    9  A    between atoms: C14_25  and  C15_26 
REMARK   10  A    between atoms: C18_31  and  O3_32 
REMARK   11  A    between atoms: C19_34  and  C20_35 
REMARK   12  A    between atoms: C20_35  and  C21_36 
REMARK   13  A    between atoms: C24_41  and  O4_42 
REMARK   14  A    between atoms: C25_44  and  C26_45 
REMARK   15  A    between atoms: C26_45  and  C27_46 
ROOT
HETATM    1  C6  UNL     1      18.901  17.668  10.699  1.00  0.00     0.187 C 
HETATM    2  N1  UNL     1      19.353  18.078   9.375  1.00  0.00    -0.335 N 
ATOM      3  H1  UNL     1      20.181  18.671   9.411  1.00  0.00     0.164 HD
HETATM    4  C7  UNL     1      18.927  17.853   8.092  1.00  0.00     0.265 C 
HETATM    5  O1  UNL     1      18.490  18.911   7.481  1.00  0.00    -0.266 OA
HETATM    6  C8  UNL     1      18.847  16.667   7.219  1.00  0.00     0.079 C 
HETATM    7  N5  UNL     1      18.997  15.380   7.801  1.00  0.00    -0.338 N 
ATOM      8  H5  UNL     1      18.169  14.797   7.679  1.00  0.00     0.167 HD
HETATM    9  C13 UNL     1      19.999  14.736   8.493  1.00  0.00     0.139 C 
HETATM   10  C14 UNL     1      21.413  14.474   8.217  1.00  0.00     0.161 C 
HETATM   11  N6  UNL     1      22.345  15.526   8.174  1.00  0.00    -0.360 N 
ATOM     12  H6  UNL     1      22.870  15.542   7.300  1.00  0.00     0.162 HD
HETATM   13  C18 UNL     1      22.723  16.551   9.038  1.00  0.00     0.135 C 
HETATM   14  C19 UNL     1      23.025  16.570  10.466  1.00  0.00     0.158 C 
HETATM   15  N7  UNL     1      21.875  16.498  11.328  1.00  0.00    -0.357 N 
ATOM     16  H7  UNL     1      21.458  15.567  11.287  1.00  0.00     0.162 HD
HETATM   17  C24 UNL     1      21.175  17.295  12.180  1.00  0.00     0.163 C 
HETATM   18  C25 UNL     1      20.616  18.683  12.120  1.00  0.00     0.079 C 
HETATM   19  N8  UNL     1      19.306  18.729  11.612  1.00  0.00    -0.360 N 
HETATM   20  C30 UNL     1      18.762  19.924  11.108  1.00  0.00     0.152 C 
ENDROOT
BRANCH   6  21
HETATM   21  C9  UNL     1      19.632  16.816   5.924  1.00  0.00     0.064 C 
BRANCH  21  22
HETATM   22  C10 UNL     1      18.894  16.544   4.672  1.00  0.00     0.026 C 
BRANCH  22  23
HETATM   23  C11 UNL     1      17.664  17.374   4.433  1.00  0.00     0.122 C 
BRANCH  23  24
HETATM   24  N2  UNL     1      17.219  17.070   3.079  1.00  0.00    -0.367 N 
HETATM   25  C12 UNL     1      17.516  17.780   2.064  1.00  0.00     0.196 C 
HETATM   26  N3  UNL     1      18.315  18.950   2.125  1.00  0.00    -0.067 NA
HETATM   27  N4  UNL     1      17.019  17.374   0.795  1.00  0.00    -0.067 NA
ATOM     28  H2  UNL     1      16.639  16.244   2.936  1.00  0.00     0.161 HD
ENDBRANCH  23  24
ENDBRANCH  22  23
ENDBRANCH  21  22
ENDBRANCH   6  21
BRANCH   9  29
HETATM   29  O2  UNL     1      19.580  14.256   9.632  1.00  0.00    -0.348 OA
ATOM     30  H2  UNL     1      20.088  13.505   9.912  1.00  0.00     0.219 HD
ENDBRANCH   9  29
BRANCH   1  31
HETATM   31  C5  UNL     1      17.442  17.325  10.749  1.00  0.00     0.051 C 
BRANCH  31  32
HETATM   32  C3  UNL     1      17.105  16.016  11.318  1.00  0.00    -0.015 C 
HETATM   33  C4  UNL     1      17.839  15.508  12.503  1.00  0.00     0.010 C 
BRANCH  32  34
HETATM   34  C2  UNL     1      15.589  15.920  11.621  1.00  0.00    -0.000 C 
HETATM   35  C1  UNL     1      15.385  15.542  13.074  1.00  0.00     0.005 C 
ENDBRANCH  32  34
ENDBRANCH  31  32
ENDBRANCH   1  31
BRANCH  10  36
HETATM   36  C15 UNL     1      21.523  13.567   6.956  1.00  0.00     0.008 C 
HETATM   37  C16 UNL     1      22.318  12.315   7.338  1.00  0.00     0.012 C 
HETATM   38  C17 UNL     1      22.391  14.315   5.978  1.00  0.00     0.012 C 
ENDBRANCH  10  36
BRANCH  18  39
HETATM   39  C26 UNL     1      21.675  19.618  11.668  1.00  0.00     0.011 C 
BRANCH  39  40
HETATM   40  C27 UNL     1      22.478  20.416  12.607  1.00  0.00     0.002 C 
HETATM   41  C28 UNL     1      21.534  20.566  13.861  1.00  0.00     0.013 C 
HETATM   42  C29 UNL     1      22.637  21.871  12.183  1.00  0.00     0.013 C 
ENDBRANCH  39  40
ENDBRANCH  18  39
BRANCH  13  43
HETATM   43  O3  UNL     1      22.816  17.700   8.429  1.00  0.00    -0.348 OA
ATOM     44  H3  UNL     1      22.262  18.362   8.824  1.00  0.00     0.219 HD
ENDBRANCH  13  43
BRANCH  17  45
HETATM   45  O4  UNL     1      20.926  16.721  13.335  1.00  0.00    -0.345 OA
ATOM     46  H4  UNL     1      20.507  15.873  13.247  1.00  0.00     0.219 HD
ENDBRANCH  17  45
BRANCH  14  47
HETATM   47  C20 UNL     1      24.068  15.561  10.918  1.00  0.00     0.037 C 
BRANCH  47  48
HETATM   48  C21 UNL     1      23.568  14.268  11.427  1.00  0.00    -0.020 C 
HETATM   49  C22 UNL     1      24.132  13.164  10.498  1.00  0.00     0.009 C 
HETATM   50  C23 UNL     1      23.970  13.849  12.795  1.00  0.00     0.009 C 
ENDBRANCH  47  48
ENDBRANCH  14  47
TORSDOF 15
ENDMDL
MODEL 4
REMARK VINA RESULT: -5.863602845      1.633      1.960
REMARK  15 active torsions:
REMARK  status: ('A' for Active; 'I' for Inactive)
REMARK    1  A    between atoms: C2_2  and  C3_3 
REMARK    2  A    between atoms: C3_3  and  C5_5 
REMARK    3  A    between atoms: C5_5  and  C6_6 
REMARK    4  A    between atoms: C8_11  and  C9_12 
REMARK    5  A    between atoms: C9_12  and  C10_13 
REMARK    6  A    between atoms: C10_13  and  C11_14 
REMARK    7  A    between atoms: C11_14  and  N2_15 
REMARK    8  A    between atoms: C13_22  and  O2_23 
REMARK    9  A    between atoms: C14_25  and  C15_26 
REMARK   10  A    between atoms: C18_31  and  O3_32 
REMARK   11  A    between atoms: C19_34  and  C20_35 
REMARK   12  A    between atoms: C20_35  and  C21_36 
REMARK   13  A    between atoms: C24_41  and  O4_42 
REMARK   14  A    between atoms: C25_44  and  C26_45 
REMARK   15  A    between atoms: C26_45  and  C27_46 
ROOT
HETATM    1  C6  UNL     1      18.972  17.538  10.683  1.00  0.00     0.187 C 
HETATM    2  N1  UNL     1      19.406  18.270   9.500  1.00  0.00    -0.335 N 
ATOM      3  H1  UNL     1      20.307  18.727   9.633  1.00  0.00     0.164 HD
HETATM    4  C7  UNL     1      18.888  18.489   8.250  1.00  0.00     0.265 C 
HETATM    5  O1  UNL     1      18.567  19.724   8.013  1.00  0.00    -0.266 OA
HETATM    6  C8  UNL     1      18.604  17.635   7.082  1.00  0.00     0.079 C 
HETATM    7  N5  UNL     1      18.609  16.225   7.250  1.00  0.00    -0.338 N 
ATOM      8  H5  UNL     1      17.705  15.803   7.038  1.00  0.00     0.167 HD
HETATM    9  C13 UNL     1      19.550  15.294   7.633  1.00  0.00     0.139 C 
HETATM   10  C14 UNL     1      20.899  14.968   7.168  1.00  0.00     0.161 C 
HETATM   11  N6  UNL     1      21.961  15.872   7.349  1.00  0.00    -0.360 N 
ATOM     12  H6  UNL     1      22.438  16.089   6.475  1.00  0.00     0.162 HD
HETATM   13  C18 UNL     1      22.518  16.542   8.436  1.00  0.00     0.135 C 
HETATM   14  C19 UNL     1      22.892  16.098   9.776  1.00  0.00     0.158 C 
HETATM   15  N7  UNL     1      21.789  15.903  10.678  1.00  0.00    -0.357 N 
ATOM     16  H7  UNL     1      21.249  15.081  10.407  1.00  0.00     0.162 HD
HETATM   17  C24 UNL     1      21.248  16.483  11.784  1.00  0.00     0.163 C 
HETATM   18  C25 UNL     1      20.878  17.879  12.178  1.00  0.00     0.079 C 
HETATM   19  N8  UNL     1      19.562  18.224  11.825  1.00  0.00    -0.360 N 
HETATM   20  C30 UNL     1      19.159  19.569  11.739  1.00  0.00     0.152 C 
ENDROOT
BRANCH   6  21
HETATM   21  C9  UNL     1      19.334  18.075   5.821  1.00  0.00     0.064 C 
BRANCH  21  22
HETATM   22  C10 UNL     1      18.864  17.486   4.549  1.00  0.00     0.026 C 
BRANCH  22  23
HETATM   23  C11 UNL     1      18.247  18.439   3.564  1.00  0.00     0.122 C 
BRANCH  23  24
HETATM   24  N2  UNL     1      17.961  17.663   2.364  1.00  0.00    -0.367 N 
HETATM   25  C12 UNL     1      17.104  18.009   1.489  1.00  0.00     0.196 C 
HETATM   26  N3  UNL     1      16.323  19.190   1.572  1.00  0.00    -0.067 NA
HETATM   27  N4  UNL     1      16.919  17.163   0.362  1.00  0.00    -0.067 NA
ATOM     28  H2  UNL     1      18.476  16.795   2.218  1.00  0.00     0.161 HD
ENDBRANCH  23  24
ENDBRANCH  22  23
ENDBRANCH  21  22
ENDBRANCH   6  21
BRANCH   9  29
HETATM   29  O2  UNL     1      19.129  14.547   8.617  1.00  0.00    -0.348 OA
ATOM     30  H2  UNL     1      19.403  13.643   8.521  1.00  0.00     0.219 HD
ENDBRANCH   9  29
BRANCH   1  31
HETATM   31  C5  UNL     1      17.484  17.363  10.761  1.00  0.00     0.051 C 
BRANCH  31  32
HETATM   32  C3  UNL     1      17.009  16.038  11.173  1.00  0.00    -0.015 C 
HETATM   33  C4  UNL     1      17.683  15.316  12.280  1.00  0.00     0.010 C 
BRANCH  32  34
HETATM   34  C2  UNL     1      15.492  16.066  11.477  1.00  0.00    -0.000 C 
HETATM   35  C1  UNL     1      15.250  15.601  12.900  1.00  0.00     0.005 C 
ENDBRANCH  32  34
ENDBRANCH  31  32
ENDBRANCH   1  31
BRANCH  10  36
HETATM   36  C15 UNL     1      20.821  14.473   5.693  1.00  0.00     0.008 C 
HETATM   37  C16 UNL     1      21.200  12.990   5.669  1.00  0.00     0.012 C 
HETATM   38  C17 UNL     1      21.923  15.186   4.955  1.00  0.00     0.012 C 
ENDBRANCH  10  36
BRANCH  18  39
HETATM   39  C26 UNL     1      22.029  18.781  11.925  1.00  0.00     0.011 C 
BRANCH  39  40
HETATM   40  C27 UNL     1      22.685  19.545  12.996  1.00  0.00     0.002 C 
HETATM   41  C28 UNL     1      21.995  19.006  14.308  1.00  0.00     0.013 C 
HETATM   42  C29 UNL     1      22.275  21.013  13.030  1.00  0.00     0.013 C 
ENDBRANCH  39  40
ENDBRANCH  18  39
BRANCH  13  43
HETATM   43  O3  UNL     1      22.733  17.802   8.180  1.00  0.00    -0.348 OA
ATOM     44  H3  UNL     1      23.615  17.959   7.866  1.00  0.00     0.219 HD
ENDBRANCH  13  43
BRANCH  17  45
HETATM   45  O4  UNL     1      20.983  15.622  12.740  1.00  0.00    -0.345 OA
ATOM     46  H4  UNL     1      20.855  14.737  12.419  1.00  0.00     0.219 HD
ENDBRANCH  17  45
BRANCH  14  47
HETATM   47  C20 UNL     1      23.811  14.889   9.820  1.00  0.00     0.037 C 
BRANCH  47  48
HETATM   48  C21 UNL     1      23.166  13.564   9.914  1.00  0.00    -0.020 C 
HETATM   49  C22 UNL     1      23.550  12.780   8.634  1.00  0.00     0.009 C 
HETATM   50  C23 UNL     1      23.557  12.669  11.034  1.00  0.00     0.009 C 
ENDBRANCH  47  48
ENDBRANCH  14  47
TORSDOF 15
ENDMDL
MODEL 5
REMARK VINA RESULT: -5.863368864     10.385     15.499
REMARK  15 active torsions:
REMARK  status: ('A' for Active; 'I' for Inactive)
REMARK    1  A    between atoms: C2_2  and  C3_3 
REMARK    2  A    between atoms: C3_3  and  C5_5 
REMARK    3  A    between atoms: C5_5  and  C6_6 
REMARK    4  A    between atoms: C8_11  and  C9_12 
REMARK    5  A    between atoms: C9_12  and  C10_13 
REMARK    6  A    between atoms: C10_13  and  C11_14 
REMARK    7  A    between atoms: C11_14  and  N2_15 
REMARK    8  A    between atoms: C13_22  and  O2_23 
REMARK    9  A    between atoms: C14_25  and  C15_26 
REMARK   10  A    between atoms: C18_31  and  O3_32 
REMARK   11  A    between atoms: C19_34  and  C20_35 
REMARK   12  A    between atoms: C20_35  and  C21_36 
REMARK   13  A    between atoms: C24_41  and  O4_42 
REMARK   14  A    between atoms: C25_44  and  C26_45 
REMARK   15  A    between atoms: C26_45  and  C27_46 
ROOT
HETATM    1  C6  UNL     1      10.220  24.987   2.819  1.00  0.00     0.187 C 
HETATM    2  N1  UNL     1       9.054  24.470   3.524  1.00  0.00    -0.335 N 
ATOM      3  H1  UNL     1       9.291  23.717   4.170  1.00  0.00     0.164 HD
HETATM    4  C7  UNL     1       7.714  24.757   3.524  1.00  0.00     0.265 C 
HETATM    5  O1  UNL     1       6.963  23.804   3.065  1.00  0.00    -0.266 OA
HETATM    6  C8  UNL     1       6.903  25.918   3.934  1.00  0.00     0.079 C 
HETATM    7  N5  UNL     1       7.558  27.154   4.180  1.00  0.00    -0.338 N 
ATOM      8  H5  UNL     1       7.238  27.896   3.557  1.00  0.00     0.167 HD
HETATM    9  C13 UNL     1       8.523  27.587   5.063  1.00  0.00     0.139 C 
HETATM   10  C14 UNL     1       8.655  27.541   6.520  1.00  0.00     0.161 C 
HETATM   11  N6  UNL     1       8.825  26.317   7.190  1.00  0.00    -0.360 N 
ATOM     12  H6  UNL     1       8.128  26.176   7.921  1.00  0.00     0.162 HD
HETATM   13  C18 UNL     1       9.715  25.250   7.096  1.00  0.00     0.135 C 
HETATM   14  C19 UNL     1      11.170  25.193   6.981  1.00  0.00     0.158 C 
HETATM   15  N7  UNL     1      11.686  25.519   5.678  1.00  0.00    -0.357 N 
ATOM     16  H7  UNL     1      11.573  26.515   5.489  1.00  0.00     0.162 HD
HETATM   17  C24 UNL     1      12.281  24.901   4.621  1.00  0.00     0.163 C 
HETATM   18  C25 UNL     1      12.012  23.660   3.827  1.00  0.00     0.079 C 
HETATM   19  N8  UNL     1      11.164  23.881   2.728  1.00  0.00    -0.360 N 
HETATM   20  C30 UNL     1      10.480  22.818   2.110  1.00  0.00     0.152 C 
ENDROOT
BRANCH   6  21
HETATM   21  C9  UNL     1       5.867  25.586   4.998  1.00  0.00     0.064 C 
BRANCH  21  22
HETATM   22  C10 UNL     1       4.455  25.847   4.646  1.00  0.00     0.026 C 
BRANCH  22  23
HETATM   23  C11 UNL     1       3.716  24.717   3.984  1.00  0.00     0.122 C 
BRANCH  23  24
HETATM   24  N2  UNL     1       4.313  23.486   4.488  1.00  0.00    -0.367 N 
HETATM   25  C12 UNL     1       3.907  22.324   4.166  1.00  0.00     0.196 C 
HETATM   26  N3  UNL     1       2.827  22.082   3.279  1.00  0.00    -0.067 NA
HETATM   27  N4  UNL     1       4.575  21.202   4.727  1.00  0.00    -0.067 NA
ATOM     28  H2  UNL     1       5.099  23.561   5.133  1.00  0.00     0.161 HD
ENDBRANCH  23  24
ENDBRANCH  22  23
ENDBRANCH  21  22
ENDBRANCH   6  21
BRANCH   9  29
HETATM   29  O2  UNL     1       9.523  28.162   4.453  1.00  0.00    -0.348 OA
ATOM     30  H2  UNL     1      10.330  27.671   4.550  1.00  0.00     0.219 HD
ENDBRANCH   9  29
BRANCH   1  31
HETATM   31  C5  UNL     1       9.883  25.629   1.506  1.00  0.00     0.051 C 
BRANCH  31  32
HETATM   32  C3  UNL     1       8.950  26.759   1.559  1.00  0.00    -0.015 C 
HETATM   33  C4  UNL     1       9.460  28.151   1.504  1.00  0.00     0.010 C 
BRANCH  32  34
HETATM   34  C2  UNL     1       7.846  26.614   0.484  1.00  0.00    -0.000 C 
HETATM   35  C1  UNL     1       8.358  27.139  -0.843  1.00  0.00     0.005 C 
ENDBRANCH  32  34
ENDBRANCH  31  32
ENDBRANCH   1  31
BRANCH  10  36
HETATM   36  C15 UNL     1       7.512  28.384   7.159  1.00  0.00     0.008 C 
HETATM   37  C16 UNL     1       7.991  28.879   8.526  1.00  0.00     0.012 C 
HETATM   38  C17 UNL     1       6.393  27.418   7.447  1.00  0.00     0.012 C 
ENDBRANCH  10  36
BRANCH  18  39
HETATM   39  C26 UNL     1      11.828  22.516   4.754  1.00  0.00     0.011 C 
BRANCH  39  40
HETATM   40  C27 UNL     1      12.928  21.611   5.120  1.00  0.00     0.002 C 
HETATM   41  C28 UNL     1      13.217  21.975   6.627  1.00  0.00     0.013 C 
HETATM   42  C29 UNL     1      14.256  21.979   4.468  1.00  0.00     0.013 C 
ENDBRANCH  39  40
ENDBRANCH  18  39
BRANCH  13  43
HETATM   43  O3  UNL     1       9.107  24.097   7.114  1.00  0.00    -0.348 OA
ATOM     44  H3  UNL     1       8.340  24.087   6.554  1.00  0.00     0.219 HD
ENDBRANCH  13  43
BRANCH  17  45
HETATM   45  O4  UNL     1      13.347  25.534   4.187  1.00  0.00    -0.345 OA
ATOM     46  H4  UNL     1      13.983  24.957   3.780  1.00  0.00     0.219 HD
ENDBRANCH  17  45
BRANCH  14  47
HETATM   47  C20 UNL     1      11.931  25.969   8.043  1.00  0.00     0.037 C 
BRANCH  47  48
HETATM   48  C21 UNL     1      11.133  26.569   9.130  1.00  0.00    -0.020 C 
HETATM   49  C22 UNL     1      11.276  25.642  10.365  1.00  0.00     0.009 C 
HETATM   50  C23 UNL     1      11.519  27.915   9.626  1.00  0.00     0.009 C 
ENDBRANCH  47  48
ENDBRANCH  14  47
TORSDOF 15
ENDMDL
