MODEL 1
REMARK VINA RESULT: -9.166861404      0.000      0.000
REMARK  14 active torsions:
REMARK  status: ('A' for Active; 'I' for Inactive)
REMARK    1  A    between atoms: C5_7  and  C6_8 
REMARK    2  A    between atoms: C6_8  and  O1_9 
REMARK    3  A    between atoms: C6_8  and  N2_11 
REMARK    4  A    between atoms: C12_17  and  C13_18 
REMARK       I    between atoms: C13_18  and  N3_20 
REMARK    5  A    between atoms: N3_20  and  C14_22 
REMARK    6  A    between atoms: C14_22  and  C15_23 
REMARK    7  A    between atoms: C14_22  and  C19_31 
REMARK    8  A    between atoms: C15_23  and  C16_24 
REMARK    9  A    between atoms: C16_24  and  C17_25 
REMARK   10  A    between atoms: C17_25  and  N4_26 
REMARK   11  A    between atoms: N7_34  and  C20_35 
REMARK   12  A    between atoms: C20_35  and  C21_36 
REMARK   13  A    between atoms: C21_36  and  C22_37 
REMARK   14  A    between atoms: C26_41  and  C27_42 
ROOT
HETATM    1  C27 UNL     1      12.005  25.770   8.424  1.00  0.00     0.133 C 
HETATM    2  C28 UNL     1      11.895  26.923   9.293  1.00  0.00     0.059 C 
HETATM    3  N8  UNL     1      11.833  27.844   9.989  1.00  0.00    -0.197 NA
ENDROOT
BRANCH   1   4
HETATM    4  C26 UNL     1      10.688  25.255   7.880  1.00  0.00     0.035 C 
HETATM    5  C4  UNL     1      10.701  24.899   6.460  1.00  0.00    -0.014 A 
HETATM    6  C3  UNL     1      10.213  25.715   5.483  1.00  0.00     0.017 A 
HETATM    7  C5  UNL     1      11.211  23.745   5.759  1.00  0.00     0.045 A 
HETATM    8  N1  UNL     1      10.379  25.173   4.281  1.00  0.00    -0.362 N 
HETATM    9  C31 UNL     1       9.567  27.006   5.856  1.00  0.00     0.057 C 
HETATM   10  C2  UNL     1      10.983  23.972   4.421  1.00  0.00     0.020 A 
ATOM     11  H1  UNL     1      10.097  25.595   3.397  1.00  0.00     0.165 HD
HETATM   12  C1  UNL     1      11.214  23.064   3.236  1.00  0.00     0.069 C 
HETATM   13  C30 UNL     1       8.801  26.770   7.111  1.00  0.00     0.007 C 
HETATM   14  C29 UNL     1       9.594  26.246   8.238  1.00  0.00     0.011 C 
BRANCH   7  15
HETATM   15  C6  UNL     1      11.945  22.697   6.402  1.00  0.00     0.151 C 
BRANCH  15  16
HETATM   16  O1  UNL     1      11.127  21.846   7.055  1.00  0.00    -0.345 OA
ATOM     17  H1  UNL     1      11.548  21.010   7.215  1.00  0.00     0.219 HD
ENDBRANCH  15  16
BRANCH  15  18
HETATM   18  N2  UNL     1      13.252  22.278   6.580  1.00  0.00    -0.360 N 
HETATM   19  C7  UNL     1      14.274  22.547   7.545  1.00  0.00     0.131 C 
HETATM   20  C8  UNL     1      15.391  23.319   6.906  1.00  0.00     0.022 C 
HETATM   21  C9  UNL     1      15.229  23.334   5.374  1.00  0.00     0.016 C 
HETATM   22  C25 UNL     1      16.696  22.538   7.143  1.00  0.00     0.129 C 
HETATM   23  C10 UNL     1      15.040  21.914   4.918  1.00  0.00     0.036 C 
HETATM   24  C11 UNL     1      13.814  21.302   5.533  1.00  0.00     0.132 C 
HETATM   25  C12 UNL     1      16.327  21.143   5.308  1.00  0.00     0.181 C 
HETATM   26  N7  UNL     1      16.474  21.205   6.688  1.00  0.00    -0.379 N 
BRANCH  25  27
HETATM   27  C13 UNL     1      16.289  19.814   4.650  1.00  0.00     0.241 C 
HETATM   28  O2  UNL     1      15.491  18.892   4.926  1.00  0.00    -0.271 OA
HETATM   29  N3  UNL     1      17.230  19.530   3.606  1.00  0.00    -0.345 N 
ATOM     30  H3  UNL     1      17.912  20.236   3.333  1.00  0.00     0.163 HD
BRANCH  29  31
HETATM   31  C14 UNL     1      17.216  18.231   2.933  1.00  0.00     0.185 C 
BRANCH  31  32
HETATM   32  C15 UNL     1      18.606  17.669   3.018  1.00  0.00     0.038 C 
BRANCH  32  33
HETATM   33  C16 UNL     1      19.127  17.714   4.403  1.00  0.00     0.022 C 
BRANCH  33  34
HETATM   34  C17 UNL     1      18.459  16.671   5.297  1.00  0.00     0.122 C 
BRANCH  34  35
HETATM   35  N4  UNL     1      18.575  17.003   6.696  1.00  0.00    -0.367 N 
HETATM   36  C18 UNL     1      18.781  16.128   7.625  1.00  0.00     0.196 C 
HETATM   37  N5  UNL     1      18.920  14.731   7.383  1.00  0.00    -0.067 NA
HETATM   38  N6  UNL     1      18.871  16.608   8.960  1.00  0.00    -0.067 NA
ATOM     39  H4  UNL     1      18.488  17.983   6.967  1.00  0.00     0.161 HD
ENDBRANCH  34  35
ENDBRANCH  33  34
ENDBRANCH  32  33
ENDBRANCH  31  32
BRANCH  31  40
HETATM   40  C19 UNL     1      16.766  18.371   1.557  1.00  0.00     0.196 C 
HETATM   41  O3  UNL     1      16.147  19.459   1.253  1.00  0.00    -0.646 OA
HETATM   42  O4  UNL     1      16.907  17.490   0.521  1.00  0.00    -0.646 OA
ENDBRANCH  31  40
ENDBRANCH  29  31
ENDBRANCH  25  27
BRANCH  26  43
HETATM   43  C20 UNL     1      16.949  20.149   7.464  1.00  0.00     0.059 C 
BRANCH  43  44
HETATM   44  C21 UNL     1      17.943  20.399   8.538  1.00  0.00     0.049 C 
BRANCH  44  45
HETATM   45  C22 UNL     1      17.438  20.260   9.950  1.00  0.00    -0.010 A 
HETATM   46  C23 UNL     1      16.391  19.188  10.109  1.00  0.00     0.005 A 
HETATM   47  C24 UNL     1      16.035  20.646  10.278  1.00  0.00     0.005 A 
ENDBRANCH  44  45
ENDBRANCH  43  44
ENDBRANCH  26  43
ENDBRANCH  15  18
ENDBRANCH   7  15
ENDBRANCH   1   4
TORSDOF 14
ENDMDL
MODEL 2
REMARK VINA RESULT: -9.140581509      3.025     10.572
REMARK  14 active torsions:
REMARK  status: ('A' for Active; 'I' for Inactive)
REMARK    1  A    between atoms: C5_7  and  C6_8 
REMARK    2  A    between atoms: C6_8  and  O1_9 
REMARK    3  A    between atoms: C6_8  and  N2_11 
REMARK    4  A    between atoms: C12_17  and  C13_18 
REMARK       I    between atoms: C13_18  and  N3_20 
REMARK    5  A    between atoms: N3_20  and  C14_22 
REMARK    6  A    between atoms: C14_22  and  C15_23 
REMARK    7  A    between atoms: C14_22  and  C19_31 
REMARK    8  A    between atoms: C15_23  and  C16_24 
REMARK    9  A    between atoms: C16_24  and  C17_25 
REMARK   10  A    between atoms: C17_25  and  N4_26 
REMARK   11  A    between atoms: N7_34  and  C20_35 
REMARK   12  A    between atoms: C20_35  and  C21_36 
REMARK   13  A    between atoms: C21_36  and  C22_37 
REMARK   14  A    between atoms: C26_41  and  C27_42 
ROOT
HETATM    1  C27 UNL     1      14.523  20.358   3.324  1.00  0.00     0.133 C 
HETATM    2  C28 UNL     1      15.191  20.037   2.080  1.00  0.00     0.059 C 
HETATM    3  N8  UNL     1      15.711  19.800   1.075  1.00  0.00    -0.197 NA
ENDROOT
BRANCH   1   4
HETATM    4  C26 UNL     1      15.005  19.572   4.526  1.00  0.00     0.035 C 
HETATM    5  C4  UNL     1      15.842  20.322   5.463  1.00  0.00    -0.014 A 
HETATM    6  C3  UNL     1      17.202  20.232   5.486  1.00  0.00     0.017 A 
HETATM    7  C5  UNL     1      15.519  21.294   6.481  1.00  0.00     0.045 A 
HETATM    8  N1  UNL     1      17.720  21.042   6.402  1.00  0.00    -0.362 N 
HETATM    9  C31 UNL     1      17.892  19.277   4.571  1.00  0.00     0.057 C 
HETATM   10  C2  UNL     1      16.716  21.700   7.024  1.00  0.00     0.020 A 
ATOM     11  H1  UNL     1      18.714  21.151   6.603  1.00  0.00     0.165 HD
HETATM   12  C1  UNL     1      16.983  22.620   8.192  1.00  0.00     0.069 C 
HETATM   13  C30 UNL     1      17.043  18.057   4.485  1.00  0.00     0.007 C 
HETATM   14  C29 UNL     1      15.657  18.289   4.038  1.00  0.00     0.011 C 
BRANCH   7  15
HETATM   15  C6  UNL     1      14.195  21.796   6.694  1.00  0.00     0.151 C 
BRANCH  15  16
HETATM   16  O1  UNL     1      13.711  21.428   7.897  1.00  0.00    -0.345 OA
ATOM     17  H1  UNL     1      13.312  22.160   8.353  1.00  0.00     0.219 HD
ENDBRANCH  15  16
BRANCH  15  18
HETATM   18  N2  UNL     1      13.231  22.544   6.039  1.00  0.00    -0.360 N 
HETATM   19  C7  UNL     1      12.742  22.604   4.696  1.00  0.00     0.131 C 
HETATM   20  C8  UNL     1      13.122  23.914   4.071  1.00  0.00     0.022 C 
HETATM   21  C9  UNL     1      13.659  24.886   5.139  1.00  0.00     0.016 C 
HETATM   22  C25 UNL     1      11.832  24.583   3.564  1.00  0.00     0.129 C 
HETATM   23  C10 UNL     1      12.659  24.934   6.261  1.00  0.00     0.036 C 
HETATM   24  C11 UNL     1      12.469  23.581   6.882  1.00  0.00     0.132 C 
HETATM   25  C12 UNL     1      11.340  25.483   5.661  1.00  0.00     0.181 C 
HETATM   26  N7  UNL     1      10.920  24.617   4.660  1.00  0.00    -0.379 N 
BRANCH  25  27
HETATM   27  C13 UNL     1      10.414  25.790   6.779  1.00  0.00     0.241 C 
HETATM   28  O2  UNL     1       9.508  25.036   7.197  1.00  0.00    -0.271 OA
HETATM   29  N3  UNL     1      10.539  27.046   7.459  1.00  0.00    -0.345 N 
ATOM     30  H3  UNL     1      11.255  27.711   7.167  1.00  0.00     0.163 HD
BRANCH  29  31
HETATM   31  C14 UNL     1       9.646  27.378   8.569  1.00  0.00     0.185 C 
BRANCH  31  32
HETATM   32  C15 UNL     1       8.667  28.400   8.064  1.00  0.00     0.038 C 
BRANCH  32  33
HETATM   33  C16 UNL     1       7.273  27.909   8.157  1.00  0.00     0.022 C 
BRANCH  33  34
HETATM   34  C17 UNL     1       6.696  27.573   6.782  1.00  0.00     0.122 C 
BRANCH  34  35
HETATM   35  N4  UNL     1       7.619  27.884   5.718  1.00  0.00    -0.367 N 
HETATM   36  C18 UNL     1       7.493  27.444   4.509  1.00  0.00     0.196 C 
HETATM   37  N5  UNL     1       6.429  26.599   4.079  1.00  0.00    -0.067 NA
HETATM   38  N6  UNL     1       8.484  27.835   3.569  1.00  0.00    -0.067 NA
ATOM     39  H4  UNL     1       8.416  28.484   5.931  1.00  0.00     0.161 HD
ENDBRANCH  34  35
ENDBRANCH  33  34
ENDBRANCH  32  33
ENDBRANCH  31  32
BRANCH  31  40
HETATM   40  C19 UNL     1      10.405  27.863   9.710  1.00  0.00     0.196 C 
HETATM   41  O3  UNL     1      11.670  27.623   9.716  1.00  0.00    -0.646 OA
HETATM   42  O4  UNL     1       9.953  28.550  10.803  1.00  0.00    -0.646 OA
ENDBRANCH  31  40
ENDBRANCH  29  31
ENDBRANCH  25  27
BRANCH  26  43
HETATM   43  C20 UNL     1       9.584  24.296   4.424  1.00  0.00     0.059 C 
BRANCH  43  44
HETATM   44  C21 UNL     1       9.040  24.326   3.043  1.00  0.00     0.049 C 
BRANCH  44  45
HETATM   45  C22 UNL     1       8.605  23.000   2.475  1.00  0.00    -0.010 A 
HETATM   46  C23 UNL     1       9.471  21.848   2.915  1.00  0.00     0.005 A 
HETATM   47  C24 UNL     1       9.464  22.303   1.475  1.00  0.00     0.005 A 
ENDBRANCH  44  45
ENDBRANCH  43  44
ENDBRANCH  26  43
ENDBRANCH  15  18
ENDBRANCH   7  15
ENDBRANCH   1   4
TORSDOF 14
ENDMDL
MODEL 3
REMARK VINA RESULT: -9.114479851      1.036      1.086
REMARK  14 active torsions:
REMARK  status: ('A' for Active; 'I' for Inactive)
REMARK    1  A    between atoms: C5_7  and  C6_8 
REMARK    2  A    between atoms: C6_8  and  O1_9 
REMARK    3  A    between atoms: C6_8  and  N2_11 
REMARK    4  A    between atoms: C12_17  and  C13_18 
REMARK       I    between atoms: C13_18  and  N3_20 
REMARK    5  A    between atoms: N3_20  and  C14_22 
REMARK    6  A    between atoms: C14_22  and  C15_23 
REMARK    7  A    between atoms: C14_22  and  C19_31 
REMARK    8  A    between atoms: C15_23  and  C16_24 
REMARK    9  A    between atoms: C16_24  and  C17_25 
REMARK   10  A    between atoms: C17_25  and  N4_26 
REMARK   11  A    between atoms: N7_34  and  C20_35 
REMARK   12  A    between atoms: C20_35  and  C21_36 
REMARK   13  A    between atoms: C21_36  and  C22_37 
REMARK   14  A    between atoms: C26_41  and  C27_42 
ROOT
HETATM    1  C27 UNL     1      11.736  25.360   7.855  1.00  0.00     0.133 C 
HETATM    2  C28 UNL     1      11.792  26.432   8.825  1.00  0.00     0.059 C 
HETATM    3  N8  UNL     1      11.863  27.286   9.602  1.00  0.00    -0.197 NA
ENDROOT
BRANCH   1   4
HETATM    4  C26 UNL     1      10.357  25.083   7.291  1.00  0.00     0.035 C 
HETATM    5  C4  UNL     1      10.238  25.236   5.840  1.00  0.00    -0.014 A 
HETATM    6  C3  UNL     1       9.711  26.346   5.248  1.00  0.00     0.017 A 
HETATM    7  C5  UNL     1      10.636  24.385   4.744  1.00  0.00     0.045 A 
HETATM    8  N1  UNL     1       9.755  26.247   3.924  1.00  0.00    -0.362 N 
HETATM    9  C31 UNL     1       9.157  27.440   6.096  1.00  0.00     0.057 C 
HETATM   10  C2  UNL     1      10.312  25.061   3.591  1.00  0.00     0.020 A 
ATOM     11  H1  UNL     1       9.422  26.951   3.266  1.00  0.00     0.165 HD
HETATM   12  C1  UNL     1      10.404  24.612   2.151  1.00  0.00     0.069 C 
HETATM   13  C30 UNL     1       8.485  26.800   7.261  1.00  0.00     0.007 C 
HETATM   14  C29 UNL     1       9.342  25.908   8.064  1.00  0.00     0.011 C 
BRANCH   7  15
HETATM   15  C6  UNL     1      11.370  23.169   4.922  1.00  0.00     0.151 C 
BRANCH  15  16
HETATM   16  O1  UNL     1      10.682  22.102   4.469  1.00  0.00    -0.345 OA
ATOM     17  H1  UNL     1      11.255  21.462   4.064  1.00  0.00     0.219 HD
ENDBRANCH  15  16
BRANCH  15  18
HETATM   18  N2  UNL     1      12.581  22.731   5.431  1.00  0.00    -0.360 N 
HETATM   19  C7  UNL     1      13.354  23.038   6.595  1.00  0.00     0.131 C 
HETATM   20  C8  UNL     1      14.620  23.739   6.198  1.00  0.00     0.022 C 
HETATM   21  C9  UNL     1      14.827  23.656   4.673  1.00  0.00     0.016 C 
HETATM   22  C25 UNL     1      15.800  22.944   6.785  1.00  0.00     0.129 C 
HETATM   23  C10 UNL     1      14.695  22.213   4.269  1.00  0.00     0.036 C 
HETATM   24  C11 UNL     1      13.336  21.673   4.609  1.00  0.00     0.132 C 
HETATM   25  C12 UNL     1      15.821  21.439   5.000  1.00  0.00     0.181 C 
HETATM   26  N7  UNL     1      15.640  21.589   6.369  1.00  0.00    -0.379 N 
BRANCH  25  27
HETATM   27  C13 UNL     1      15.888  20.070   4.431  1.00  0.00     0.241 C 
HETATM   28  O2  UNL     1      15.198  19.097   4.804  1.00  0.00    -0.271 OA
HETATM   29  N3  UNL     1      16.809  19.806   3.365  1.00  0.00    -0.345 N 
ATOM     30  H3  UNL     1      17.407  20.554   3.014  1.00  0.00     0.163 HD
BRANCH  29  31
HETATM   31  C14 UNL     1      16.896  18.469   2.778  1.00  0.00     0.185 C 
BRANCH  31  32
HETATM   32  C15 UNL     1      18.272  17.942   3.069  1.00  0.00     0.038 C 
BRANCH  32  33
HETATM   33  C16 UNL     1      18.233  16.827   4.043  1.00  0.00     0.022 C 
BRANCH  33  34
HETATM   34  C17 UNL     1      19.581  16.625   4.731  1.00  0.00     0.122 C 
BRANCH  34  35
HETATM   35  N4  UNL     1      19.714  17.445   5.911  1.00  0.00    -0.367 N 
HETATM   36  C18 UNL     1      19.357  17.062   7.093  1.00  0.00     0.196 C 
HETATM   37  N5  UNL     1      18.789  15.787   7.377  1.00  0.00    -0.067 NA
HETATM   38  N6  UNL     1      19.549  17.983   8.158  1.00  0.00    -0.067 NA
ATOM     39  H4  UNL     1      20.112  18.379   5.806  1.00  0.00     0.161 HD
ENDBRANCH  34  35
ENDBRANCH  33  34
ENDBRANCH  32  33
ENDBRANCH  31  32
BRANCH  31  40
HETATM   40  C19 UNL     1      16.619  18.516   1.351  1.00  0.00     0.196 C 
HETATM   41  O3  UNL     1      16.050  19.580   0.901  1.00  0.00    -0.646 OA
HETATM   42  O4  UNL     1      16.880  17.568   0.401  1.00  0.00    -0.646 OA
ENDBRANCH  31  40
ENDBRANCH  29  31
ENDBRANCH  25  27
BRANCH  26  43
HETATM   43  C20 UNL     1      15.876  20.575   7.297  1.00  0.00     0.059 C 
BRANCH  43  44
HETATM   44  C21 UNL     1      17.074  20.627   8.172  1.00  0.00     0.049 C 
BRANCH  44  45
HETATM   45  C22 UNL     1      16.813  20.881   9.634  1.00  0.00    -0.010 A 
HETATM   46  C23 UNL     1      16.116  19.738  10.325  1.00  0.00     0.005 A 
HETATM   47  C24 UNL     1      15.413  21.059  10.119  1.00  0.00     0.005 A 
ENDBRANCH  44  45
ENDBRANCH  43  44
ENDBRANCH  26  43
ENDBRANCH  15  18
ENDBRANCH   7  15
ENDBRANCH   1   4
TORSDOF 14
ENDMDL
MODEL 4
REMARK VINA RESULT: -9.085170167      2.498      4.776
REMARK  14 active torsions:
REMARK  status: ('A' for Active; 'I' for Inactive)
REMARK    1  A    between atoms: C5_7  and  C6_8 
REMARK    2  A    between atoms: C6_8  and  O1_9 
REMARK    3  A    between atoms: C6_8  and  N2_11 
REMARK    4  A    between atoms: C12_17  and  C13_18 
REMARK       I    between atoms: C13_18  and  N3_20 
REMARK    5  A    between atoms: N3_20  and  C14_22 
REMARK    6  A    between atoms: C14_22  and  C15_23 
REMARK    7  A    between atoms: C14_22  and  C19_31 
REMARK    8  A    between atoms: C15_23  and  C16_24 
REMARK    9  A    between atoms: C16_24  and  C17_25 
REMARK   10  A    between atoms: C17_25  and  N4_26 
REMARK   11  A    between atoms: N7_34  and  C20_35 
REMARK   12  A    between atoms: C20_35  and  C21_36 
REMARK   13  A    between atoms: C21_36  and  C22_37 
REMARK   14  A    between atoms: C26_41  and  C27_42 
ROOT
HETATM    1  C27 UNL     1       9.716  25.130   4.747  1.00  0.00     0.133 C 
HETATM    2  C28 UNL     1       9.647  25.210   3.303  1.00  0.00     0.059 C 
HETATM    3  N8  UNL     1       9.589  25.247   2.149  1.00  0.00    -0.197 NA
ENDROOT
BRANCH   1   4
HETATM    4  C26 UNL     1       9.866  26.463   5.452  1.00  0.00     0.035 C 
HETATM    5  C4  UNL     1       9.961  26.386   6.910  1.00  0.00    -0.014 A 
HETATM    6  C3  UNL     1       8.908  26.631   7.741  1.00  0.00     0.017 A 
HETATM    7  C5  UNL     1      11.050  26.027   7.789  1.00  0.00     0.045 A 
HETATM    8  N1  UNL     1       9.251  26.455   9.012  1.00  0.00    -0.362 N 
HETATM    9  C31 UNL     1       7.604  27.068   7.166  1.00  0.00     0.057 C 
HETATM   10  C2  UNL     1      10.551  26.089   9.069  1.00  0.00     0.020 A 
ATOM     11  H1  UNL     1       8.633  26.577   9.814  1.00  0.00     0.165 HD
HETATM   12  C1  UNL     1      11.263  25.917  10.391  1.00  0.00     0.069 C 
HETATM   13  C30 UNL     1       7.907  27.974   6.023  1.00  0.00     0.007 C 
HETATM   14  C29 UNL     1       8.763  27.391   4.974  1.00  0.00     0.011 C 
BRANCH   7  15
HETATM   15  C6  UNL     1      12.315  25.552   7.316  1.00  0.00     0.151 C 
BRANCH  15  16
HETATM   16  O1  UNL     1      13.324  26.361   7.697  1.00  0.00    -0.345 OA
ATOM     17  H1  UNL     1      14.172  25.979   7.502  1.00  0.00     0.219 HD
ENDBRANCH  15  16
BRANCH  15  18
HETATM   18  N2  UNL     1      12.840  24.511   6.569  1.00  0.00    -0.360 N 
HETATM   19  C7  UNL     1      12.527  23.922   5.303  1.00  0.00     0.131 C 
HETATM   20  C8  UNL     1      12.003  22.530   5.503  1.00  0.00     0.022 C 
HETATM   21  C9  UNL     1      12.230  22.071   6.956  1.00  0.00     0.016 C 
HETATM   22  C25 UNL     1      12.873  21.577   4.663  1.00  0.00     0.129 C 
HETATM   23  C10 UNL     1      13.677  22.305   7.291  1.00  0.00     0.036 C 
HETATM   24  C11 UNL     1      14.036  23.758   7.175  1.00  0.00     0.132 C 
HETATM   25  C12 UNL     1      14.509  21.427   6.322  1.00  0.00     0.181 C 
HETATM   26  N7  UNL     1      14.231  21.825   5.021  1.00  0.00    -0.379 N 
BRANCH  25  27
HETATM   27  C13 UNL     1      15.917  21.429   6.787  1.00  0.00     0.241 C 
HETATM   28  O2  UNL     1      16.503  22.397   7.319  1.00  0.00    -0.271 OA
HETATM   29  N3  UNL     1      16.702  20.239   6.630  1.00  0.00    -0.345 N 
ATOM     30  H3  UNL     1      16.288  19.412   6.199  1.00  0.00     0.163 HD
BRANCH  29  31
HETATM   31  C14 UNL     1      18.092  20.206   7.083  1.00  0.00     0.185 C 
BRANCH  31  32
HETATM   32  C15 UNL     1      18.914  19.639   5.962  1.00  0.00     0.038 C 
BRANCH  32  33
HETATM   33  C16 UNL     1      18.063  19.194   4.834  1.00  0.00     0.022 C 
BRANCH  33  34
HETATM   34  C17 UNL     1      18.232  17.703   4.548  1.00  0.00     0.122 C 
BRANCH  34  35
HETATM   35  N4  UNL     1      18.237  16.917   5.757  1.00  0.00    -0.367 N 
HETATM   36  C18 UNL     1      18.849  15.784   5.872  1.00  0.00     0.196 C 
HETATM   37  N5  UNL     1      19.591  15.172   4.821  1.00  0.00    -0.067 NA
HETATM   38  N6  UNL     1      18.762  15.124   7.128  1.00  0.00    -0.067 NA
ATOM     39  H4  UNL     1      17.731  17.275   6.567  1.00  0.00     0.161 HD
ENDBRANCH  34  35
ENDBRANCH  33  34
ENDBRANCH  32  33
ENDBRANCH  31  32
BRANCH  31  40
HETATM   40  C19 UNL     1      18.216  19.422   8.303  1.00  0.00     0.196 C 
HETATM   41  O3  UNL     1      19.140  18.526   8.330  1.00  0.00    -0.646 OA
HETATM   42  O4  UNL     1      17.470  19.505   9.446  1.00  0.00    -0.646 OA
ENDBRANCH  31  40
ENDBRANCH  29  31
ENDBRANCH  25  27
BRANCH  26  43
HETATM   43  C20 UNL     1      15.186  21.881   4.007  1.00  0.00     0.059 C 
BRANCH  43  44
HETATM   44  C21 UNL     1      14.967  21.154   2.732  1.00  0.00     0.049 C 
BRANCH  44  45
HETATM   45  C22 UNL     1      15.416  19.716   2.707  1.00  0.00    -0.010 A 
HETATM   46  C23 UNL     1      16.061  19.312   1.407  1.00  0.00     0.005 A 
HETATM   47  C24 UNL     1      14.726  18.738   1.817  1.00  0.00     0.005 A 
ENDBRANCH  44  45
ENDBRANCH  43  44
ENDBRANCH  26  43
ENDBRANCH  15  18
ENDBRANCH   7  15
ENDBRANCH   1   4
TORSDOF 14
ENDMDL
MODEL 5
REMARK VINA RESULT: -9.078057814      3.388     10.114
REMARK  14 active torsions:
REMARK  status: ('A' for Active; 'I' for Inactive)
REMARK    1  A    between atoms: C5_7  and  C6_8 
REMARK    2  A    between atoms: C6_8  and  O1_9 
REMARK    3  A    between atoms: C6_8  and  N2_11 
REMARK    4  A    between atoms: C12_17  and  C13_18 
REMARK       I    between atoms: C13_18  and  N3_20 
REMARK    5  A    between atoms: N3_20  and  C14_22 
REMARK    6  A    between atoms: C14_22  and  C15_23 
REMARK    7  A    between atoms: C14_22  and  C19_31 
REMARK    8  A    between atoms: C15_23  and  C16_24 
REMARK    9  A    between atoms: C16_24  and  C17_25 
REMARK   10  A    between atoms: C17_25  and  N4_26 
REMARK   11  A    between atoms: N7_34  and  C20_35 
REMARK   12  A    between atoms: C20_35  and  C21_36 
REMARK   13  A    between atoms: C21_36  and  C22_37 
REMARK   14  A    between atoms: C26_41  and  C27_42 
ROOT
HETATM    1  C27 UNL     1      15.363  22.642   8.714  1.00  0.00     0.133 C 
HETATM    2  C28 UNL     1      15.343  21.551   9.666  1.00  0.00     0.059 C 
HETATM    3  N8  UNL     1      15.304  20.689  10.435  1.00  0.00    -0.197 NA
ENDROOT
BRANCH   1   4
HETATM    4  C26 UNL     1      16.522  22.614   7.739  1.00  0.00     0.035 C 
HETATM    5  C4  UNL     1      16.253  21.924   6.477  1.00  0.00    -0.014 A 
HETATM    6  C3  UNL     1      16.660  20.647   6.223  1.00  0.00     0.017 A 
HETATM    7  C5  UNL     1      15.529  22.323   5.293  1.00  0.00     0.045 A 
HETATM    8  N1  UNL     1      16.256  20.246   5.024  1.00  0.00    -0.362 N 
HETATM    9  C31 UNL     1      17.480  19.921   7.236  1.00  0.00     0.057 C 
HETATM   10  C2  UNL     1      15.567  21.249   4.435  1.00  0.00     0.020 A 
ATOM     11  H1  UNL     1      16.437  19.330   4.613  1.00  0.00     0.165 HD
HETATM   12  C1  UNL     1      15.066  21.131   3.014  1.00  0.00     0.069 C 
HETATM   13  C30 UNL     1      18.406  20.915   7.849  1.00  0.00     0.007 C 
HETATM   14  C29 UNL     1      17.750  22.086   8.460  1.00  0.00     0.011 C 
BRANCH   7  15
HETATM   15  C6  UNL     1      14.806  23.554   5.195  1.00  0.00     0.151 C 
BRANCH  15  16
HETATM   16  O1  UNL     1      15.498  24.484   4.506  1.00  0.00    -0.345 OA
ATOM     17  H1  UNL     1      15.034  25.312   4.472  1.00  0.00     0.219 HD
ENDBRANCH  15  16
BRANCH  15  18
HETATM   18  N2  UNL     1      13.602  24.108   5.599  1.00  0.00    -0.360 N 
HETATM   19  C7  UNL     1      13.117  24.684   6.815  1.00  0.00     0.131 C 
HETATM   20  C8  UNL     1      12.060  23.801   7.412  1.00  0.00     0.022 C 
HETATM   21  C9  UNL     1      11.630  22.717   6.406  1.00  0.00     0.016 C 
HETATM   22  C25 UNL     1      10.795  24.654   7.614  1.00  0.00     0.129 C 
HETATM   23  C10 UNL     1      11.289  23.401   5.111  1.00  0.00     0.036 C 
HETATM   24  C11 UNL     1      12.472  24.142   4.557  1.00  0.00     0.132 C 
HETATM   25  C12 UNL     1      10.101  24.351   5.406  1.00  0.00     0.181 C 
HETATM   26  N7  UNL     1      10.504  25.274   6.363  1.00  0.00    -0.379 N 
BRANCH  25  27
HETATM   27  C13 UNL     1       9.569  24.845   4.112  1.00  0.00     0.241 C 
HETATM   28  O2  UNL     1      10.255  25.100   3.098  1.00  0.00    -0.271 OA
HETATM   29  N3  UNL     1       8.159  25.060   3.978  1.00  0.00    -0.345 N 
ATOM     30  H3  UNL     1       7.540  24.877   4.768  1.00  0.00     0.163 HD
BRANCH  29  31
HETATM   31  C14 UNL     1       7.601  25.541   2.714  1.00  0.00     0.185 C 
BRANCH  31  32
HETATM   32  C15 UNL     1       7.156  26.959   2.933  1.00  0.00     0.038 C 
BRANCH  32  33
HETATM   33  C16 UNL     1       7.001  27.264   4.374  1.00  0.00     0.022 C 
BRANCH  33  34
HETATM   34  C17 UNL     1       5.571  27.674   4.718  1.00  0.00     0.122 C 
BRANCH  34  35
HETATM   35  N4  UNL     1       4.676  26.542   4.748  1.00  0.00    -0.367 N 
HETATM   36  C18 UNL     1       4.143  26.080   5.831  1.00  0.00     0.196 C 
HETATM   37  N5  UNL     1       4.372  26.628   7.126  1.00  0.00    -0.067 NA
HETATM   38  N6  UNL     1       3.282  24.956   5.701  1.00  0.00    -0.067 NA
ATOM     39  H4  UNL     1       4.452  26.082   3.866  1.00  0.00     0.161 HD
ENDBRANCH  34  35
ENDBRANCH  33  34
ENDBRANCH  32  33
ENDBRANCH  31  32
BRANCH  31  40
HETATM   40  C19 UNL     1       6.510  24.686   2.276  1.00  0.00     0.196 C 
HETATM   41  O3  UNL     1       6.460  24.398   1.021  1.00  0.00    -0.646 OA
HETATM   42  O4  UNL     1       5.506  24.137   3.024  1.00  0.00    -0.646 OA
ENDBRANCH  31  40
ENDBRANCH  29  31
ENDBRANCH  25  27
BRANCH  26  43
HETATM   43  C20 UNL     1      10.120  26.614   6.357  1.00  0.00     0.059 C 
BRANCH  43  44
HETATM   44  C21 UNL     1       9.172  27.125   7.379  1.00  0.00     0.049 C 
BRANCH  44  45
HETATM   45  C22 UNL     1       9.733  28.121   8.360  1.00  0.00    -0.010 A 
HETATM   46  C23 UNL     1      10.137  27.505   9.673  1.00  0.00     0.005 A 
HETATM   47  C24 UNL     1       8.968  28.458   9.595  1.00  0.00     0.005 A 
ENDBRANCH  44  45
ENDBRANCH  43  44
ENDBRANCH  26  43
ENDBRANCH  15  18
ENDBRANCH   7  15
ENDBRANCH   1   4
TORSDOF 14
ENDMDL
