MODEL 1
REMARK VINA RESULT: -6.850512636      0.000      0.000
REMARK  14 active torsions:
REMARK  status: ('A' for Active; 'I' for Inactive)
REMARK    1  A    between atoms: C2_2  and  C3_3 
REMARK    2  A    between atoms: C3_3  and  C4_4 
REMARK    3  A    between atoms: C4_4  and  C5_5 
REMARK    4  A    between atoms: C5_5  and  C6_6 
REMARK    5  A    between atoms: C6_6  and  C7_7 
REMARK    6  A    between atoms: C8_8  and  C9_9 
REMARK    7  A    between atoms: C17_23  and  C18_24 
REMARK    8  A    between atoms: C18_24  and  C19_25 
REMARK    9  A    between atoms: C19_25  and  C20_26 
REMARK   10  A    between atoms: C20_26  and  C21_27 
REMARK   11  A    between atoms: C21_27  and  N3_28 
REMARK   12  A    between atoms: C22_34  and  O3_35 
REMARK   13  A    between atoms: C23_37  and  C24_38 
REMARK   14  A    between atoms: C24_38  and  C25_39 
ROOT
HETATM    1  C9  UNL     1      18.635  19.528   5.347  1.00  0.00     0.107 C 
HETATM    2  C10 UNL     1      18.775  19.485   6.826  1.00  0.00     0.029 C 
HETATM    3  C11 UNL     1      17.989  20.515   7.586  1.00  0.00     0.004 C 
HETATM    4  C12 UNL     1      17.198  19.906   8.721  1.00  0.00     0.020 C 
HETATM    5  C13 UNL     1      17.731  20.388  10.048  1.00  0.00     0.122 C 
HETATM    6  N1  UNL     1      19.074  19.870  10.263  1.00  0.00    -0.360 N 
ATOM      7  H1  UNL     1      19.576  19.496   9.458  1.00  0.00     0.162 HD
HETATM    8  C14 UNL     1      19.727  19.853  11.510  1.00  0.00     0.235 C 
HETATM    9  O1  UNL     1      20.915  20.295  11.557  1.00  0.00    -0.272 OA
HETATM   10  C15 UNL     1      19.043  19.338  12.704  1.00  0.00     0.225 C 
HETATM   11  N2  UNL     1      19.899  18.728  13.689  1.00  0.00    -0.347 N 
ATOM     12  H2  UNL     1      19.832  19.123  14.628  1.00  0.00     0.163 HD
HETATM   13  C16 UNL     1      20.803  17.678  13.551  1.00  0.00     0.264 C 
HETATM   14  O2  UNL     1      22.025  17.929  13.874  1.00  0.00    -0.266 OA
HETATM   15  C17 UNL     1      20.602  16.291  13.088  1.00  0.00     0.079 C 
HETATM   16  N4  UNL     1      21.600  15.783  12.189  1.00  0.00    -0.338 N 
ATOM     17  H4  UNL     1      22.533  15.773  12.601  1.00  0.00     0.167 HD
HETATM   18  C22 UNL     1      21.585  15.305  10.896  1.00  0.00     0.139 C 
HETATM   19  C23 UNL     1      21.343  15.950   9.586  1.00  0.00     0.161 C 
HETATM   20  N5  UNL     1      19.950  16.143   9.268  1.00  0.00    -0.331 N 
ATOM     21  H5  UNL     1      19.446  16.846   9.808  1.00  0.00     0.165 HD
HETATM   22  C27 UNL     1      19.213  15.444   8.272  1.00  0.00     0.319 C 
HETATM   23  O4  UNL     1      18.125  14.826   8.602  1.00  0.00    -0.247 OA
HETATM   24  N6  UNL     1      19.571  15.356   6.897  1.00  0.00    -0.330 N 
HETATM   25  C28 UNL     1      19.581  14.075   6.237  1.00  0.00     0.155 C 
HETATM   26  C29 UNL     1      19.931  16.541   6.084  1.00  0.00     0.229 C 
HETATM   27  C30 UNL     1      18.749  16.974   5.302  1.00  0.00     0.236 C 
HETATM   28  O5  UNL     1      17.832  16.092   5.145  1.00  0.00    -0.272 OA
HETATM   29  N7  UNL     1      18.526  18.226   4.723  1.00  0.00    -0.352 N 
ATOM     30  H7  UNL     1      18.252  18.223   3.740  1.00  0.00     0.163 HD
ENDROOT
BRANCH   1  31
HETATM   31  C8  UNL     1      17.381  20.282   4.991  1.00  0.00    -0.006 C 
HETATM   32  C7  UNL     1      16.334  19.593   4.620  1.00  0.00    -0.029 C 
BRANCH  32  33
HETATM   33  C6  UNL     1      15.071  20.252   4.256  1.00  0.00     0.027 C 
BRANCH  33  34
HETATM   34  C5  UNL     1      15.003  20.482   2.762  1.00  0.00     0.004 C 
BRANCH  34  35
HETATM   35  C4  UNL     1      15.158  19.129   2.095  1.00  0.00     0.000 C 
BRANCH  35  36
HETATM   36  C3  UNL     1      16.219  19.173   1.020  1.00  0.00    -0.000 C 
BRANCH  36  37
HETATM   37  C2  UNL     1      16.643  17.770   0.647  1.00  0.00    -0.005 C 
HETATM   38  C1  UNL     1      17.470  17.152   1.736  1.00  0.00     0.005 C 
ENDBRANCH  36  37
ENDBRANCH  35  36
ENDBRANCH  34  35
ENDBRANCH  33  34
ENDBRANCH  32  33
ENDBRANCH   1  31
BRANCH  19  39
HETATM   39  C24 UNL     1      22.166  17.239   9.404  1.00  0.00     0.033 C 
BRANCH  39  40
HETATM   40  C25 UNL     1      23.436  16.890   8.653  1.00  0.00    -0.002 C 
HETATM   41  C26 UNL     1      23.179  15.766   7.673  1.00  0.00     0.005 C 
ENDBRANCH  39  40
ENDBRANCH  19  39
BRANCH  18  42
HETATM   42  O3  UNL     1      21.831  14.027  10.766  1.00  0.00    -0.348 OA
ATOM     43  H3  UNL     1      21.835  13.701   9.874  1.00  0.00     0.219 HD
ENDBRANCH  18  42
BRANCH  15  44
HETATM   44  C18 UNL     1      19.198  15.867  12.848  1.00  0.00     0.063 C 
BRANCH  44  45
HETATM   45  C19 UNL     1      18.316  15.819  14.058  1.00  0.00     0.008 C 
BRANCH  45  46
HETATM   46  C20 UNL     1      16.850  15.797  13.795  1.00  0.00     0.027 C 
BRANCH  46  47
HETATM   47  C21 UNL     1      16.655  16.044  12.291  1.00  0.00     0.229 C 
BRANCH  47  48
HETATM   48  N3  UNL     1      15.233  16.074  11.976  1.00  0.00    -0.079 N 
ATOM     49  H33 UNL     1      15.025  15.605  11.095  1.00  0.00     0.274 HD
ATOM     50  H32 UNL     1      14.690  15.473  12.595  1.00  0.00     0.274 HD
ATOM     51  H31 UNL     1      14.896  17.037  11.986  1.00  0.00     0.274 HD
ENDBRANCH  47  48
ENDBRANCH  46  47
ENDBRANCH  45  46
ENDBRANCH  44  45
ENDBRANCH  15  44
TORSDOF 14
ENDMDL
MODEL 2
REMARK VINA RESULT: -6.755605555      1.089      1.192
REMARK  14 active torsions:
REMARK  status: ('A' for Active; 'I' for Inactive)
REMARK    1  A    between atoms: C2_2  and  C3_3 
REMARK    2  A    between atoms: C3_3  and  C4_4 
REMARK    3  A    between atoms: C4_4  and  C5_5 
REMARK    4  A    between atoms: C5_5  and  C6_6 
REMARK    5  A    between atoms: C6_6  and  C7_7 
REMARK    6  A    between atoms: C8_8  and  C9_9 
REMARK    7  A    between atoms: C17_23  and  C18_24 
REMARK    8  A    between atoms: C18_24  and  C19_25 
REMARK    9  A    between atoms: C19_25  and  C20_26 
REMARK   10  A    between atoms: C20_26  and  C21_27 
REMARK   11  A    between atoms: C21_27  and  N3_28 
REMARK   12  A    between atoms: C22_34  and  O3_35 
REMARK   13  A    between atoms: C23_37  and  C24_38 
REMARK   14  A    between atoms: C24_38  and  C25_39 
ROOT
HETATM    1  C9  UNL     1      18.661  19.384   5.439  1.00  0.00     0.107 C 
HETATM    2  C10 UNL     1      18.855  19.411   6.912  1.00  0.00     0.029 C 
HETATM    3  C11 UNL     1      18.066  20.451   7.656  1.00  0.00     0.004 C 
HETATM    4  C12 UNL     1      17.335  19.871   8.845  1.00  0.00     0.020 C 
HETATM    5  C13 UNL     1      17.900  20.426  10.128  1.00  0.00     0.122 C 
HETATM    6  N1  UNL     1      19.265  19.958  10.316  1.00  0.00    -0.360 N 
ATOM      7  H1  UNL     1      19.749  19.563   9.509  1.00  0.00     0.162 HD
HETATM    8  C14 UNL     1      19.963  20.014  11.537  1.00  0.00     0.235 C 
HETATM    9  O1  UNL     1      21.138  20.492  11.521  1.00  0.00    -0.272 OA
HETATM   10  C15 UNL     1      19.337  19.533  12.777  1.00  0.00     0.225 C 
HETATM   11  N2  UNL     1      20.246  18.993  13.756  1.00  0.00    -0.347 N 
ATOM     12  H2  UNL     1      20.201  19.427  14.678  1.00  0.00     0.163 HD
HETATM   13  C16 UNL     1      21.176  17.964  13.630  1.00  0.00     0.264 C 
HETATM   14  O2  UNL     1      22.400  18.264  13.896  1.00  0.00    -0.266 OA
HETATM   15  C17 UNL     1      21.001  16.553  13.235  1.00  0.00     0.079 C 
HETATM   16  N4  UNL     1      21.980  16.034  12.323  1.00  0.00    -0.338 N 
ATOM     17  H4  UNL     1      22.928  16.069  12.700  1.00  0.00     0.167 HD
HETATM   18  C22 UNL     1      21.933  15.499  11.053  1.00  0.00     0.139 C 
HETATM   19  C23 UNL     1      21.626  16.077   9.726  1.00  0.00     0.161 C 
HETATM   20  N5  UNL     1      20.217  16.216   9.452  1.00  0.00    -0.331 N 
ATOM     21  H5  UNL     1      19.711  16.928   9.979  1.00  0.00     0.165 HD
HETATM   22  C27 UNL     1      19.466  15.453   8.515  1.00  0.00     0.319 C 
HETATM   23  O4  UNL     1      18.410  14.819   8.911  1.00  0.00    -0.247 OA
HETATM   24  N6  UNL     1      19.778  15.314   7.133  1.00  0.00    -0.330 N 
HETATM   25  C28 UNL     1      19.802  14.006   6.530  1.00  0.00     0.155 C 
HETATM   26  C29 UNL     1      20.072  16.471   6.257  1.00  0.00     0.229 C 
HETATM   27  C30 UNL     1      18.850  16.836   5.501  1.00  0.00     0.236 C 
HETATM   28  O5  UNL     1      17.955  15.921   5.416  1.00  0.00    -0.272 OA
HETATM   29  N7  UNL     1      18.569  18.054   4.876  1.00  0.00    -0.352 N 
ATOM     30  H7  UNL     1      18.260  17.998   3.906  1.00  0.00     0.163 HD
ENDROOT
BRANCH   1  31
HETATM   31  C8  UNL     1      17.373  20.085   5.097  1.00  0.00    -0.006 C 
HETATM   32  C7  UNL     1      16.364  19.358   4.697  1.00  0.00    -0.029 C 
BRANCH  32  33
HETATM   33  C6  UNL     1      15.072  19.964   4.343  1.00  0.00     0.027 C 
BRANCH  33  34
HETATM   34  C5  UNL     1      15.099  20.484   2.923  1.00  0.00     0.004 C 
BRANCH  34  35
HETATM   35  C4  UNL     1      15.034  19.279   2.006  1.00  0.00     0.000 C 
BRANCH  35  36
HETATM   36  C3  UNL     1      16.193  19.273   1.036  1.00  0.00    -0.000 C 
BRANCH  36  37
HETATM   37  C2  UNL     1      16.595  17.850   0.713  1.00  0.00    -0.005 C 
HETATM   38  C1  UNL     1      17.420  17.262   1.819  1.00  0.00     0.005 C 
ENDBRANCH  36  37
ENDBRANCH  35  36
ENDBRANCH  34  35
ENDBRANCH  33  34
ENDBRANCH  32  33
ENDBRANCH   1  31
BRANCH  19  39
HETATM   39  C24 UNL     1      22.402  17.380   9.458  1.00  0.00     0.033 C 
BRANCH  39  40
HETATM   40  C25 UNL     1      23.675  17.029   8.711  1.00  0.00    -0.002 C 
HETATM   41  C26 UNL     1      23.424  15.895   7.743  1.00  0.00     0.005 C 
ENDBRANCH  39  40
ENDBRANCH  19  39
BRANCH  18  42
HETATM   42  O3  UNL     1      22.213  14.224  10.970  1.00  0.00    -0.348 OA
ATOM     43  H3  UNL     1      22.438  13.801  11.791  1.00  0.00     0.219 HD
ENDBRANCH  18  42
BRANCH  15  44
HETATM   44  C18 UNL     1      19.602  16.078  13.066  1.00  0.00     0.063 C 
BRANCH  44  45
HETATM   45  C19 UNL     1      19.197  14.924  13.931  1.00  0.00     0.008 C 
BRANCH  45  46
HETATM   46  C20 UNL     1      18.466  13.822  13.247  1.00  0.00     0.027 C 
BRANCH  46  47
HETATM   47  C21 UNL     1      19.523  12.863  12.677  1.00  0.00     0.229 C 
BRANCH  47  48
HETATM   48  N3  UNL     1      19.534  12.949  11.222  1.00  0.00    -0.079 N 
ATOM     49  H33 UNL     1      20.468  13.134  10.856  1.00  0.00     0.274 HD
ATOM     50  H32 UNL     1      19.381  12.041  10.783  1.00  0.00     0.274 HD
ATOM     51  H31 UNL     1      18.855  13.644  10.911  1.00  0.00     0.274 HD
ENDBRANCH  47  48
ENDBRANCH  46  47
ENDBRANCH  45  46
ENDBRANCH  44  45
ENDBRANCH  15  44
TORSDOF 14
ENDMDL
MODEL 3
REMARK VINA RESULT: -6.656525380      9.944     14.856
REMARK  14 active torsions:
REMARK  status: ('A' for Active; 'I' for Inactive)
REMARK    1  A    between atoms: C2_2  and  C3_3 
REMARK    2  A    between atoms: C3_3  and  C4_4 
REMARK    3  A    between atoms: C4_4  and  C5_5 
REMARK    4  A    between atoms: C5_5  and  C6_6 
REMARK    5  A    between atoms: C6_6  and  C7_7 
REMARK    6  A    between atoms: C8_8  and  C9_9 
REMARK    7  A    between atoms: C17_23  and  C18_24 
REMARK    8  A    between atoms: C18_24  and  C19_25 
REMARK    9  A    between atoms: C19_25  and  C20_26 
REMARK   10  A    between atoms: C20_26  and  C21_27 
REMARK   11  A    between atoms: C21_27  and  N3_28 
REMARK   12  A    between atoms: C22_34  and  O3_35 
REMARK   13  A    between atoms: C23_37  and  C24_38 
REMARK   14  A    between atoms: C24_38  and  C25_39 
ROOT
HETATM    1  C9  UNL     1      13.127  25.377   7.338  1.00  0.00     0.107 C 
HETATM    2  C10 UNL     1      12.100  25.022   6.324  1.00  0.00     0.029 C 
HETATM    3  C11 UNL     1      12.286  23.694   5.645  1.00  0.00     0.004 C 
HETATM    4  C12 UNL     1      11.018  22.872   5.644  1.00  0.00     0.020 C 
HETATM    5  C13 UNL     1      10.504  22.703   4.236  1.00  0.00     0.122 C 
HETATM    6  N1  UNL     1      10.068  23.987   3.707  1.00  0.00    -0.360 N 
ATOM      7  H1  UNL     1      10.374  24.831   4.190  1.00  0.00     0.162 HD
HETATM    8  C14 UNL     1       9.251  24.140   2.571  1.00  0.00     0.235 C 
HETATM    9  O1  UNL     1       9.621  24.976   1.690  1.00  0.00    -0.272 OA
HETATM   10  C15 UNL     1       8.019  23.353   2.425  1.00  0.00     0.225 C 
HETATM   11  N2  UNL     1       6.960  23.997   1.690  1.00  0.00    -0.347 N 
ATOM     12  H2  UNL     1       6.608  23.475   0.887  1.00  0.00     0.163 HD
HETATM   13  C16 UNL     1       6.346  25.227   1.913  1.00  0.00     0.264 C 
HETATM   14  O2  UNL     1       6.390  26.073   0.943  1.00  0.00    -0.266 OA
HETATM   15  C17 UNL     1       5.633  25.744   3.098  1.00  0.00     0.079 C 
HETATM   16  N4  UNL     1       5.938  27.097   3.467  1.00  0.00    -0.338 N 
ATOM     17  H4  UNL     1       5.712  27.767   2.731  1.00  0.00     0.167 HD
HETATM   18  C22 UNL     1       6.465  27.699   4.590  1.00  0.00     0.139 C 
HETATM   19  C23 UNL     1       7.810  27.679   5.207  1.00  0.00     0.161 C 
HETATM   20  N5  UNL     1       8.076  26.511   6.011  1.00  0.00    -0.331 N 
ATOM     21  H5  UNL     1       8.190  25.626   5.517  1.00  0.00     0.165 HD
HETATM   22  C27 UNL     1       8.192  26.478   7.428  1.00  0.00     0.319 C 
HETATM   23  O4  UNL     1       7.445  25.672   8.110  1.00  0.00    -0.247 OA
HETATM   24  N6  UNL     1       9.085  27.278   8.196  1.00  0.00    -0.330 N 
HETATM   25  C28 UNL     1       8.597  28.001   9.343  1.00  0.00     0.155 C 
HETATM   26  C29 UNL     1      10.527  27.400   7.880  1.00  0.00     0.229 C 
HETATM   27  C30 UNL     1      11.298  26.476   8.746  1.00  0.00     0.236 C 
HETATM   28  O5  UNL     1      10.699  26.081   9.809  1.00  0.00    -0.272 OA
HETATM   29  N7  UNL     1      12.592  25.993   8.534  1.00  0.00    -0.352 N 
ATOM     30  H7  UNL     1      13.238  26.086   9.318  1.00  0.00     0.163 HD
ENDROOT
BRANCH   1  31
HETATM   31  C8  UNL     1      13.838  24.125   7.782  1.00  0.00    -0.006 C 
HETATM   32  C7  UNL     1      15.076  23.954   7.402  1.00  0.00    -0.029 C 
BRANCH  32  33
HETATM   33  C6  UNL     1      15.841  22.760   7.791  1.00  0.00     0.027 C 
BRANCH  33  34
HETATM   34  C5  UNL     1      15.019  21.509   7.578  1.00  0.00     0.004 C 
BRANCH  34  35
HETATM   35  C4  UNL     1      15.459  20.905   6.258  1.00  0.00     0.000 C 
BRANCH  35  36
HETATM   36  C3  UNL     1      14.273  20.654   5.355  1.00  0.00    -0.000 C 
BRANCH  36  37
HETATM   37  C2  UNL     1      14.558  21.177   3.964  1.00  0.00    -0.005 C 
HETATM   38  C1  UNL     1      15.415  22.407   4.018  1.00  0.00     0.005 C 
ENDBRANCH  36  37
ENDBRANCH  35  36
ENDBRANCH  34  35
ENDBRANCH  33  34
ENDBRANCH  32  33
ENDBRANCH   1  31
BRANCH  19  39
HETATM   39  C24 UNL     1       8.930  27.948   4.185  1.00  0.00     0.033 C 
BRANCH  39  40
HETATM   40  C25 UNL     1       8.305  28.027   2.806  1.00  0.00    -0.002 C 
HETATM   41  C26 UNL     1       9.352  28.372   1.770  1.00  0.00     0.005 C 
ENDBRANCH  39  40
ENDBRANCH  19  39
BRANCH  18  42
HETATM   42  O3  UNL     1       5.635  28.448   5.269  1.00  0.00    -0.348 OA
ATOM     43  H3  UNL     1       6.005  28.882   6.029  1.00  0.00     0.219 HD
ENDBRANCH  18  42
BRANCH  15  44
HETATM   44  C18 UNL     1       5.394  24.780   4.204  1.00  0.00     0.063 C 
BRANCH  44  45
HETATM   45  C19 UNL     1       3.957  24.499   4.523  1.00  0.00     0.008 C 
BRANCH  45  46
HETATM   46  C20 UNL     1       3.483  23.118   4.234  1.00  0.00     0.027 C 
BRANCH  46  47
HETATM   47  C21 UNL     1       4.730  22.234   4.072  1.00  0.00     0.229 C 
BRANCH  47  48
HETATM   48  N3  UNL     1       4.522  20.958   4.745  1.00  0.00    -0.079 N 
ATOM     49  H33 UNL     1       5.104  20.864   5.577  1.00  0.00     0.274 HD
ATOM     50  H32 UNL     1       3.609  20.908   5.197  1.00  0.00     0.274 HD
ATOM     51  H31 UNL     1       4.666  20.192   4.087  1.00  0.00     0.274 HD
ENDBRANCH  47  48
ENDBRANCH  46  47
ENDBRANCH  45  46
ENDBRANCH  44  45
ENDBRANCH  15  44
TORSDOF 14
ENDMDL
MODEL 4
REMARK VINA RESULT: -6.341727860      1.002      2.198
REMARK  14 active torsions:
REMARK  status: ('A' for Active; 'I' for Inactive)
REMARK    1  A    between atoms: C2_2  and  C3_3 
REMARK    2  A    between atoms: C3_3  and  C4_4 
REMARK    3  A    between atoms: C4_4  and  C5_5 
REMARK    4  A    between atoms: C5_5  and  C6_6 
REMARK    5  A    between atoms: C6_6  and  C7_7 
REMARK    6  A    between atoms: C8_8  and  C9_9 
REMARK    7  A    between atoms: C17_23  and  C18_24 
REMARK    8  A    between atoms: C18_24  and  C19_25 
REMARK    9  A    between atoms: C19_25  and  C20_26 
REMARK   10  A    between atoms: C20_26  and  C21_27 
REMARK   11  A    between atoms: C21_27  and  N3_28 
REMARK   12  A    between atoms: C22_34  and  O3_35 
REMARK   13  A    between atoms: C23_37  and  C24_38 
REMARK   14  A    between atoms: C24_38  and  C25_39 
ROOT
HETATM    1  C9  UNL     1      18.904  19.289   5.215  1.00  0.00     0.107 C 
HETATM    2  C10 UNL     1      18.956  19.342   6.699  1.00  0.00     0.029 C 
HETATM    3  C11 UNL     1      18.154  20.438   7.342  1.00  0.00     0.004 C 
HETATM    4  C12 UNL     1      17.282  19.924   8.465  1.00  0.00     0.020 C 
HETATM    5  C13 UNL     1      17.749  20.480   9.787  1.00  0.00     0.122 C 
HETATM    6  N1  UNL     1      19.063  19.949  10.116  1.00  0.00    -0.360 N 
ATOM      7  H1  UNL     1      19.601  19.511   9.368  1.00  0.00     0.162 HD
HETATM    8  C14 UNL     1      19.641  19.999  11.398  1.00  0.00     0.235 C 
HETATM    9  O1  UNL     1      20.836  20.417  11.488  1.00  0.00    -0.272 OA
HETATM   10  C15 UNL     1      18.874  19.580  12.580  1.00  0.00     0.225 C 
HETATM   11  N2  UNL     1      19.655  19.019  13.653  1.00  0.00    -0.347 N 
ATOM     12  H2  UNL     1      19.544  19.477  14.558  1.00  0.00     0.163 HD
HETATM   13  C16 UNL     1      20.538  17.942  13.638  1.00  0.00     0.264 C 
HETATM   14  O2  UNL     1      21.745  18.186  14.017  1.00  0.00    -0.266 OA
HETATM   15  C17 UNL     1      20.328  16.532  13.255  1.00  0.00     0.079 C 
HETATM   16  N4  UNL     1      21.363  15.943  12.453  1.00  0.00    -0.338 N 
ATOM     17  H4  UNL     1      22.270  15.940  12.921  1.00  0.00     0.167 HD
HETATM   18  C22 UNL     1      21.411  15.381  11.195  1.00  0.00     0.139 C 
HETATM   19  C23 UNL     1      21.264  15.942   9.833  1.00  0.00     0.161 C 
HETATM   20  N5  UNL     1      19.897  16.144   9.420  1.00  0.00    -0.331 N 
ATOM     21  H5  UNL     1      19.381  16.893   9.882  1.00  0.00     0.165 HD
HETATM   22  C27 UNL     1      19.201  15.397   8.430  1.00  0.00     0.319 C 
HETATM   23  O4  UNL     1      18.080  14.828   8.733  1.00  0.00    -0.247 OA
HETATM   24  N6  UNL     1      19.638  15.210   7.088  1.00  0.00    -0.330 N 
HETATM   25  C28 UNL     1      19.652  13.888   6.514  1.00  0.00     0.155 C 
HETATM   26  C29 UNL     1      20.075  16.330   6.222  1.00  0.00     0.229 C 
HETATM   27  C30 UNL     1      18.953  16.736   5.344  1.00  0.00     0.236 C 
HETATM   28  O5  UNL     1      18.024  15.866   5.189  1.00  0.00    -0.272 OA
HETATM   29  N7  UNL     1      18.797  17.952   4.672  1.00  0.00    -0.352 N 
ATOM     30  H7  UNL     1      18.581  17.889   3.676  1.00  0.00     0.163 HD
ENDROOT
BRANCH   1  31
HETATM   31  C8  UNL     1      17.693  20.046   4.735  1.00  0.00    -0.006 C 
HETATM   32  C7  UNL     1      16.780  19.388   4.071  1.00  0.00    -0.029 C 
BRANCH  32  33
HETATM   33  C6  UNL     1      15.569  20.051   3.568  1.00  0.00     0.027 C 
BRANCH  33  34
HETATM   34  C5  UNL     1      15.241  21.267   4.405  1.00  0.00     0.004 C 
BRANCH  34  35
HETATM   35  C4  UNL     1      14.268  20.820   5.479  1.00  0.00     0.000 C 
BRANCH  35  36
HETATM   36  C3  UNL     1      14.393  21.679   6.716  1.00  0.00    -0.000 C 
BRANCH  36  37
HETATM   37  C2  UNL     1      15.389  22.793   6.479  1.00  0.00    -0.005 C 
HETATM   38  C1  UNL     1      15.940  23.305   7.777  1.00  0.00     0.005 C 
ENDBRANCH  36  37
ENDBRANCH  35  36
ENDBRANCH  34  35
ENDBRANCH  33  34
ENDBRANCH  32  33
ENDBRANCH   1  31
BRANCH  19  39
HETATM   39  C24 UNL     1      22.129  17.197   9.618  1.00  0.00     0.033 C 
BRANCH  39  40
HETATM   40  C25 UNL     1      23.449  16.765   9.010  1.00  0.00    -0.002 C 
HETATM   41  C26 UNL     1      23.230  15.657   8.004  1.00  0.00     0.005 C 
ENDBRANCH  39  40
ENDBRANCH  19  39
BRANCH  18  42
HETATM   42  O3  UNL     1      21.630  14.091  11.164  1.00  0.00    -0.348 OA
ATOM     43  H3  UNL     1      21.401  13.619  11.957  1.00  0.00     0.219 HD
ENDBRANCH  18  42
BRANCH  15  44
HETATM   44  C18 UNL     1      18.929  16.124  12.959  1.00  0.00     0.063 C 
BRANCH  44  45
HETATM   45  C19 UNL     1      18.051  15.896  14.151  1.00  0.00     0.008 C 
BRANCH  45  46
HETATM   46  C20 UNL     1      16.611  15.654  13.862  1.00  0.00     0.027 C 
BRANCH  46  47
HETATM   47  C21 UNL     1      16.413  15.844  12.350  1.00  0.00     0.229 C 
BRANCH  47  48
HETATM   48  N3  UNL     1      14.996  16.016  12.055  1.00  0.00    -0.079 N 
ATOM     49  H33 UNL     1      14.421  15.302  12.501  1.00  0.00     0.274 HD
ATOM     50  H32 UNL     1      14.605  16.834  12.521  1.00  0.00     0.274 HD
ATOM     51  H31 UNL     1      14.854  16.047  11.045  1.00  0.00     0.274 HD
ENDBRANCH  47  48
ENDBRANCH  46  47
ENDBRANCH  45  46
ENDBRANCH  44  45
ENDBRANCH  15  44
TORSDOF 14
ENDMDL
MODEL 5
REMARK VINA RESULT: -6.317454468      9.969     15.056
REMARK  14 active torsions:
REMARK  status: ('A' for Active; 'I' for Inactive)
REMARK    1  A    between atoms: C2_2  and  C3_3 
REMARK    2  A    between atoms: C3_3  and  C4_4 
REMARK    3  A    between atoms: C4_4  and  C5_5 
REMARK    4  A    between atoms: C5_5  and  C6_6 
REMARK    5  A    between atoms: C6_6  and  C7_7 
REMARK    6  A    between atoms: C8_8  and  C9_9 
REMARK    7  A    between atoms: C17_23  and  C18_24 
REMARK    8  A    between atoms: C18_24  and  C19_25 
REMARK    9  A    between atoms: C19_25  and  C20_26 
REMARK   10  A    between atoms: C20_26  and  C21_27 
REMARK   11  A    between atoms: C21_27  and  N3_28 
REMARK   12  A    between atoms: C22_34  and  O3_35 
REMARK   13  A    between atoms: C23_37  and  C24_38 
REMARK   14  A    between atoms: C24_38  and  C25_39 
ROOT
HETATM    1  C9  UNL     1      13.105  25.395   7.350  1.00  0.00     0.107 C 
HETATM    2  C10 UNL     1      12.074  25.043   6.339  1.00  0.00     0.029 C 
HETATM    3  C11 UNL     1      12.251  23.713   5.661  1.00  0.00     0.004 C 
HETATM    4  C12 UNL     1      10.979  22.897   5.665  1.00  0.00     0.020 C 
HETATM    5  C13 UNL     1      10.461  22.728   4.259  1.00  0.00     0.122 C 
HETATM    6  N1  UNL     1      10.030  24.013   3.729  1.00  0.00    -0.360 N 
ATOM      7  H1  UNL     1      10.341  24.856   4.211  1.00  0.00     0.162 HD
HETATM    8  C14 UNL     1       9.210  24.168   2.595  1.00  0.00     0.235 C 
HETATM    9  O1  UNL     1       9.582  25.001   1.712  1.00  0.00    -0.272 OA
HETATM   10  C15 UNL     1       7.974  23.387   2.454  1.00  0.00     0.225 C 
HETATM   11  N2  UNL     1       6.916  24.035   1.721  1.00  0.00    -0.347 N 
ATOM     12  H2  UNL     1       6.559  23.513   0.920  1.00  0.00     0.163 HD
HETATM   13  C16 UNL     1       6.309  25.268   1.944  1.00  0.00     0.264 C 
HETATM   14  O2  UNL     1       6.354  26.113   0.972  1.00  0.00    -0.266 OA
HETATM   15  C17 UNL     1       5.602  25.790   3.129  1.00  0.00     0.079 C 
HETATM   16  N4  UNL     1       5.913  27.143   3.496  1.00  0.00    -0.338 N 
ATOM     17  H4  UNL     1       5.689  27.812   2.759  1.00  0.00     0.167 HD
HETATM   18  C22 UNL     1       6.447  27.744   4.616  1.00  0.00     0.139 C 
HETATM   19  C23 UNL     1       7.794  27.718   5.229  1.00  0.00     0.161 C 
HETATM   20  N5  UNL     1       8.056  26.551   6.035  1.00  0.00    -0.331 N 
ATOM     21  H5  UNL     1       8.165  25.664   5.542  1.00  0.00     0.165 HD
HETATM   22  C27 UNL     1       8.176  26.520   7.452  1.00  0.00     0.319 C 
HETATM   23  O4  UNL     1       7.427  25.718   8.137  1.00  0.00    -0.247 OA
HETATM   24  N6  UNL     1       9.075  27.317   8.216  1.00  0.00    -0.330 N 
HETATM   25  C28 UNL     1       8.594  28.044   9.363  1.00  0.00     0.155 C 
HETATM   26  C29 UNL     1      10.517  27.432   7.895  1.00  0.00     0.229 C 
HETATM   27  C30 UNL     1      11.285  26.505   8.761  1.00  0.00     0.236 C 
HETATM   28  O5  UNL     1      10.687  26.114   9.826  1.00  0.00    -0.272 OA
HETATM   29  N7  UNL     1      12.576  26.015   8.546  1.00  0.00    -0.352 N 
ATOM     30  H7  UNL     1      13.225  26.106   9.328  1.00  0.00     0.163 HD
ENDROOT
BRANCH   1  31
HETATM   31  C8  UNL     1      13.811  24.140   7.794  1.00  0.00    -0.006 C 
HETATM   32  C7  UNL     1      15.044  23.958   7.402  1.00  0.00    -0.029 C 
BRANCH  32  33
HETATM   33  C6  UNL     1      15.804  22.761   7.790  1.00  0.00     0.027 C 
BRANCH  33  34
HETATM   34  C5  UNL     1      14.947  21.833   8.623  1.00  0.00     0.004 C 
BRANCH  34  35
HETATM   35  C4  UNL     1      15.587  21.748   9.996  1.00  0.00     0.000 C 
BRANCH  35  36
HETATM   36  C3  UNL     1      15.779  20.309  10.416  1.00  0.00    -0.000 C 
BRANCH  36  37
HETATM   37  C2  UNL     1      16.891  19.674   9.610  1.00  0.00    -0.005 C 
HETATM   38  C1  UNL     1      18.218  20.284   9.954  1.00  0.00     0.005 C 
ENDBRANCH  36  37
ENDBRANCH  35  36
ENDBRANCH  34  35
ENDBRANCH  33  34
ENDBRANCH  32  33
ENDBRANCH   1  31
BRANCH  19  39
HETATM   39  C24 UNL     1       8.912  27.981   4.204  1.00  0.00     0.033 C 
BRANCH  39  40
HETATM   40  C25 UNL     1       8.307  27.915   2.815  1.00  0.00    -0.002 C 
HETATM   41  C26 UNL     1       9.308  28.380   1.780  1.00  0.00     0.005 C 
ENDBRANCH  39  40
ENDBRANCH  19  39
BRANCH  18  42
HETATM   42  O3  UNL     1       5.622  28.498   5.296  1.00  0.00    -0.348 OA
ATOM     43  H3  UNL     1       5.432  28.201   6.179  1.00  0.00     0.219 HD
ENDBRANCH  18  42
BRANCH  15  44
HETATM   44  C18 UNL     1       5.361  24.829   4.238  1.00  0.00     0.063 C 
BRANCH  44  45
HETATM   45  C19 UNL     1       3.928  24.463   4.483  1.00  0.00     0.008 C 
BRANCH  45  46
HETATM   46  C20 UNL     1       3.517  23.105   4.034  1.00  0.00     0.027 C 
BRANCH  46  47
HETATM   47  C21 UNL     1       4.772  22.219   4.060  1.00  0.00     0.229 C 
BRANCH  47  48
HETATM   48  N3  UNL     1       4.499  20.997   4.807  1.00  0.00    -0.079 N 
ATOM     49  H33 UNL     1       5.006  20.196   4.431  1.00  0.00     0.274 HD
ATOM     50  H32 UNL     1       4.918  21.015   5.736  1.00  0.00     0.274 HD
ATOM     51  H31 UNL     1       3.493  20.831   4.843  1.00  0.00     0.274 HD
ENDBRANCH  47  48
ENDBRANCH  46  47
ENDBRANCH  45  46
ENDBRANCH  44  45
ENDBRANCH  15  44
TORSDOF 14
ENDMDL
