MODEL 1
REMARK VINA RESULT: -3.678362192      0.000      0.000
REMARK  1 active torsions:
REMARK  status: ('A' for Active; 'I' for Inactive)
REMARK    1  A    between atoms: S1_2  and  N1_3 
ROOT
HETATM    1  C1  UNL     1       6.730  22.461  14.447  1.00  0.00     0.117 C 
HETATM    2  S1  UNL     1       8.486  21.939  13.816  1.00  0.00    -0.074 SA
HETATM    3  C2  UNL     1       8.311  20.320  12.216  1.00  0.00     0.153 A 
HETATM    4  N2  UNL     1       8.666  21.057  11.373  1.00  0.00    -0.355 N 
ATOM      5  H2  UNL     1       8.689  20.582  10.472  1.00  0.00     0.166 HD
HETATM    6  C3  UNL     1       9.043  22.314  11.240  1.00  0.00     0.187 A 
HETATM    7  N3  UNL     1       9.102  23.132  12.222  1.00  0.00    -0.325 N 
ATOM      8  H3  UNL     1       9.379  24.114  12.224  1.00  0.00     0.175 HD
ENDROOT
BRANCH   2   9
HETATM    9  N1  UNL     1       9.886  21.462  15.007  1.00  0.00    -0.372 N 
ATOM     10  H12 UNL     1      10.088  20.471  15.133  1.00  0.00     0.164 HD
ATOM     11  H11 UNL     1      10.428  22.162  15.513  1.00  0.00     0.164 HD
ENDBRANCH   2   9
TORSDOF 1
ENDMDL
MODEL 2
REMARK VINA RESULT: -3.674592567      1.428      3.552
REMARK  1 active torsions:
REMARK  status: ('A' for Active; 'I' for Inactive)
REMARK    1  A    between atoms: S1_2  and  N1_3 
ROOT
HETATM    1  C1  UNL     1       8.277  20.426  12.229  1.00  0.00     0.117 C 
HETATM    2  S1  UNL     1       8.891  21.994  13.188  1.00  0.00    -0.074 SA
HETATM    3  C2  UNL     1       7.270  22.747  14.608  1.00  0.00     0.153 A 
HETATM    4  N2  UNL     1       7.887  22.419  15.552  1.00  0.00    -0.355 N 
ATOM      5  H2  UNL     1       7.377  22.643  16.406  1.00  0.00     0.166 HD
HETATM    6  C3  UNL     1       9.040  21.848  15.842  1.00  0.00     0.187 A 
HETATM    7  N3  UNL     1       9.873  21.466  14.949  1.00  0.00    -0.325 N 
ATOM      8  H3  UNL     1      10.782  21.019  15.068  1.00  0.00     0.175 HD
ENDROOT
BRANCH   2   9
HETATM    9  N1  UNL     1       9.655  23.486  12.298  1.00  0.00    -0.372 N 
ATOM     10  H12 UNL     1       9.905  23.379  11.315  1.00  0.00     0.164 HD
ATOM     11  H11 UNL     1       9.818  24.375  12.772  1.00  0.00     0.164 HD
ENDBRANCH   2   9
TORSDOF 1
ENDMDL
MODEL 3
REMARK VINA RESULT: -3.567727264      2.223      2.720
REMARK  1 active torsions:
REMARK  status: ('A' for Active; 'I' for Inactive)
REMARK    1  A    between atoms: S1_2  and  N1_3 
ROOT
HETATM    1  C1  UNL     1       8.745  22.080  16.420  1.00  0.00     0.117 C 
HETATM    2  S1  UNL     1       8.017  22.689  14.731  1.00  0.00    -0.074 SA
HETATM    3  C2  UNL     1       9.695  23.081  13.233  1.00  0.00     0.153 A 
HETATM    4  N2  UNL     1       9.382  22.157  12.579  1.00  0.00    -0.355 N 
ATOM      5  H2  UNL     1       9.999  22.067  11.773  1.00  0.00     0.166 HD
HETATM    6  C3  UNL     1       8.474  21.200  12.572  1.00  0.00     0.187 A 
HETATM    7  N3  UNL     1       7.576  21.084  13.476  1.00  0.00    -0.325 N 
ATOM      8  H3  UNL     1       6.837  20.387  13.561  1.00  0.00     0.175 HD
ENDROOT
BRANCH   2   9
HETATM    9  N1  UNL     1       6.768  24.114  14.626  1.00  0.00    -0.372 N 
ATOM     10  H12 UNL     1       6.161  24.157  13.807  1.00  0.00     0.164 HD
ATOM     11  H11 UNL     1       6.691  24.823  15.356  1.00  0.00     0.164 HD
ENDBRANCH   2   9
TORSDOF 1
ENDMDL
MODEL 4
REMARK VINA RESULT: -3.557971866      1.059      1.059
REMARK  1 active torsions:
REMARK  status: ('A' for Active; 'I' for Inactive)
REMARK    1  A    between atoms: S1_2  and  N1_3 
ROOT
HETATM    1  C1  UNL     1       7.767  23.736  15.261  1.00  0.00     0.117 C 
HETATM    2  S1  UNL     1       8.927  22.418  14.440  1.00  0.00    -0.074 SA
HETATM    3  C2  UNL     1       7.728  21.043  13.068  1.00  0.00     0.153 A 
HETATM    4  N2  UNL     1       8.228  21.498  12.108  1.00  0.00    -0.355 N 
ATOM      5  H2  UNL     1       7.863  21.047  11.270  1.00  0.00     0.166 HD
HETATM    6  C3  UNL     1       9.119  22.415  11.785  1.00  0.00     0.187 A 
HETATM    7  N3  UNL     1       9.731  23.129  12.653  1.00  0.00    -0.325 N 
ATOM      8  H3  UNL     1      10.430  23.857  12.508  1.00  0.00     0.175 HD
ENDROOT
BRANCH   2   9
HETATM    9  N1  UNL     1      10.129  21.359  15.458  1.00  0.00    -0.372 N 
ATOM     10  H12 UNL     1       9.794  20.463  15.811  1.00  0.00     0.164 HD
ATOM     11  H11 UNL     1      11.083  21.660  15.656  1.00  0.00     0.164 HD
ENDBRANCH   2   9
TORSDOF 1
ENDMDL
MODEL 5
REMARK VINA RESULT: -3.480207810      1.843      2.498
REMARK  1 active torsions:
REMARK  status: ('A' for Active; 'I' for Inactive)
REMARK    1  A    between atoms: S1_2  and  N1_3 
ROOT
HETATM    1  C1  UNL     1       9.427  21.832  15.178  1.00  0.00     0.117 C 
HETATM    2  S1  UNL     1       8.155  22.075  13.737  1.00  0.00    -0.074 SA
HETATM    3  C2  UNL     1       9.202  22.871  11.871  1.00  0.00     0.153 A 
HETATM    4  N2  UNL     1       9.049  21.855  11.302  1.00  0.00    -0.355 N 
ATOM      5  H2  UNL     1       9.446  21.910  10.365  1.00  0.00     0.166 HD
HETATM    6  C3  UNL     1       8.518  20.666  11.508  1.00  0.00     0.187 A 
HETATM    7  N3  UNL     1       7.952  20.335  12.607  1.00  0.00    -0.325 N 
ATOM      8  H3  UNL     1       7.515  19.450  12.863  1.00  0.00     0.175 HD
ENDROOT
BRANCH   2   9
HETATM    9  N1  UNL     1       6.533  23.032  13.974  1.00  0.00    -0.372 N 
ATOM     10  H12 UNL     1       5.659  22.508  13.938  1.00  0.00     0.164 HD
ATOM     11  H11 UNL     1       6.516  24.040  14.133  1.00  0.00     0.164 HD
ENDBRANCH   2   9
TORSDOF 1
ENDMDL
