MODEL 1
REMARK VINA RESULT: -4.297892739      0.000      0.000
REMARK  1 active torsions:
REMARK  status: ('A' for Active; 'I' for Inactive)
REMARK    1  A    between atoms: N1_2  and  C2_4 
ROOT
HETATM    1  C2  UNL     1       8.832  22.069  11.893  1.00  0.00     0.116 A 
HETATM    2  C3  UNL     1       8.129  21.072  12.535  1.00  0.00     0.136 A 
HETATM    3  N2  UNL     1       8.165  20.934  13.874  1.00  0.00    -0.371 N 
ATOM      4  H2  UNL     1       7.629  20.183  14.310  1.00  0.00     0.164 HD
HETATM    5  C4  UNL     1       8.887  21.760  14.652  1.00  0.00     0.104 A 
HETATM    6  C5  UNL     1       9.591  22.758  14.012  1.00  0.00     0.106 A 
HETATM    7  N3  UNL     1       9.554  22.894  12.674  1.00  0.00    -0.350 N 
ATOM      8  H3  UNL     1      10.089  23.645  12.238  1.00  0.00     0.166 HD
ENDROOT
BRANCH   1   9
HETATM    9  N1  UNL     1       8.784  22.182  10.606  1.00  0.00    -0.380 N 
HETATM   10  C1  UNL     1       8.688  21.077   9.708  1.00  0.00     0.147 C 
ATOM     11  H1  UNL     1       8.817  23.121  10.208  1.00  0.00     0.160 HD
ENDBRANCH   1   9
TORSDOF 1
ENDMDL
MODEL 2
REMARK VINA RESULT: -4.287524624      1.370      3.181
REMARK  1 active torsions:
REMARK  status: ('A' for Active; 'I' for Inactive)
REMARK    1  A    between atoms: N1_2  and  C2_4 
ROOT
HETATM    1  C2  UNL     1       8.992  22.569  12.929  1.00  0.00     0.116 A 
HETATM    2  C3  UNL     1       8.708  21.252  13.225  1.00  0.00     0.136 A 
HETATM    3  N2  UNL     1       8.484  20.344  12.256  1.00  0.00    -0.371 N 
ATOM      4  H2  UNL     1       8.278  19.380  12.518  1.00  0.00     0.164 HD
HETATM    5  C4  UNL     1       8.526  20.674  10.954  1.00  0.00     0.104 A 
HETATM    6  C5  UNL     1       8.810  21.990  10.656  1.00  0.00     0.106 A 
HETATM    7  N3  UNL     1       9.033  22.896  11.625  1.00  0.00    -0.350 N 
ATOM      8  H3  UNL     1       9.239  23.860  11.363  1.00  0.00     0.166 HD
ENDROOT
BRANCH   1   9
HETATM    9  N1  UNL     1       9.202  23.424  13.876  1.00  0.00    -0.380 N 
HETATM   10  C1  UNL     1       8.337  23.607  14.996  1.00  0.00     0.147 C 
ATOM     11  H1  UNL     1      10.038  24.005  13.817  1.00  0.00     0.160 HD
ENDBRANCH   1   9
TORSDOF 1
ENDMDL
MODEL 3
REMARK VINA RESULT: -4.152569619      1.683      2.553
REMARK  1 active torsions:
REMARK  status: ('A' for Active; 'I' for Inactive)
REMARK    1  A    between atoms: N1_2  and  C2_4 
ROOT
HETATM    1  C2  UNL     1       9.335  22.633  13.995  1.00  0.00     0.116 A 
HETATM    2  C3  UNL     1       8.471  23.456  14.686  1.00  0.00     0.136 A 
HETATM    3  N2  UNL     1       8.166  23.231  15.978  1.00  0.00    -0.371 N 
ATOM      4  H2  UNL     1       7.522  23.864  16.452  1.00  0.00     0.164 HD
HETATM    5  C4  UNL     1       8.687  22.196  16.659  1.00  0.00     0.104 A 
HETATM    6  C5  UNL     1       9.551  21.372  15.970  1.00  0.00     0.106 A 
HETATM    7  N3  UNL     1       9.855  21.597  14.679  1.00  0.00    -0.350 N 
ATOM      8  H3  UNL     1      10.499  20.964  14.204  1.00  0.00     0.166 HD
ENDROOT
BRANCH   1   9
HETATM    9  N1  UNL     1       9.614  22.867  12.754  1.00  0.00    -0.380 N 
HETATM   10  C1  UNL     1       8.861  22.356  11.654  1.00  0.00     0.147 C 
ATOM     11  H1  UNL     1      10.423  23.453  12.548  1.00  0.00     0.160 HD
ENDBRANCH   1   9
TORSDOF 1
ENDMDL
MODEL 4
REMARK VINA RESULT: -4.114225434      1.268      1.909
REMARK  1 active torsions:
REMARK  status: ('A' for Active; 'I' for Inactive)
REMARK    1  A    between atoms: N1_2  and  C2_4 
ROOT
HETATM    1  C2  UNL     1       8.725  21.197  11.450  1.00  0.00     0.116 A 
HETATM    2  C3  UNL     1       8.910  22.505  11.845  1.00  0.00     0.136 A 
HETATM    3  N2  UNL     1       8.505  22.940  13.053  1.00  0.00    -0.371 N 
ATOM      4  H2  UNL     1       8.661  23.916  13.306  1.00  0.00     0.164 HD
HETATM    5  C4  UNL     1       7.900  22.124  13.933  1.00  0.00     0.104 A 
HETATM    6  C5  UNL     1       7.714  20.816  13.541  1.00  0.00     0.106 A 
HETATM    7  N3  UNL     1       8.120  20.382  12.333  1.00  0.00    -0.350 N 
ATOM      8  H3  UNL     1       7.963  19.406  12.080  1.00  0.00     0.166 HD
ENDROOT
BRANCH   1   9
HETATM    9  N1  UNL     1       9.121  20.800  10.285  1.00  0.00    -0.380 N 
HETATM   10  C1  UNL     1       8.505  21.184   9.056  1.00  0.00     0.147 C 
ATOM     11  H1  UNL     1       9.924  20.173  10.242  1.00  0.00     0.160 HD
ENDBRANCH   1   9
TORSDOF 1
ENDMDL
MODEL 5
REMARK VINA RESULT: -4.078836087      1.729      2.425
REMARK  1 active torsions:
REMARK  status: ('A' for Active; 'I' for Inactive)
REMARK    1  A    between atoms: N1_2  and  C2_4 
ROOT
HETATM    1  C2  UNL     1       9.164  22.849  13.931  1.00  0.00     0.116 A 
HETATM    2  C3  UNL     1       9.527  21.858  14.819  1.00  0.00     0.136 A 
HETATM    3  N2  UNL     1       9.076  21.848  16.087  1.00  0.00    -0.371 N 
ATOM      4  H2  UNL     1       9.368  21.097  16.711  1.00  0.00     0.164 HD
HETATM    5  C4  UNL     1       8.250  22.802  16.552  1.00  0.00     0.104 A 
HETATM    6  C5  UNL     1       7.886  23.794  15.666  1.00  0.00     0.106 A 
HETATM    7  N3  UNL     1       8.338  23.802  14.399  1.00  0.00    -0.350 N 
ATOM      8  H3  UNL     1       8.046  24.554  13.774  1.00  0.00     0.166 HD
ENDROOT
BRANCH   1   9
HETATM    9  N1  UNL     1       9.610  22.839  12.717  1.00  0.00    -0.380 N 
HETATM   10  C1  UNL     1       8.886  22.319  11.603  1.00  0.00     0.147 C 
ATOM     11  H1  UNL     1      10.537  23.228  12.546  1.00  0.00     0.160 HD
ENDBRANCH   1   9
TORSDOF 1
ENDMDL
