MODEL 1
REMARK VINA RESULT: -5.154276752      0.000      0.000
REMARK  1 active torsions:
REMARK  status: ('A' for Active; 'I' for Inactive)
REMARK    1  A    between atoms: N1_2  and  N2_4 
ROOT
HETATM    1  N2  UNL     1       9.098  22.214  12.774  1.00  0.00    -0.131 N 
HETATM    2  C1  UNL     1       8.706  20.938  12.599  1.00  0.00     0.234 A 
HETATM    3  N3  UNL     1       8.455  20.706  11.300  1.00  0.00    -0.344 N 
ATOM      4  H3  UNL     1       8.143  19.826  10.891  1.00  0.00     0.167 HD
HETATM    5  C2  UNL     1       8.694  21.860  10.640  1.00  0.00     0.200 A 
HETATM    6  N4  UNL     1       9.086  22.775  11.563  1.00  0.00    -0.270 N 
ATOM      7  H4  UNL     1       9.334  23.744  11.362  1.00  0.00     0.190 HD
ENDROOT
BRANCH   1   8
HETATM    8  N1  UNL     1       9.451  22.809  13.986  1.00  0.00    -0.016 N 
HETATM    9  O1  UNL     1       9.461  24.058  14.036  1.00  0.00    -0.515 OA
HETATM   10  O2  UNL     1       9.772  22.036  15.075  1.00  0.00    -0.515 OA
ENDBRANCH   1   8
TORSDOF 1
ENDMDL
MODEL 2
REMARK VINA RESULT: -5.052772273      0.117      1.146
REMARK  1 active torsions:
REMARK  status: ('A' for Active; 'I' for Inactive)
REMARK    1  A    between atoms: N1_2  and  N2_4 
ROOT
HETATM    1  N2  UNL     1       9.080  22.196  12.840  1.00  0.00    -0.131 N 
HETATM    2  C1  UNL     1       8.667  20.928  12.651  1.00  0.00     0.234 A 
HETATM    3  N3  UNL     1       8.447  20.705  11.346  1.00  0.00    -0.344 N 
ATOM      4  H3  UNL     1       8.129  19.832  10.925  1.00  0.00     0.167 HD
HETATM    5  C2  UNL     1       8.725  21.855  10.695  1.00  0.00     0.200 A 
HETATM    6  N4  UNL     1       9.111  22.760  11.631  1.00  0.00    -0.270 N 
ATOM      7  H4  UNL     1       9.383  23.724  11.439  1.00  0.00     0.190 HD
ENDROOT
BRANCH   1   8
HETATM    8  N1  UNL     1       9.412  22.781  14.063  1.00  0.00    -0.016 N 
HETATM    9  O1  UNL     1       9.806  22.026  14.978  1.00  0.00    -0.515 OA
HETATM   10  O2  UNL     1       9.307  24.140  14.236  1.00  0.00    -0.515 OA
ENDBRANCH   1   8
TORSDOF 1
ENDMDL
MODEL 3
REMARK VINA RESULT: -4.819066024      0.948      1.269
REMARK  1 active torsions:
REMARK  status: ('A' for Active; 'I' for Inactive)
REMARK    1  A    between atoms: N1_2  and  N2_4 
ROOT
HETATM    1  N2  UNL     1       9.182  22.147  12.795  1.00  0.00    -0.131 N 
HETATM    2  C1  UNL     1       9.013  22.722  11.590  1.00  0.00     0.234 A 
HETATM    3  N3  UNL     1       8.748  21.787  10.665  1.00  0.00    -0.344 N 
ATOM      4  H3  UNL     1       8.578  21.948   9.672  1.00  0.00     0.167 HD
HETATM    5  C2  UNL     1       8.749  20.593  11.297  1.00  0.00     0.200 A 
HETATM    6  N4  UNL     1       9.020  20.835  12.605  1.00  0.00    -0.270 N 
ATOM      7  H4  UNL     1       9.088  20.123  13.333  1.00  0.00     0.190 HD
ENDROOT
BRANCH   1   8
HETATM    8  N1  UNL     1       9.462  22.807  13.993  1.00  0.00    -0.016 N 
HETATM    9  O1  UNL     1       9.471  24.056  13.977  1.00  0.00    -0.515 OA
HETATM   10  O2  UNL     1       9.714  22.093  15.139  1.00  0.00    -0.515 OA
ENDBRANCH   1   8
TORSDOF 1
ENDMDL
MODEL 4
REMARK VINA RESULT: -4.688721255      0.915      1.717
REMARK  1 active torsions:
REMARK  status: ('A' for Active; 'I' for Inactive)
REMARK    1  A    between atoms: N1_2  and  N2_4 
ROOT
HETATM    1  N2  UNL     1       9.136  22.103  12.841  1.00  0.00    -0.131 N 
HETATM    2  C1  UNL     1       9.066  22.617  11.599  1.00  0.00     0.234 A 
HETATM    3  N3  UNL     1       8.759  21.652  10.717  1.00  0.00    -0.344 N 
ATOM      4  H3  UNL     1       8.644  21.765   9.710  1.00  0.00     0.167 HD
HETATM    5  C2  UNL     1       8.634  20.503  11.416  1.00  0.00     0.200 A 
HETATM    6  N4  UNL     1       8.870  20.800  12.719  1.00  0.00    -0.270 N 
ATOM      7  H4  UNL     1       8.848  20.131  13.489  1.00  0.00     0.190 HD
ENDROOT
BRANCH   1   8
HETATM    8  N1  UNL     1       9.422  22.809  14.011  1.00  0.00    -0.016 N 
HETATM    9  O1  UNL     1       9.698  22.146  15.034  1.00  0.00    -0.515 OA
HETATM   10  O2  UNL     1       9.397  24.182  14.019  1.00  0.00    -0.515 OA
ENDBRANCH   1   8
TORSDOF 1
ENDMDL
MODEL 5
REMARK VINA RESULT: -4.308576408      2.777      3.293
REMARK  1 active torsions:
REMARK  status: ('A' for Active; 'I' for Inactive)
REMARK    1  A    between atoms: N1_2  and  N2_4 
ROOT
HETATM    1  N2  UNL     1       8.959  22.048  11.774  1.00  0.00    -0.131 N 
HETATM    2  C1  UNL     1       8.777  21.086  12.698  1.00  0.00     0.234 A 
HETATM    3  N3  UNL     1       9.137  21.536  13.910  1.00  0.00    -0.344 N 
ATOM      4  H3  UNL     1       9.101  21.015  14.786  1.00  0.00     0.167 HD
HETATM    5  C2  UNL     1       9.556  22.810  13.750  1.00  0.00     0.200 A 
HETATM    6  N4  UNL     1       9.441  23.106  12.430  1.00  0.00    -0.270 N 
ATOM      7  H4  UNL     1       9.685  24.000  12.004  1.00  0.00     0.190 HD
ENDROOT
BRANCH   1   8
HETATM    8  N1  UNL     1       8.685  21.944  10.409  1.00  0.00    -0.016 N 
HETATM    9  O1  UNL     1       8.192  22.942   9.840  1.00  0.00    -0.515 OA
HETATM   10  O2  UNL     1       8.953  20.780   9.731  1.00  0.00    -0.515 OA
ENDBRANCH   1   8
TORSDOF 1
ENDMDL
