MODEL 1
REMARK VINA RESULT: -4.502007912      0.000      0.000
REMARK  3 active torsions:
REMARK  status: ('A' for Active; 'I' for Inactive)
REMARK    1  A    between atoms: C2_4  and  N3_5 
REMARK    2  A    between atoms: N3_5  and  N4_7 
REMARK    3  A    between atoms: N4_7  and  N5_8 
ROOT
HETATM    1  N3  UNL     1       9.008  22.819  11.536  1.00  0.00    -0.216 N 
ATOM      2  H3  UNL     1       8.882  23.784  11.232  1.00  0.00     0.200 HD
ENDROOT
BRANCH   1   3
HETATM    3  C2  UNL     1       9.215  22.592  12.941  1.00  0.00     0.313 A 
HETATM    4  N1  UNL     1       8.417  23.201  13.911  1.00  0.00    -0.195 NA
HETATM    5  C1  UNL     1       8.427  22.656  15.257  1.00  0.00     0.136 C 
HETATM    6  N2  UNL     1       9.767  23.768  13.630  1.00  0.00    -0.117 NA
ENDBRANCH   1   3
BRANCH   1   7
HETATM    7  N4  UNL     1       8.972  21.961  10.687  1.00  0.00    -0.246 NA
BRANCH   7   8
HETATM    8  N5  UNL     1       9.008  21.097   9.831  1.00  0.00    -0.261 N 
ATOM      9  H52 UNL     1       8.212  20.884  10.433  1.00  0.00     0.193 HD
ATOM     10  H51 UNL     1       9.085  20.399   9.091  1.00  0.00     0.193 HD
ENDBRANCH   7   8
ENDBRANCH   1   7
TORSDOF 3
ENDMDL
MODEL 2
REMARK VINA RESULT: -4.254779836      0.868      1.067
REMARK  3 active torsions:
REMARK  status: ('A' for Active; 'I' for Inactive)
REMARK    1  A    between atoms: C2_4  and  N3_5 
REMARK    2  A    between atoms: N3_5  and  N4_7 
REMARK    3  A    between atoms: N4_7  and  N5_8 
ROOT
HETATM    1  N3  UNL     1       9.774  23.245  12.439  1.00  0.00    -0.216 N 
ATOM      2  H3  UNL     1      10.474  23.965  12.259  1.00  0.00     0.200 HD
ENDROOT
BRANCH   1   3
HETATM    3  C2  UNL     1       9.477  22.945  13.813  1.00  0.00     0.313 A 
HETATM    4  N1  UNL     1       8.165  22.826  14.274  1.00  0.00    -0.195 NA
HETATM    5  C1  UNL     1       7.935  22.168  15.548  1.00  0.00     0.136 C 
HETATM    6  N2  UNL     1       8.907  24.093  14.534  1.00  0.00    -0.117 NA
ENDBRANCH   1   3
BRANCH   1   7
HETATM    7  N4  UNL     1       9.264  22.716  11.481  1.00  0.00    -0.246 NA
BRANCH   7   8
HETATM    8  N5  UNL     1       8.803  22.135  10.516  1.00  0.00    -0.261 N 
ATOM      9  H52 UNL     1       9.600  21.586  10.839  1.00  0.00     0.193 HD
ATOM     10  H51 UNL     1       8.376  21.692   9.703  1.00  0.00     0.193 HD
ENDBRANCH   7   8
ENDBRANCH   1   7
TORSDOF 3
ENDMDL
MODEL 3
REMARK VINA RESULT: -4.145528934      1.150      1.289
REMARK  3 active torsions:
REMARK  status: ('A' for Active; 'I' for Inactive)
REMARK    1  A    between atoms: C2_4  and  N3_5 
REMARK    2  A    between atoms: N3_5  and  N4_7 
REMARK    3  A    between atoms: N4_7  and  N5_8 
ROOT
HETATM    1  N3  UNL     1       9.265  21.584  13.044  1.00  0.00    -0.216 N 
ATOM      2  H3  UNL     1       9.624  20.646  13.220  1.00  0.00     0.200 HD
ENDROOT
BRANCH   1   3
HETATM    3  C2  UNL     1       9.134  22.462  14.175  1.00  0.00     0.313 A 
HETATM    4  N1  UNL     1       8.181  23.481  14.210  1.00  0.00    -0.195 NA
HETATM    5  C1  UNL     1       7.850  24.076  15.493  1.00  0.00     0.136 C 
HETATM    6  N2  UNL     1       9.594  23.830  13.887  1.00  0.00    -0.117 NA
ENDBRANCH   1   3
BRANCH   1   7
HETATM    7  N4  UNL     1       8.987  21.866  11.904  1.00  0.00    -0.246 NA
BRANCH   7   8
HETATM    8  N5  UNL     1       8.777  22.158  10.741  1.00  0.00    -0.261 N 
ATOM      9  H52 UNL     1       9.657  21.645  10.762  1.00  0.00     0.193 HD
ATOM     10  H51 UNL     1       8.550  22.429   9.784  1.00  0.00     0.193 HD
ENDBRANCH   7   8
ENDBRANCH   1   7
TORSDOF 3
ENDMDL
MODEL 4
REMARK VINA RESULT: -4.049254954      1.341      1.888
REMARK  3 active torsions:
REMARK  status: ('A' for Active; 'I' for Inactive)
REMARK    1  A    between atoms: C2_4  and  N3_5 
REMARK    2  A    between atoms: N3_5  and  N4_7 
REMARK    3  A    between atoms: N4_7  and  N5_8 
ROOT
HETATM    1  N3  UNL     1       7.937  22.096  13.312  1.00  0.00    -0.216 N 
ATOM      2  H3  UNL     1       7.327  21.278  13.319  1.00  0.00     0.200 HD
ENDROOT
BRANCH   1   3
HETATM    3  C2  UNL     1       8.109  22.800  14.553  1.00  0.00     0.313 A 
HETATM    4  N1  UNL     1       7.618  24.093  14.741  1.00  0.00    -0.195 NA
HETATM    5  C1  UNL     1       7.492  24.596  16.097  1.00  0.00     0.136 C 
HETATM    6  N2  UNL     1       9.068  23.910  14.446  1.00  0.00    -0.117 NA
ENDBRANCH   1   3
BRANCH   1   7
HETATM    7  N4  UNL     1       8.455  22.391  12.262  1.00  0.00    -0.246 NA
BRANCH   7   8
HETATM    8  N5  UNL     1       9.006  22.746  11.237  1.00  0.00    -0.261 N 
ATOM      9  H52 UNL     1       9.718  22.738  11.967  1.00  0.00     0.193 HD
ATOM     10  H51 UNL     1       9.415  23.039  10.349  1.00  0.00     0.193 HD
ENDBRANCH   7   8
ENDBRANCH   1   7
TORSDOF 3
ENDMDL
MODEL 5
REMARK VINA RESULT: -4.014484005      1.503      3.822
REMARK  3 active torsions:
REMARK  status: ('A' for Active; 'I' for Inactive)
REMARK    1  A    between atoms: C2_4  and  N3_5 
REMARK    2  A    between atoms: N3_5  and  N4_7 
REMARK    3  A    between atoms: N4_7  and  N5_8 
ROOT
HETATM    1  N3  UNL     1       9.636  23.384  13.329  1.00  0.00    -0.216 N 
ATOM      2  H3  UNL     1      10.590  23.734  13.244  1.00  0.00     0.200 HD
ENDROOT
BRANCH   1   3
HETATM    3  C2  UNL     1       9.213  22.386  12.385  1.00  0.00     0.313 A 
HETATM    4  N1  UNL     1       8.730  22.725  11.120  1.00  0.00    -0.195 NA
HETATM    5  C1  UNL     1       8.676  21.693  10.100  1.00  0.00     0.136 C 
HETATM    6  N2  UNL     1       7.755  22.370  12.191  1.00  0.00    -0.117 NA
ENDBRANCH   1   3
BRANCH   1   7
HETATM    7  N4  UNL     1       8.954  23.843  14.214  1.00  0.00    -0.246 NA
BRANCH   7   8
HETATM    8  N5  UNL     1       8.215  24.261  15.085  1.00  0.00    -0.261 N 
ATOM      9  H52 UNL     1       9.100  24.029  15.535  1.00  0.00     0.193 HD
ATOM     10  H51 UNL     1       7.553  24.619  15.774  1.00  0.00     0.193 HD
ENDBRANCH   7   8
ENDBRANCH   1   7
TORSDOF 3
ENDMDL
