MODEL 1
REMARK VINA RESULT: -8.028288992      0.000      0.000
REMARK  6 active torsions:
REMARK  status: ('A' for Active; 'I' for Inactive)
REMARK    1  A    between atoms: C3_3  and  C5_5 
REMARK    2  A    between atoms: C5_5  and  C7_7 
REMARK    3  A    between atoms: C7_7  and  C8_8 
REMARK    4  A    between atoms: C9_9  and  C10_10 
REMARK    5  A    between atoms: N1_13  and  O1_15 
REMARK    6  A    between atoms: O1_15  and  C13_16 
ROOT
HETATM    1  C10 UNL     1      15.113  -5.019  12.626  1.00  0.00     0.044 C 
HETATM    2  C11 UNL     1      14.001  -4.053  12.741  1.00  0.00     0.070 C 
HETATM    3  C12 UNL     1      13.841  -3.406  14.048  1.00  0.00     0.034 C 
HETATM    4  N1  UNL     1      12.882  -2.564  14.213  1.00  0.00    -0.262 N 
ATOM      5  H1  UNL     1      12.784  -2.122  15.127  1.00  0.00     0.194 HD
HETATM    6  C15 UNL     1      14.779  -3.745  15.107  1.00  0.00     0.037 C 
HETATM    7  C16 UNL     1      15.571  -4.798  15.063  1.00  0.00    -0.013 C 
HETATM    8  C17 UNL     1      16.588  -5.407  15.916  1.00  0.00     0.112 C 
HETATM    9  N2  UNL     1      17.320  -6.189  15.191  1.00  0.00    -0.314 N 
ATOM     10  H2  UNL     1      18.105  -6.737  15.543  1.00  0.00     0.181 HD
HETATM   11  N3  UNL     1      16.891  -6.181  13.862  1.00  0.00    -0.126 NA
HETATM   12  C18 UNL     1      15.524  -5.704  13.881  1.00  0.00     0.082 C 
HETATM   13  C19 UNL     1      14.618  -6.889  14.109  1.00  0.00     0.042 C 
ENDROOT
BRANCH   1  14
HETATM   14  C9  UNL     1      16.285  -4.314  12.025  1.00  0.00    -0.023 C 
HETATM   15  C8  UNL     1      16.666  -4.542  10.750  1.00  0.00    -0.029 C 
BRANCH  15  16
HETATM   16  C7  UNL     1      17.815  -3.849  10.164  1.00  0.00     0.035 C 
BRANCH  16  17
HETATM   17  C5  UNL     1      17.918  -2.383  10.371  1.00  0.00     0.013 C 
HETATM   18  C6  UNL     1      19.145  -2.097  11.258  1.00  0.00     0.015 C 
BRANCH  17  19
HETATM   19  C3  UNL     1      17.917  -1.561   9.174  1.00  0.00    -0.084 C 
HETATM   20  C2  UNL     1      16.802  -0.970   8.770  1.00  0.00    -0.028 C 
HETATM   21  C1  UNL     1      15.546  -1.184   9.528  1.00  0.00     0.036 C 
HETATM   22  C4  UNL     1      19.147  -1.316   8.385  1.00  0.00     0.043 C 
ENDBRANCH  17  19
ENDBRANCH  16  17
ENDBRANCH  15  16
ENDBRANCH   1  14
BRANCH   4  23
HETATM   23  O1  UNL     1      11.990  -2.231  13.236  1.00  0.00    -0.200 OA
BRANCH  23  24
HETATM   24  C13 UNL     1      11.833  -0.915  12.816  1.00  0.00     0.277 C 
HETATM   25  C14 UNL     1      12.609  -0.300  11.724  1.00  0.00     0.128 C 
HETATM   26  O2  UNL     1      10.964  -0.231  13.426  1.00  0.00    -0.264 OA
ENDBRANCH  23  24
ENDBRANCH   4  23
TORSDOF 6
ENDMDL
MODEL 2
REMARK VINA RESULT: -7.706048551      2.658      4.796
REMARK  6 active torsions:
REMARK  status: ('A' for Active; 'I' for Inactive)
REMARK    1  A    between atoms: C3_3  and  C5_5 
REMARK    2  A    between atoms: C5_5  and  C7_7 
REMARK    3  A    between atoms: C7_7  and  C8_8 
REMARK    4  A    between atoms: C9_9  and  C10_10 
REMARK    5  A    between atoms: N1_13  and  O1_15 
REMARK    6  A    between atoms: O1_15  and  C13_16 
ROOT
HETATM    1  C10 UNL     1      14.265  -2.725  13.954  1.00  0.00     0.044 C 
HETATM    2  C11 UNL     1      14.234  -3.842  14.920  1.00  0.00     0.070 C 
HETATM    3  C12 UNL     1      13.510  -5.045  14.495  1.00  0.00     0.034 C 
HETATM    4  N1  UNL     1      13.439  -6.046  15.298  1.00  0.00    -0.262 N 
ATOM      5  H1  UNL     1      12.933  -6.876  14.988  1.00  0.00     0.194 HD
HETATM    6  C15 UNL     1      12.901  -5.054  13.173  1.00  0.00     0.037 C 
HETATM    7  C16 UNL     1      12.706  -3.963  12.458  1.00  0.00    -0.013 C 
HETATM    8  C17 UNL     1      12.146  -3.627  11.152  1.00  0.00     0.112 C 
HETATM    9  N2  UNL     1      12.584  -2.462  10.802  1.00  0.00    -0.314 N 
ATOM     10  H2  UNL     1      12.345  -1.992   9.930  1.00  0.00     0.181 HD
HETATM   11  N3  UNL     1      13.430  -1.934  11.782  1.00  0.00    -0.126 NA
HETATM   12  C18 UNL     1      13.120  -2.641  13.007  1.00  0.00     0.082 C 
HETATM   13  C19 UNL     1      11.978  -1.924  13.685  1.00  0.00     0.042 C 
ENDROOT
BRANCH   1  14
HETATM   14  C9  UNL     1      15.548  -2.799  13.193  1.00  0.00    -0.023 C 
HETATM   15  C8  UNL     1      16.544  -3.628  13.571  1.00  0.00    -0.029 C 
BRANCH  15  16
HETATM   16  C7  UNL     1      17.801  -3.698  12.823  1.00  0.00     0.035 C 
BRANCH  16  17
HETATM   17  C5  UNL     1      17.843  -3.067  11.481  1.00  0.00     0.013 C 
HETATM   18  C6  UNL     1      19.316  -2.845  11.089  1.00  0.00     0.015 C 
BRANCH  17  19
HETATM   19  C3  UNL     1      17.103  -3.740  10.428  1.00  0.00    -0.084 C 
HETATM   20  C2  UNL     1      16.398  -3.037   9.553  1.00  0.00    -0.028 C 
HETATM   21  C1  UNL     1      16.341  -1.561   9.678  1.00  0.00     0.036 C 
HETATM   22  C4  UNL     1      17.130  -5.212  10.262  1.00  0.00     0.043 C 
ENDBRANCH  17  19
ENDBRANCH  16  17
ENDBRANCH  15  16
ENDBRANCH   1  14
BRANCH   4  23
HETATM   23  O1  UNL     1      14.001  -6.061  16.542  1.00  0.00    -0.200 OA
BRANCH  23  24
HETATM   24  C13 UNL     1      15.150  -6.796  16.810  1.00  0.00     0.277 C 
HETATM   25  C14 UNL     1      16.519  -6.274  16.644  1.00  0.00     0.128 C 
HETATM   26  O2  UNL     1      14.978  -7.978  17.218  1.00  0.00    -0.264 OA
ENDBRANCH  23  24
ENDBRANCH   4  23
TORSDOF 6
ENDMDL
MODEL 3
REMARK VINA RESULT: -7.680963361      0.804      1.569
REMARK  6 active torsions:
REMARK  status: ('A' for Active; 'I' for Inactive)
REMARK    1  A    between atoms: C3_3  and  C5_5 
REMARK    2  A    between atoms: C5_5  and  C7_7 
REMARK    3  A    between atoms: C7_7  and  C8_8 
REMARK    4  A    between atoms: C9_9  and  C10_10 
REMARK    5  A    between atoms: N1_13  and  O1_15 
REMARK    6  A    between atoms: O1_15  and  C13_16 
ROOT
HETATM    1  C10 UNL     1      15.080  -5.243  12.984  1.00  0.00     0.044 C 
HETATM    2  C11 UNL     1      13.963  -4.278  13.055  1.00  0.00     0.070 C 
HETATM    3  C12 UNL     1      13.796  -3.577  14.333  1.00  0.00     0.034 C 
HETATM    4  N1  UNL     1      12.833  -2.734  14.460  1.00  0.00    -0.262 N 
ATOM      5  H1  UNL     1      12.729  -2.254  15.353  1.00  0.00     0.194 HD
HETATM    6  C15 UNL     1      14.731  -3.866  15.409  1.00  0.00     0.037 C 
HETATM    7  C16 UNL     1      15.529  -4.917  15.411  1.00  0.00    -0.013 C 
HETATM    8  C17 UNL     1      16.546  -5.485  16.293  1.00  0.00     0.112 C 
HETATM    9  N2  UNL     1      17.284  -6.293  15.604  1.00  0.00    -0.314 N 
ATOM     10  H2  UNL     1      18.070  -6.822  15.981  1.00  0.00     0.181 HD
HETATM   11  N3  UNL     1      16.859  -6.343  14.274  1.00  0.00    -0.126 NA
HETATM   12  C18 UNL     1      15.490  -5.873  14.269  1.00  0.00     0.082 C 
HETATM   13  C19 UNL     1      14.589  -7.051  14.544  1.00  0.00     0.042 C 
ENDROOT
BRANCH   1  14
HETATM   14  C9  UNL     1      16.251  -4.559  12.358  1.00  0.00    -0.023 C 
HETATM   15  C8  UNL     1      16.152  -3.307  11.861  1.00  0.00    -0.029 C 
BRANCH  15  16
HETATM   16  C7  UNL     1      17.301  -2.639  11.248  1.00  0.00     0.035 C 
BRANCH  16  17
HETATM   17  C5  UNL     1      17.409  -2.667   9.768  1.00  0.00     0.013 C 
HETATM   18  C6  UNL     1      16.002  -2.877   9.177  1.00  0.00     0.015 C 
BRANCH  17  19
HETATM   19  C3  UNL     1      18.089  -1.543   9.150  1.00  0.00    -0.084 C 
HETATM   20  C2  UNL     1      19.374  -1.630   8.834  1.00  0.00    -0.028 C 
HETATM   21  C1  UNL     1      20.121  -2.871   9.151  1.00  0.00     0.036 C 
HETATM   22  C4  UNL     1      17.385  -0.283   8.813  1.00  0.00     0.043 C 
ENDBRANCH  17  19
ENDBRANCH  16  17
ENDBRANCH  15  16
ENDBRANCH   1  14
BRANCH   4  23
HETATM   23  O1  UNL     1      11.942  -2.446  13.466  1.00  0.00    -0.200 OA
BRANCH  23  24
HETATM   24  C13 UNL     1      11.778  -1.150  12.992  1.00  0.00     0.277 C 
HETATM   25  C14 UNL     1      12.633  -0.536  11.960  1.00  0.00     0.128 C 
HETATM   26  O2  UNL     1      10.832  -0.483  13.495  1.00  0.00    -0.264 OA
ENDBRANCH  23  24
ENDBRANCH   4  23
TORSDOF 6
ENDMDL
MODEL 4
REMARK VINA RESULT: -7.595739810      3.144      6.169
REMARK  6 active torsions:
REMARK  status: ('A' for Active; 'I' for Inactive)
REMARK    1  A    between atoms: C3_3  and  C5_5 
REMARK    2  A    between atoms: C5_5  and  C7_7 
REMARK    3  A    between atoms: C7_7  and  C8_8 
REMARK    4  A    between atoms: C9_9  and  C10_10 
REMARK    5  A    between atoms: N1_13  and  O1_15 
REMARK    6  A    between atoms: O1_15  and  C13_16 
ROOT
HETATM    1  C10 UNL     1      16.911  -3.169   9.852  1.00  0.00     0.044 C 
HETATM    2  C11 UNL     1      16.755  -4.533  10.396  1.00  0.00     0.070 C 
HETATM    3  C12 UNL     1      17.596  -4.869  11.551  1.00  0.00     0.034 C 
HETATM    4  N1  UNL     1      17.514  -6.046  12.061  1.00  0.00    -0.262 N 
ATOM      5  H1  UNL     1      18.104  -6.264  12.863  1.00  0.00     0.194 HD
HETATM    6  C15 UNL     1      18.492  -3.848  12.073  1.00  0.00     0.037 C 
HETATM    7  C16 UNL     1      18.810  -2.755  11.408  1.00  0.00    -0.013 C 
HETATM    8  C17 UNL     1      19.644  -1.576  11.626  1.00  0.00     0.112 C 
HETATM    9  N2  UNL     1      19.261  -0.644  10.816  1.00  0.00    -0.314 N 
ATOM     10  H2  UNL     1      19.678   0.285  10.764  1.00  0.00     0.181 HD
HETATM   11  N3  UNL     1      18.196  -1.081  10.023  1.00  0.00    -0.126 NA
HETATM   12  C18 UNL     1      18.239  -2.528  10.050  1.00  0.00     0.082 C 
HETATM   13  C19 UNL     1      19.172  -2.989   8.957  1.00  0.00     0.042 C 
ENDROOT
BRANCH   1  14
HETATM   14  C9  UNL     1      15.839  -2.307  10.435  1.00  0.00    -0.023 C 
HETATM   15  C8  UNL     1      14.647  -2.153   9.820  1.00  0.00    -0.029 C 
BRANCH  15  16
HETATM   16  C7  UNL     1      13.599  -1.308  10.394  1.00  0.00     0.035 C 
BRANCH  16  17
HETATM   17  C5  UNL     1      13.287  -1.476  11.835  1.00  0.00     0.013 C 
HETATM   18  C6  UNL     1      12.220  -0.438  12.231  1.00  0.00     0.015 C 
BRANCH  17  19
HETATM   19  C3  UNL     1      12.920  -2.814  12.264  1.00  0.00    -0.084 C 
HETATM   20  C2  UNL     1      13.614  -3.426  13.213  1.00  0.00    -0.028 C 
HETATM   21  C1  UNL     1      14.792  -2.749  13.807  1.00  0.00     0.036 C 
HETATM   22  C4  UNL     1      11.751  -3.530  11.700  1.00  0.00     0.043 C 
ENDBRANCH  17  19
ENDBRANCH  16  17
ENDBRANCH  15  16
ENDBRANCH   1  14
BRANCH   4  23
HETATM   23  O1  UNL     1      16.682  -7.020  11.588  1.00  0.00    -0.200 OA
BRANCH  23  24
HETATM   24  C13 UNL     1      15.755  -7.646  12.414  1.00  0.00     0.277 C 
HETATM   25  C14 UNL     1      14.863  -6.930  13.343  1.00  0.00     0.128 C 
HETATM   26  O2  UNL     1      15.698  -8.905  12.340  1.00  0.00    -0.264 OA
ENDBRANCH  23  24
ENDBRANCH   4  23
TORSDOF 6
ENDMDL
MODEL 5
REMARK VINA RESULT: -7.588109200      3.021      5.315
REMARK  6 active torsions:
REMARK  status: ('A' for Active; 'I' for Inactive)
REMARK    1  A    between atoms: C3_3  and  C5_5 
REMARK    2  A    between atoms: C5_5  and  C7_7 
REMARK    3  A    between atoms: C7_7  and  C8_8 
REMARK    4  A    between atoms: C9_9  and  C10_10 
REMARK    5  A    between atoms: N1_13  and  O1_15 
REMARK    6  A    between atoms: O1_15  and  C13_16 
ROOT
HETATM    1  C10 UNL     1      16.676  -5.140  13.645  1.00  0.00     0.044 C 
HETATM    2  C11 UNL     1      17.479  -4.546  12.556  1.00  0.00     0.070 C 
HETATM    3  C12 UNL     1      17.477  -5.272  11.282  1.00  0.00     0.034 C 
HETATM    4  N1  UNL     1      18.168  -4.810  10.300  1.00  0.00    -0.262 N 
ATOM      5  H1  UNL     1      18.156  -5.326   9.420  1.00  0.00     0.194 HD
HETATM    6  C15 UNL     1      16.688  -6.491  11.181  1.00  0.00     0.037 C 
HETATM    7  C16 UNL     1      16.217  -7.137  12.231  1.00  0.00    -0.013 C 
HETATM    8  C17 UNL     1      15.424  -8.338  12.479  1.00  0.00     0.112 C 
HETATM    9  N2  UNL     1      14.924  -8.263  13.669  1.00  0.00    -0.314 N 
ATOM     10  H2  UNL     1      14.328  -8.974  14.091  1.00  0.00     0.181 HD
HETATM   11  N3  UNL     1      15.311  -7.076  14.297  1.00  0.00    -0.126 NA
HETATM   12  C18 UNL     1      16.492  -6.616  13.599  1.00  0.00     0.082 C 
HETATM   13  C19 UNL     1      17.695  -7.276  14.227  1.00  0.00     0.042 C 
ENDROOT
BRANCH   1  14
HETATM   14  C9  UNL     1      15.344  -4.463  13.667  1.00  0.00    -0.023 C 
HETATM   15  C8  UNL     1      15.206  -3.167  13.315  1.00  0.00    -0.029 C 
BRANCH  15  16
HETATM   16  C7  UNL     1      13.900  -2.507  13.338  1.00  0.00     0.035 C 
BRANCH  16  17
HETATM   17  C5  UNL     1      13.263  -2.190  12.036  1.00  0.00     0.013 C 
HETATM   18  C6  UNL     1      12.327  -3.351  11.650  1.00  0.00     0.015 C 
BRANCH  17  19
HETATM   19  C3  UNL     1      12.592  -0.906  11.942  1.00  0.00    -0.084 C 
HETATM   20  C2  UNL     1      12.898  -0.062  10.966  1.00  0.00    -0.028 C 
HETATM   21  C1  UNL     1      13.956  -0.423   9.993  1.00  0.00     0.036 C 
HETATM   22  C4  UNL     1      11.528  -0.501  12.890  1.00  0.00     0.043 C 
ENDBRANCH  17  19
ENDBRANCH  16  17
ENDBRANCH  15  16
ENDBRANCH   1  14
BRANCH   4  23
HETATM   23  O1  UNL     1      18.916  -3.670  10.370  1.00  0.00    -0.200 OA
BRANCH  23  24
HETATM   24  C13 UNL     1      18.636  -2.569   9.569  1.00  0.00     0.277 C 
HETATM   25  C14 UNL     1      17.299  -1.963   9.439  1.00  0.00     0.128 C 
HETATM   26  O2  UNL     1      19.608  -2.082   8.926  1.00  0.00    -0.264 OA
ENDBRANCH  23  24
ENDBRANCH   4  23
TORSDOF 6
ENDMDL
