MODEL 1
REMARK VINA RESULT: -7.084886989      0.000      0.000
REMARK  8 active torsions:
REMARK  status: ('A' for Active; 'I' for Inactive)
REMARK    1  A    between atoms: C2_2  and  C3_3 
REMARK    2  A    between atoms: C3_3  and  O1_4 
REMARK    3  A    between atoms: C6_8  and  O2_9 
REMARK    4  A    between atoms: C9_13  and  O3_14 
REMARK    5  A    between atoms: O3_14  and  C10_15 
REMARK    6  A    between atoms: C10_15  and  C11_16 
REMARK    7  A    between atoms: C15_20  and  O4_21 
REMARK    8  A    between atoms: C17_23  and  O5_24 
ROOT
HETATM    1  C3  UNL     1      13.990  -5.056  13.449  1.00  0.00     0.105 C 
HETATM    2  C4  UNL     1      14.580  -6.421  13.055  1.00  0.00     0.050 C 
HETATM    3  C5  UNL     1      16.087  -6.345  13.146  1.00  0.00     0.040 C 
HETATM    4  C6  UNL     1      16.659  -5.250  12.312  1.00  0.00     0.152 C 
HETATM    5  C7  UNL     1      15.643  -4.275  11.838  1.00  0.00    -0.015 A 
HETATM    6  C8  UNL     1      16.017  -3.431  10.793  1.00  0.00     0.050 A 
HETATM    7  C9  UNL     1      15.126  -2.491  10.302  1.00  0.00     0.105 A 
HETATM    8  C15 UNL     1      13.859  -2.367  10.833  1.00  0.00     0.135 A 
HETATM    9  C17 UNL     1      13.468  -3.198  11.875  1.00  0.00     0.114 A 
HETATM   10  C19 UNL     1      14.374  -4.127  12.344  1.00  0.00     0.025 A 
ENDROOT
BRANCH   7  11
HETATM   11  O3  UNL     1      15.574  -1.690   9.262  1.00  0.00    -0.344 OA
BRANCH  11  12
HETATM   12  C10 UNL     1      16.549  -0.695   9.418  1.00  0.00     0.203 C 
BRANCH  12  13
HETATM   13  C11 UNL     1      17.739  -0.978   8.588  1.00  0.00     0.001 C 
HETATM   14  C12 UNL     1      18.906  -1.256   9.133  1.00  0.00    -0.089 C 
HETATM   15  C13 UNL     1      19.065  -1.294  10.625  1.00  0.00     0.042 C 
HETATM   16  C14 UNL     1      20.112  -1.541   8.309  1.00  0.00     0.042 C 
ENDBRANCH  12  13
ENDBRANCH  11  12
ENDBRANCH   7  11
BRANCH   8  17
HETATM   17  O4  UNL     1      13.011  -1.429  10.323  1.00  0.00    -0.351 OA
HETATM   18  C16 UNL     1      12.995  -0.063  10.583  1.00  0.00     0.210 C 
ENDBRANCH   8  17
BRANCH   9  19
HETATM   19  O5  UNL     1      12.202  -3.105  12.438  1.00  0.00    -0.352 OA
HETATM   20  C18 UNL     1      11.799  -2.083  13.313  1.00  0.00     0.210 C 
ENDBRANCH   9  19
BRANCH   4  21
HETATM   21  O2  UNL     1      17.195  -5.822  11.142  1.00  0.00    -0.391 OA
ATOM     22  H2  UNL     1      16.877  -5.326  10.398  1.00  0.00     0.210 HD
ENDBRANCH   4  21
BRANCH   1  23
HETATM   23  C2  UNL     1      14.604  -4.676  14.745  1.00  0.00     0.005 C 
HETATM   24  C1  UNL     1      14.578  -3.481  15.264  1.00  0.00     0.010 C 
ENDBRANCH   1  23
BRANCH   1  25
HETATM   25  O1  UNL     1      12.640  -5.197  13.629  1.00  0.00    -0.381 OA
ATOM     26  H1  UNL     1      12.217  -5.186  12.778  1.00  0.00     0.211 HD
ENDBRANCH   1  25
TORSDOF 8
ENDMDL
MODEL 2
REMARK VINA RESULT: -6.892127462      1.704      4.383
REMARK  8 active torsions:
REMARK  status: ('A' for Active; 'I' for Inactive)
REMARK    1  A    between atoms: C2_2  and  C3_3 
REMARK    2  A    between atoms: C3_3  and  O1_4 
REMARK    3  A    between atoms: C6_8  and  O2_9 
REMARK    4  A    between atoms: C9_13  and  O3_14 
REMARK    5  A    between atoms: O3_14  and  C10_15 
REMARK    6  A    between atoms: C10_15  and  C11_16 
REMARK    7  A    between atoms: C15_20  and  O4_21 
REMARK    8  A    between atoms: C17_23  and  O5_24 
ROOT
HETATM    1  C3  UNL     1      13.491  -1.953  11.927  1.00  0.00     0.105 C 
HETATM    2  C4  UNL     1      13.300  -0.430  11.821  1.00  0.00     0.050 C 
HETATM    3  C5  UNL     1      13.100  -0.063  10.368  1.00  0.00     0.040 C 
HETATM    4  C6  UNL     1      14.218  -0.528   9.498  1.00  0.00     0.152 C 
HETATM    5  C7  UNL     1      15.110  -1.515  10.159  1.00  0.00    -0.015 A 
HETATM    6  C8  UNL     1      16.351  -1.743   9.564  1.00  0.00     0.050 A 
HETATM    7  C9  UNL     1      17.234  -2.654  10.118  1.00  0.00     0.105 A 
HETATM    8  C15 UNL     1      16.909  -3.355  11.261  1.00  0.00     0.135 A 
HETATM    9  C17 UNL     1      15.677  -3.143  11.868  1.00  0.00     0.114 A 
HETATM   10  C19 UNL     1      14.817  -2.228  11.296  1.00  0.00     0.025 A 
ENDROOT
BRANCH   7  11
HETATM   11  O3  UNL     1      18.447  -2.822   9.467  1.00  0.00    -0.344 OA
BRANCH  11  12
HETATM   12  C10 UNL     1      19.575  -2.030   9.719  1.00  0.00     0.203 C 
BRANCH  12  13
HETATM   13  C11 UNL     1      20.177  -1.541   8.461  1.00  0.00     0.001 C 
HETATM   14  C12 UNL     1      21.125  -2.217   7.845  1.00  0.00    -0.089 C 
HETATM   15  C13 UNL     1      21.628  -3.515   8.406  1.00  0.00     0.042 C 
HETATM   16  C14 UNL     1      21.740  -1.734   6.578  1.00  0.00     0.042 C 
ENDBRANCH  12  13
ENDBRANCH  11  12
ENDBRANCH   7  11
BRANCH   8  17
HETATM   17  O4  UNL     1      17.805  -4.244  11.776  1.00  0.00    -0.351 OA
HETATM   18  C16 UNL     1      18.043  -5.550  11.363  1.00  0.00     0.210 C 
ENDBRANCH   8  17
BRANCH   9  19
HETATM   19  O5  UNL     1      15.311  -3.829  13.019  1.00  0.00    -0.352 OA
HETATM   20  C18 UNL     1      14.885  -5.167  13.040  1.00  0.00     0.210 C 
ENDBRANCH   9  19
BRANCH   4  21
HETATM   21  O2  UNL     1      15.040   0.578   9.211  1.00  0.00    -0.391 OA
ATOM     22  H2  UNL     1      15.859   0.467   9.678  1.00  0.00     0.210 HD
ENDBRANCH   4  21
BRANCH   1  23
HETATM   23  C2  UNL     1      12.371  -2.583  11.184  1.00  0.00     0.005 C 
HETATM   24  C1  UNL     1      11.771  -3.686  11.529  1.00  0.00     0.010 C 
ENDBRANCH   1  23
BRANCH   1  25
HETATM   25  O1  UNL     1      13.401  -2.315  13.244  1.00  0.00    -0.381 OA
ATOM     26  H1  UNL     1      13.600  -1.558  13.782  1.00  0.00     0.211 HD
ENDBRANCH   1  25
TORSDOF 8
ENDMDL
MODEL 3
REMARK VINA RESULT: -6.853166623      1.480      2.646
REMARK  8 active torsions:
REMARK  status: ('A' for Active; 'I' for Inactive)
REMARK    1  A    between atoms: C2_2  and  C3_3 
REMARK    2  A    between atoms: C3_3  and  O1_4 
REMARK    3  A    between atoms: C6_8  and  O2_9 
REMARK    4  A    between atoms: C9_13  and  O3_14 
REMARK    5  A    between atoms: O3_14  and  C10_15 
REMARK    6  A    between atoms: C10_15  and  C11_16 
REMARK    7  A    between atoms: C15_20  and  O4_21 
REMARK    8  A    between atoms: C17_23  and  O5_24 
ROOT
HETATM    1  C3  UNL     1      12.817  -3.528  12.372  1.00  0.00     0.105 C 
HETATM    2  C4  UNL     1      12.944  -4.974  12.881  1.00  0.00     0.050 C 
HETATM    3  C5  UNL     1      13.746  -4.970  14.163  1.00  0.00     0.040 C 
HETATM    4  C6  UNL     1      15.086  -4.336  14.002  1.00  0.00     0.152 C 
HETATM    5  C7  UNL     1      15.226  -3.563  12.741  1.00  0.00    -0.015 A 
HETATM    6  C8  UNL     1      16.521  -3.230  12.345  1.00  0.00     0.050 A 
HETATM    7  C9  UNL     1      16.731  -2.503  11.185  1.00  0.00     0.105 A 
HETATM    8  C15 UNL     1      15.673  -2.094  10.401  1.00  0.00     0.135 A 
HETATM    9  C17 UNL     1      14.375  -2.416  10.778  1.00  0.00     0.114 A 
HETATM   10  C19 UNL     1      14.195  -3.141  11.938  1.00  0.00     0.025 A 
ENDROOT
BRANCH   7  11
HETATM   11  O3  UNL     1      18.049  -2.213  10.860  1.00  0.00    -0.344 OA
BRANCH  11  12
HETATM   12  C10 UNL     1      18.724  -2.797   9.780  1.00  0.00     0.203 C 
BRANCH  12  13
HETATM   13  C11 UNL     1      19.383  -1.771   8.945  1.00  0.00     0.001 C 
HETATM   14  C12 UNL     1      20.529  -2.009   8.340  1.00  0.00    -0.089 C 
HETATM   15  C13 UNL     1      21.206  -3.341   8.482  1.00  0.00     0.042 C 
HETATM   16  C14 UNL     1      21.203  -0.984   7.498  1.00  0.00     0.042 C 
ENDBRANCH  12  13
ENDBRANCH  11  12
ENDBRANCH   7  11
BRANCH   8  17
HETATM   17  O4  UNL     1      15.921  -1.380   9.265  1.00  0.00    -0.351 OA
HETATM   18  C16 UNL     1      16.136  -0.012   9.149  1.00  0.00     0.210 C 
ENDBRANCH   8  17
BRANCH   9  19
HETATM   19  O5  UNL     1      13.282  -2.022  10.018  1.00  0.00    -0.352 OA
HETATM   20  C18 UNL     1      12.780  -0.711   9.975  1.00  0.00     0.210 C 
ENDBRANCH   9  19
BRANCH   4  21
HETATM   21  O2  UNL     1      16.049  -5.361  13.916  1.00  0.00    -0.391 OA
ATOM     22  H2  UNL     1      16.726  -5.185  14.558  1.00  0.00     0.210 HD
ENDBRANCH   4  21
BRANCH   1  23
HETATM   23  C2  UNL     1      12.333  -2.708  13.509  1.00  0.00     0.005 C 
HETATM   24  C1  UNL     1      11.572  -1.655  13.403  1.00  0.00     0.010 C 
ENDBRANCH   1  23
BRANCH   1  25
HETATM   25  O1  UNL     1      11.878  -3.495  11.376  1.00  0.00    -0.381 OA
ATOM     26  H1  UNL     1      11.972  -2.680  10.897  1.00  0.00     0.211 HD
ENDBRANCH   1  25
TORSDOF 8
ENDMDL
MODEL 4
REMARK VINA RESULT: -6.839233693      1.910      6.281
REMARK  8 active torsions:
REMARK  status: ('A' for Active; 'I' for Inactive)
REMARK    1  A    between atoms: C2_2  and  C3_3 
REMARK    2  A    between atoms: C3_3  and  O1_4 
REMARK    3  A    between atoms: C6_8  and  O2_9 
REMARK    4  A    between atoms: C9_13  and  O3_14 
REMARK    5  A    between atoms: O3_14  and  C10_15 
REMARK    6  A    between atoms: C10_15  and  C11_16 
REMARK    7  A    between atoms: C15_20  and  O4_21 
REMARK    8  A    between atoms: C17_23  and  O5_24 
ROOT
HETATM    1  C3  UNL     1      16.659  -3.639  10.802  1.00  0.00     0.105 C 
HETATM    2  C4  UNL     1      16.209  -3.340   9.361  1.00  0.00     0.050 C 
HETATM    3  C5  UNL     1      16.049  -1.845   9.202  1.00  0.00     0.040 C 
HETATM    4  C6  UNL     1      15.104  -1.258  10.194  1.00  0.00     0.152 C 
HETATM    5  C7  UNL     1      14.777  -2.177  11.315  1.00  0.00    -0.015 A 
HETATM    6  C8  UNL     1      13.663  -1.857  12.090  1.00  0.00     0.050 A 
HETATM    7  C9  UNL     1      13.300  -2.662  13.156  1.00  0.00     0.105 A 
HETATM    8  C15 UNL     1      14.028  -3.789  13.476  1.00  0.00     0.135 A 
HETATM    9  C17 UNL     1      15.143  -4.124  12.717  1.00  0.00     0.114 A 
HETATM   10  C19 UNL     1      15.480  -3.306  11.659  1.00  0.00     0.025 A 
ENDROOT
BRANCH   7  11
HETATM   11  O3  UNL     1      12.179  -2.276  13.877  1.00  0.00    -0.344 OA
BRANCH  11  12
HETATM   12  C10 UNL     1      10.968  -1.904  13.278  1.00  0.00     0.203 C 
BRANCH  12  13
HETATM   13  C11 UNL     1      10.698  -0.463  13.469  1.00  0.00     0.001 C 
HETATM   14  C12 UNL     1       9.505  -0.028  13.818  1.00  0.00    -0.089 C 
HETATM   15  C13 UNL     1       8.372  -0.989  14.035  1.00  0.00     0.042 C 
HETATM   16  C14 UNL     1       9.220   1.420  14.011  1.00  0.00     0.042 C 
ENDBRANCH  12  13
ENDBRANCH  11  12
ENDBRANCH   7  11
BRANCH   8  17
HETATM   17  O4  UNL     1      13.639  -4.556  14.535  1.00  0.00    -0.351 OA
HETATM   18  C16 UNL     1      12.980  -5.780  14.505  1.00  0.00     0.210 C 
ENDBRANCH   8  17
BRANCH   9  19
HETATM   19  O5  UNL     1      15.903  -5.250  13.007  1.00  0.00    -0.352 OA
HETATM   20  C18 UNL     1      16.757  -5.362  14.116  1.00  0.00     0.210 C 
ENDBRANCH   9  19
BRANCH   4  21
HETATM   21  O2  UNL     1      13.878  -1.019   9.544  1.00  0.00    -0.391 OA
ATOM     22  H2  UNL     1      13.181  -1.111  10.183  1.00  0.00     0.210 HD
ENDBRANCH   4  21
BRANCH   1  23
HETATM   23  C2  UNL     1      17.825  -2.766  11.083  1.00  0.00     0.005 C 
HETATM   24  C1  UNL     1      18.823  -3.078  11.861  1.00  0.00     0.010 C 
ENDBRANCH   1  23
BRANCH   1  25
HETATM   25  O1  UNL     1      17.062  -4.946  10.873  1.00  0.00    -0.381 OA
ATOM     26  H1  UNL     1      16.874  -5.274  11.745  1.00  0.00     0.211 HD
ENDBRANCH   1  25
TORSDOF 8
ENDMDL
MODEL 5
REMARK VINA RESULT: -6.825860988      1.622      4.125
REMARK  8 active torsions:
REMARK  status: ('A' for Active; 'I' for Inactive)
REMARK    1  A    between atoms: C2_2  and  C3_3 
REMARK    2  A    between atoms: C3_3  and  O1_4 
REMARK    3  A    between atoms: C6_8  and  O2_9 
REMARK    4  A    between atoms: C9_13  and  O3_14 
REMARK    5  A    between atoms: O3_14  and  C10_15 
REMARK    6  A    between atoms: C10_15  and  C11_16 
REMARK    7  A    between atoms: C15_20  and  O4_21 
REMARK    8  A    between atoms: C17_23  and  O5_24 
ROOT
HETATM    1  C3  UNL     1      12.888  -1.957  12.704  1.00  0.00     0.105 C 
HETATM    2  C4  UNL     1      12.942  -0.553  12.075  1.00  0.00     0.050 C 
HETATM    3  C5  UNL     1      13.015  -0.696  10.571  1.00  0.00     0.040 C 
HETATM    4  C6  UNL     1      14.168  -1.531  10.128  1.00  0.00     0.152 C 
HETATM    5  C7  UNL     1      14.797  -2.303  11.230  1.00  0.00    -0.015 A 
HETATM    6  C8  UNL     1      16.065  -2.832  10.987  1.00  0.00     0.050 A 
HETATM    7  C9  UNL     1      16.712  -3.571  11.963  1.00  0.00     0.105 A 
HETATM    8  C15 UNL     1      16.122  -3.800  13.189  1.00  0.00     0.135 A 
HETATM    9  C17 UNL     1      14.858  -3.283  13.450  1.00  0.00     0.114 A 
HETATM   10  C19 UNL     1      14.238  -2.550  12.460  1.00  0.00     0.025 A 
ENDROOT
BRANCH   7  11
HETATM   11  O3  UNL     1      17.970  -4.061  11.644  1.00  0.00    -0.344 OA
BRANCH  11  12
HETATM   12  C10 UNL     1      19.134  -3.281  11.680  1.00  0.00     0.203 C 
BRANCH  12  13
HETATM   13  C11 UNL     1      19.632  -3.001  10.317  1.00  0.00     0.001 C 
HETATM   14  C12 UNL     1      19.532  -1.801   9.783  1.00  0.00    -0.089 C 
HETATM   15  C13 UNL     1      18.905  -0.672  10.547  1.00  0.00     0.042 C 
HETATM   16  C14 UNL     1      20.028  -1.507   8.411  1.00  0.00     0.042 C 
ENDBRANCH  12  13
ENDBRANCH  11  12
ENDBRANCH   7  11
BRANCH   8  17
HETATM   17  O4  UNL     1      16.791  -4.533  14.124  1.00  0.00    -0.351 OA
HETATM   18  C16 UNL     1      16.875  -5.917  14.223  1.00  0.00     0.210 C 
ENDBRANCH   8  17
BRANCH   9  19
HETATM   19  O5  UNL     1      14.229  -3.493  14.670  1.00  0.00    -0.352 OA
HETATM   20  C18 UNL     1      13.633  -4.705  15.053  1.00  0.00     0.210 C 
ENDBRANCH   9  19
BRANCH   4  21
HETATM   21  O2  UNL     1      15.178  -0.670   9.658  1.00  0.00    -0.391 OA
ATOM     22  H2  UNL     1      14.939   0.220   9.888  1.00  0.00     0.210 HD
ENDBRANCH   4  21
BRANCH   1  23
HETATM   23  C2  UNL     1      11.810  -2.702  12.009  1.00  0.00     0.005 C 
HETATM   24  C1  UNL     1      11.812  -3.986  11.785  1.00  0.00     0.010 C 
ENDBRANCH   1  23
BRANCH   1  25
HETATM   25  O1  UNL     1      12.552  -1.832  14.025  1.00  0.00    -0.381 OA
ATOM     26  H1  UNL     1      11.682  -1.453  14.083  1.00  0.00     0.211 HD
ENDBRANCH   1  25
TORSDOF 8
ENDMDL
