MODEL 1
REMARK VINA RESULT: -7.375573755      0.000      0.000
REMARK  7 active torsions:
REMARK  status: ('A' for Active; 'I' for Inactive)
REMARK    1  A    between atoms: C2_2  and  C4_4 
REMARK    2  A    between atoms: C2_2  and  C12_13 
REMARK    3  A    between atoms: C4_4  and  C5_5 
REMARK    4  A    between atoms: C9_9  and  C10_10 
REMARK    5  A    between atoms: N1_15  and  C14_16 
REMARK    6  A    between atoms: C14_16  and  C17_19 
REMARK    7  A    between atoms: C17_19  and  O1_20 
ROOT
HETATM    1  C12 UNL     1      16.944  -4.696  13.638  1.00  0.00     0.052 A 
HETATM    2  C13 UNL     1      16.516  -5.952  14.083  1.00  0.00     0.140 A 
HETATM    3  N1  UNL     1      16.475  -5.986  15.445  1.00  0.00    -0.276 N 
HETATM    4  N2  UNL     1      16.860  -4.799  15.805  1.00  0.00    -0.240 N 
ATOM      5  H2  UNL     1      16.935  -4.503  16.778  1.00  0.00     0.208 HD
HETATM    6  N3  UNL     1      17.147  -4.010  14.773  1.00  0.00    -0.288 N 
ATOM      7  H3  UNL     1      17.468  -3.043  14.835  1.00  0.00     0.188 HD
ENDROOT
BRANCH   1   8
HETATM    8  C2  UNL     1      17.120  -4.308  12.216  1.00  0.00    -0.002 C 
HETATM    9  C1  UNL     1      17.077  -5.490  11.350  1.00  0.00     0.021 C 
HETATM   10  C3  UNL     1      18.632  -3.861  12.128  1.00  0.00     0.021 C 
BRANCH   8  11
HETATM   11  C4  UNL     1      16.403  -3.080  11.861  1.00  0.00     0.019 C 
BRANCH  11  12
HETATM   12  C5  UNL     1      15.604  -2.958  10.631  1.00  0.00    -0.013 C 
HETATM   13  C6  UNL     1      16.283  -2.470   9.398  1.00  0.00     0.005 C 
HETATM   14  C7  UNL     1      16.620  -0.983   9.525  1.00  0.00     0.001 C 
HETATM   15  C8  UNL     1      15.327  -0.210   9.411  1.00  0.00     0.005 C 
HETATM   16  C9  UNL     1      14.171  -1.096   9.763  1.00  0.00    -0.004 C 
HETATM   17  C11 UNL     1      14.476  -1.981  10.953  1.00  0.00     0.010 C 
BRANCH  16  18
HETATM   18  C10 UNL     1      13.045  -0.169  10.246  1.00  0.00     0.090 C 
HETATM   19  S1  UNL     1      12.607  -0.568  11.972  1.00  0.00    -0.097 SA
ENDBRANCH  16  18
ENDBRANCH  11  12
ENDBRANCH   8  11
ENDBRANCH   1   8
BRANCH   3  20
HETATM   20  C14 UNL     1      16.075  -7.146  16.188  1.00  0.00     0.068 C 
HETATM   21  C15 UNL     1      17.336  -7.906  16.614  1.00  0.00     0.042 C 
HETATM   22  C16 UNL     1      15.288  -8.117  15.294  1.00  0.00     0.042 C 
BRANCH  20  23
HETATM   23  C17 UNL     1      15.261  -6.752  17.374  1.00  0.00     0.196 C 
BRANCH  23  24
HETATM   24  O1  UNL     1      14.213  -5.906  17.014  1.00  0.00    -0.398 OA
ATOM     25  H1  UNL     1      14.101  -5.204  17.644  1.00  0.00     0.209 HD
ENDBRANCH  23  24
ENDBRANCH  20  23
ENDBRANCH   3  20
TORSDOF 7
ENDMDL
MODEL 2
REMARK VINA RESULT: -7.214823212      1.112      1.299
REMARK  7 active torsions:
REMARK  status: ('A' for Active; 'I' for Inactive)
REMARK    1  A    between atoms: C2_2  and  C4_4 
REMARK    2  A    between atoms: C2_2  and  C12_13 
REMARK    3  A    between atoms: C4_4  and  C5_5 
REMARK    4  A    between atoms: C9_9  and  C10_10 
REMARK    5  A    between atoms: N1_15  and  C14_16 
REMARK    6  A    between atoms: C14_16  and  C17_19 
REMARK    7  A    between atoms: C17_19  and  O1_20 
ROOT
HETATM    1  C12 UNL     1      17.119  -4.322  13.052  1.00  0.00     0.052 A 
HETATM    2  C13 UNL     1      16.098  -5.239  13.324  1.00  0.00     0.140 A 
HETATM    3  N1  UNL     1      15.877  -5.323  14.666  1.00  0.00    -0.276 N 
HETATM    4  N2  UNL     1      16.729  -4.489  15.181  1.00  0.00    -0.240 N 
ATOM      5  H2  UNL     1      16.814  -4.318  16.183  1.00  0.00     0.208 HD
HETATM    6  N3  UNL     1      17.480  -3.880  14.267  1.00  0.00    -0.288 N 
ATOM      7  H3  UNL     1      18.208  -3.191  14.457  1.00  0.00     0.188 HD
ENDROOT
BRANCH   1   8
HETATM    8  C2  UNL     1      17.631  -3.990  11.698  1.00  0.00    -0.002 C 
HETATM    9  C1  UNL     1      17.738  -5.199  10.877  1.00  0.00     0.021 C 
HETATM   10  C3  UNL     1      19.140  -3.598  11.949  1.00  0.00     0.021 C 
BRANCH   8  11
HETATM   11  C4  UNL     1      17.065  -2.751  11.157  1.00  0.00     0.019 C 
BRANCH  11  12
HETATM   12  C5  UNL     1      15.917  -2.742  10.237  1.00  0.00    -0.013 C 
HETATM   13  C6  UNL     1      16.029  -1.949   8.980  1.00  0.00     0.005 C 
HETATM   14  C7  UNL     1      16.009  -0.451   9.288  1.00  0.00     0.001 C 
HETATM   15  C8  UNL     1      14.596  -0.085   9.677  1.00  0.00     0.005 C 
HETATM   16  C9  UNL     1      13.868  -1.303  10.158  1.00  0.00    -0.004 C 
HETATM   17  C11 UNL     1      14.741  -2.178  11.032  1.00  0.00     0.010 C 
BRANCH  16  18
HETATM   18  C10 UNL     1      12.757  -0.804  11.095  1.00  0.00     0.090 C 
HETATM   19  S1  UNL     1      12.737  -1.798  12.624  1.00  0.00    -0.097 SA
ENDBRANCH  16  18
ENDBRANCH  11  12
ENDBRANCH   8  11
ENDBRANCH   1   8
BRANCH   3  20
HETATM   20  C14 UNL     1      14.890  -6.187  15.246  1.00  0.00     0.068 C 
HETATM   21  C15 UNL     1      14.877  -7.503  14.461  1.00  0.00     0.042 C 
HETATM   22  C16 UNL     1      13.484  -5.591  15.081  1.00  0.00     0.042 C 
BRANCH  20  23
HETATM   23  C17 UNL     1      15.189  -6.427  16.688  1.00  0.00     0.196 C 
BRANCH  23  24
HETATM   24  O1  UNL     1      14.124  -6.039  17.500  1.00  0.00    -0.398 OA
ATOM     25  H1  UNL     1      14.416  -5.836  18.381  1.00  0.00     0.209 HD
ENDBRANCH  23  24
ENDBRANCH  20  23
ENDBRANCH   3  20
TORSDOF 7
ENDMDL
MODEL 3
REMARK VINA RESULT: -7.034015816      5.193      7.040
REMARK  7 active torsions:
REMARK  status: ('A' for Active; 'I' for Inactive)
REMARK    1  A    between atoms: C2_2  and  C4_4 
REMARK    2  A    between atoms: C2_2  and  C12_13 
REMARK    3  A    between atoms: C4_4  and  C5_5 
REMARK    4  A    between atoms: C9_9  and  C10_10 
REMARK    5  A    between atoms: N1_15  and  C14_16 
REMARK    6  A    between atoms: C14_16  and  C17_19 
REMARK    7  A    between atoms: C17_19  and  O1_20 
ROOT
HETATM    1  C12 UNL     1      18.319  -2.097   9.742  1.00  0.00     0.052 A 
HETATM    2  C13 UNL     1      19.609  -2.630   9.637  1.00  0.00     0.140 A 
HETATM    3  N1  UNL     1      20.356  -1.900   8.761  1.00  0.00    -0.276 N 
HETATM    4  N2  UNL     1      19.550  -0.965   8.357  1.00  0.00    -0.240 N 
ATOM      5  H2  UNL     1      19.816  -0.244   7.687  1.00  0.00     0.208 HD
HETATM    6  N3  UNL     1      18.342  -1.045   8.909  1.00  0.00    -0.288 N 
ATOM      7  H3  UNL     1      17.562  -0.412   8.729  1.00  0.00     0.188 HD
ENDROOT
BRANCH   1   8
HETATM    8  C2  UNL     1      17.235  -2.647  10.594  1.00  0.00    -0.002 C 
HETATM    9  C1  UNL     1      17.784  -3.192  11.839  1.00  0.00     0.021 C 
HETATM   10  C3  UNL     1      16.764  -3.941   9.820  1.00  0.00     0.021 C 
BRANCH   8  11
HETATM   11  C4  UNL     1      16.026  -1.818  10.595  1.00  0.00     0.019 C 
BRANCH  11  12
HETATM   12  C5  UNL     1      14.673  -2.395  10.607  1.00  0.00    -0.013 C 
HETATM   13  C6  UNL     1      13.576  -1.628   9.952  1.00  0.00     0.005 C 
HETATM   14  C7  UNL     1      13.233  -0.380  10.768  1.00  0.00     0.001 C 
HETATM   15  C8  UNL     1      12.501  -0.834  12.010  1.00  0.00     0.005 C 
HETATM   16  C9  UNL     1      12.831  -2.267  12.301  1.00  0.00    -0.004 C 
HETATM   17  C11 UNL     1      14.299  -2.568  12.078  1.00  0.00     0.010 C 
BRANCH  16  18
HETATM   18  C10 UNL     1      12.620  -2.463  13.810  1.00  0.00     0.090 C 
HETATM   19  S1  UNL     1      13.924  -3.545  14.487  1.00  0.00    -0.097 SA
ENDBRANCH  16  18
ENDBRANCH  11  12
ENDBRANCH   8  11
ENDBRANCH   1   8
BRANCH   3  20
HETATM   20  C14 UNL     1      21.721  -2.211   8.447  1.00  0.00     0.068 C 
HETATM   21  C15 UNL     1      21.734  -3.267   7.336  1.00  0.00     0.042 C 
HETATM   22  C16 UNL     1      22.419  -2.864   9.649  1.00  0.00     0.042 C 
BRANCH  20  23
HETATM   23  C17 UNL     1      22.452  -0.981   8.024  1.00  0.00     0.196 C 
BRANCH  23  24
HETATM   24  O1  UNL     1      21.983  -0.505   6.799  1.00  0.00    -0.398 OA
ATOM     25  H1  UNL     1      22.668  -0.507   6.142  1.00  0.00     0.209 HD
ENDBRANCH  23  24
ENDBRANCH  20  23
ENDBRANCH   3  20
TORSDOF 7
ENDMDL
MODEL 4
REMARK VINA RESULT: -7.029862759      2.264      3.335
REMARK  7 active torsions:
REMARK  status: ('A' for Active; 'I' for Inactive)
REMARK    1  A    between atoms: C2_2  and  C4_4 
REMARK    2  A    between atoms: C2_2  and  C12_13 
REMARK    3  A    between atoms: C4_4  and  C5_5 
REMARK    4  A    between atoms: C9_9  and  C10_10 
REMARK    5  A    between atoms: N1_15  and  C14_16 
REMARK    6  A    between atoms: C14_16  and  C17_19 
REMARK    7  A    between atoms: C17_19  and  O1_20 
ROOT
HETATM    1  C12 UNL     1      13.457  -4.440  14.158  1.00  0.00     0.052 A 
HETATM    2  C13 UNL     1      14.691  -4.801  14.710  1.00  0.00     0.140 A 
HETATM    3  N1  UNL     1      14.551  -5.892  15.515  1.00  0.00    -0.276 N 
HETATM    4  N2  UNL     1      13.286  -6.177  15.448  1.00  0.00    -0.240 N 
ATOM      5  H2  UNL     1      12.858  -6.957  15.946  1.00  0.00     0.208 HD
HETATM    6  N3  UNL     1      12.606  -5.347  14.661  1.00  0.00    -0.288 N 
ATOM      7  H3  UNL     1      11.605  -5.392  14.471  1.00  0.00     0.188 HD
ENDROOT
BRANCH   1   8
HETATM    8  C2  UNL     1      13.235  -3.290  13.245  1.00  0.00    -0.002 C 
HETATM    9  C1  UNL     1      12.300  -2.331  13.842  1.00  0.00     0.021 C 
HETATM   10  C3  UNL     1      12.398  -3.906  12.056  1.00  0.00     0.021 C 
BRANCH   8  11
HETATM   11  C4  UNL     1      14.459  -2.841  12.575  1.00  0.00     0.019 C 
BRANCH  11  12
HETATM   12  C5  UNL     1      14.903  -3.396  11.287  1.00  0.00    -0.013 C 
HETATM   13  C6  UNL     1      16.041  -4.359  11.292  1.00  0.00     0.005 C 
HETATM   14  C7  UNL     1      17.350  -3.639  11.624  1.00  0.00     0.001 C 
HETATM   15  C8  UNL     1      17.736  -2.816  10.417  1.00  0.00     0.005 C 
HETATM   16  C9  UNL     1      16.524  -2.537   9.581  1.00  0.00    -0.004 C 
HETATM   17  C11 UNL     1      15.315  -2.202  10.429  1.00  0.00     0.010 C 
BRANCH  16  18
HETATM   18  C10 UNL     1      16.821  -1.246   8.803  1.00  0.00     0.090 C 
HETATM   19  S1  UNL     1      15.641   0.059   9.283  1.00  0.00    -0.097 SA
ENDBRANCH  16  18
ENDBRANCH  11  12
ENDBRANCH   8  11
ENDBRANCH   1   8
BRANCH   3  20
HETATM   20  C14 UNL     1      15.647  -6.490  16.222  1.00  0.00     0.068 C 
HETATM   21  C15 UNL     1      16.736  -5.429  16.415  1.00  0.00     0.042 C 
HETATM   22  C16 UNL     1      16.294  -7.601  15.381  1.00  0.00     0.042 C 
BRANCH  20  23
HETATM   23  C17 UNL     1      15.187  -7.030  17.535  1.00  0.00     0.196 C 
BRANCH  23  24
HETATM   24  O1  UNL     1      14.186  -6.234  18.091  1.00  0.00    -0.398 OA
ATOM     25  H1  UNL     1      14.226  -5.345  17.760  1.00  0.00     0.209 HD
ENDBRANCH  23  24
ENDBRANCH  20  23
ENDBRANCH   3  20
TORSDOF 7
ENDMDL
MODEL 5
REMARK VINA RESULT: -7.025186669      1.793      2.586
REMARK  7 active torsions:
REMARK  status: ('A' for Active; 'I' for Inactive)
REMARK    1  A    between atoms: C2_2  and  C4_4 
REMARK    2  A    between atoms: C2_2  and  C12_13 
REMARK    3  A    between atoms: C4_4  and  C5_5 
REMARK    4  A    between atoms: C9_9  and  C10_10 
REMARK    5  A    between atoms: N1_15  and  C14_16 
REMARK    6  A    between atoms: C14_16  and  C17_19 
REMARK    7  A    between atoms: C17_19  and  O1_20 
ROOT
HETATM    1  C12 UNL     1      15.567  -4.261  14.671  1.00  0.00     0.052 A 
HETATM    2  C13 UNL     1      15.508  -5.635  14.928  1.00  0.00     0.140 A 
HETATM    3  N1  UNL     1      15.898  -5.898  16.208  1.00  0.00    -0.276 N 
HETATM    4  N2  UNL     1      16.177  -4.729  16.701  1.00  0.00    -0.240 N 
ATOM      5  H2  UNL     1      16.501  -4.584  17.657  1.00  0.00     0.208 HD
HETATM    6  N3  UNL     1      15.997  -3.739  15.829  1.00  0.00    -0.288 N 
ATOM      7  H3  UNL     1      16.160  -2.749  16.012  1.00  0.00     0.188 HD
ENDROOT
BRANCH   1   8
HETATM    8  C2  UNL     1      15.227  -3.620  13.375  1.00  0.00    -0.002 C 
HETATM    9  C1  UNL     1      14.242  -2.553  13.570  1.00  0.00     0.021 C 
HETATM   10  C3  UNL     1      14.401  -4.727  12.609  1.00  0.00     0.021 C 
BRANCH   8  11
HETATM   11  C4  UNL     1      16.391  -3.431  12.504  1.00  0.00     0.019 C 
BRANCH  11  12
HETATM   12  C5  UNL     1      16.316  -3.583  11.042  1.00  0.00    -0.013 C 
HETATM   13  C6  UNL     1      17.354  -4.412  10.368  1.00  0.00     0.005 C 
HETATM   14  C7  UNL     1      18.708  -3.699  10.393  1.00  0.00     0.001 C 
HETATM   15  C8  UNL     1      18.639  -2.554   9.409  1.00  0.00     0.005 C 
HETATM   16  C9  UNL     1      17.210  -2.165   9.180  1.00  0.00    -0.004 C 
HETATM   17  C11 UNL     1      16.406  -2.172  10.463  1.00  0.00     0.010 C 
BRANCH  16  18
HETATM   18  C10 UNL     1      17.225  -0.693   8.740  1.00  0.00     0.090 C 
HETATM   19  S1  UNL     1      15.657   0.114   9.205  1.00  0.00    -0.097 SA
ENDBRANCH  16  18
ENDBRANCH  11  12
ENDBRANCH   8  11
ENDBRANCH   1   8
BRANCH   3  20
HETATM   20  C14 UNL     1      15.943  -7.221  16.758  1.00  0.00     0.068 C 
HETATM   21  C15 UNL     1      17.410  -7.647  16.877  1.00  0.00     0.042 C 
HETATM   22  C16 UNL     1      15.296  -8.230  15.796  1.00  0.00     0.042 C 
BRANCH  20  23
HETATM   23  C17 UNL     1      15.265  -7.258  18.086  1.00  0.00     0.196 C 
BRANCH  23  24
HETATM   24  O1  UNL     1      14.140  -6.434  18.107  1.00  0.00    -0.398 OA
ATOM     25  H1  UNL     1      13.802  -6.331  18.988  1.00  0.00     0.209 HD
ENDBRANCH  23  24
ENDBRANCH  20  23
ENDBRANCH   3  20
TORSDOF 7
ENDMDL
