MODEL 1
REMARK VINA RESULT: -7.179027113      0.000      0.000
REMARK  6 active torsions:
REMARK  status: ('A' for Active; 'I' for Inactive)
REMARK    1  A    between atoms: C2_2  and  S1_3 
REMARK    2  A    between atoms: S1_3  and  C3_4 
REMARK    3  A    between atoms: C3_4  and  C4_5 
REMARK    4  A    between atoms: C4_5  and  N1_6 
REMARK    5  A    between atoms: N1_6  and  C5_7 
REMARK    6  A    between atoms: C12_21  and  S2_23 
ROOT
HETATM    1  C4  UNL     1       7.312  -4.165  17.859  1.00  0.00     0.178 C 
ENDROOT
BRANCH   1   2
HETATM    2  C3  UNL     1       7.408  -5.200  16.793  1.00  0.00     0.057 C 
HETATM    3  C10 UNL     1       7.682  -6.574  17.274  1.00  0.00     0.029 C 
HETATM    4  C11 UNL     1       7.681  -7.567  16.099  1.00  0.00     0.022 C 
HETATM    5  C12 UNL     1       6.354  -7.599  15.365  1.00  0.00     0.004 C 
HETATM    6  C13 UNL     1       6.601  -7.452  13.896  1.00  0.00     0.027 C 
HETATM    7  C15 UNL     1       5.504  -6.462  15.920  1.00  0.00     0.022 C 
HETATM    8  C16 UNL     1       6.211  -5.139  15.812  1.00  0.00     0.029 C 
BRANCH   2   9
HETATM    9  S1  UNL     1       8.833  -4.737  15.734  1.00  0.00    -0.126 SA
BRANCH   9  10
HETATM   10  C2  UNL     1       9.225  -2.979  16.080  1.00  0.00     0.036 C 
HETATM   11  C1  UNL     1      10.274  -2.390  15.681  1.00  0.00     0.018 C 
ENDBRANCH   9  10
ENDBRANCH   2   9
BRANCH   5  12
HETATM   12  S2  UNL     1       5.441  -9.107  15.729  1.00  0.00    -0.164 SA
HETATM   13  C14 UNL     1       4.060  -8.857  16.828  1.00  0.00     0.090 C 
ENDBRANCH   5  12
ENDBRANCH   1   2
BRANCH   1  14
HETATM   14  N1  UNL     1       6.312  -3.999  18.731  1.00  0.00    -0.398 NA
BRANCH  14  15
HETATM   15  C5  UNL     1       5.215  -4.019  19.210  1.00  0.00     0.221 A 
HETATM   16  N2  UNL     1       4.432  -5.123  19.251  1.00  0.00    -0.336 N 
HETATM   17  C6  UNL     1       3.225  -5.130  19.816  1.00  0.00     0.115 A 
ATOM     18  H2  UNL     1       4.781  -5.985  18.833  1.00  0.00     0.168 HD
HETATM   19  C7  UNL     1       2.688  -3.989  20.407  1.00  0.00     0.022 A 
HETATM   20  C8  UNL     1       1.340  -4.026  21.004  1.00  0.00     0.069 C 
HETATM   21  N3  UNL     1       3.396  -2.878  20.399  1.00  0.00    -0.341 N 
HETATM   22  C9  UNL     1       4.625  -2.837  19.826  1.00  0.00     0.158 A 
ATOM     23  H3  UNL     1       3.015  -2.037  20.831  1.00  0.00     0.167 HD
HETATM   24  N4  UNL     1       5.376  -1.752  19.748  1.00  0.00    -0.381 N 
ATOM     25  H42 UNL     1       6.300  -1.720  19.317  1.00  0.00     0.157 HD
ATOM     26  H41 UNL     1       4.963  -0.924  20.179  1.00  0.00     0.157 HD
ENDBRANCH  14  15
ENDBRANCH   1  14
TORSDOF 6
ENDMDL
MODEL 2
REMARK VINA RESULT: -6.626137286      1.587      1.898
REMARK  6 active torsions:
REMARK  status: ('A' for Active; 'I' for Inactive)
REMARK    1  A    between atoms: C2_2  and  S1_3 
REMARK    2  A    between atoms: S1_3  and  C3_4 
REMARK    3  A    between atoms: C3_4  and  C4_5 
REMARK    4  A    between atoms: C4_5  and  N1_6 
REMARK    5  A    between atoms: N1_6  and  C5_7 
REMARK    6  A    between atoms: C12_21  and  S2_23 
ROOT
HETATM    1  C4  UNL     1       6.205  -5.042  18.191  1.00  0.00     0.178 C 
ENDROOT
BRANCH   1   2
HETATM    2  C3  UNL     1       6.346  -5.900  16.982  1.00  0.00     0.057 C 
HETATM    3  C10 UNL     1       5.547  -7.147  17.001  1.00  0.00     0.029 C 
HETATM    4  C11 UNL     1       5.710  -7.911  15.675  1.00  0.00     0.022 C 
HETATM    5  C12 UNL     1       5.256  -7.099  14.477  1.00  0.00     0.004 C 
HETATM    6  C13 UNL     1       6.328  -7.126  13.431  1.00  0.00     0.027 C 
HETATM    7  C15 UNL     1       4.973  -5.686  14.970  1.00  0.00     0.022 C 
HETATM    8  C16 UNL     1       6.165  -5.095  15.671  1.00  0.00     0.029 C 
BRANCH   2   9
HETATM    9  S1  UNL     1       8.104  -6.421  16.907  1.00  0.00    -0.126 SA
BRANCH   9  10
HETATM   10  C2  UNL     1       8.890  -5.499  15.531  1.00  0.00     0.036 C 
HETATM   11  C1  UNL     1       9.917  -4.766  15.659  1.00  0.00     0.018 C 
ENDBRANCH   9  10
ENDBRANCH   2   9
BRANCH   5  12
HETATM   12  S2  UNL     1       3.691  -7.708  13.828  1.00  0.00    -0.164 SA
HETATM   13  C14 UNL     1       3.820  -8.405  12.193  1.00  0.00     0.090 C 
ENDBRANCH   5  12
ENDBRANCH   1   2
BRANCH   1  14
HETATM   14  N1  UNL     1       5.075  -4.516  18.677  1.00  0.00    -0.398 NA
BRANCH  14  15
HETATM   15  C5  UNL     1       3.988  -4.434  19.170  1.00  0.00     0.221 A 
HETATM   16  N2  UNL     1       3.012  -5.357  18.999  1.00  0.00    -0.336 N 
HETATM   17  C6  UNL     1       1.818  -5.260  19.581  1.00  0.00     0.115 A 
ATOM     18  H2  UNL     1       3.200  -6.160  18.399  1.00  0.00     0.168 HD
HETATM   19  C7  UNL     1       1.495  -4.191  20.413  1.00  0.00     0.022 A 
HETATM   20  C8  UNL     1       0.155  -4.103  21.025  1.00  0.00     0.069 C 
HETATM   21  N3  UNL     1       2.398  -3.254  20.620  1.00  0.00    -0.341 N 
HETATM   22  C9  UNL     1       3.620  -3.320  20.036  1.00  0.00     0.158 A 
ATOM     23  H3  UNL     1       2.174  -2.467  21.229  1.00  0.00     0.167 HD
HETATM   24  N4  UNL     1       4.561  -2.401  20.168  1.00  0.00    -0.381 N 
ATOM     25  H42 UNL     1       5.480  -2.450  19.729  1.00  0.00     0.157 HD
ATOM     26  H41 UNL     1       4.304  -1.622  20.774  1.00  0.00     0.157 HD
ENDBRANCH  14  15
ENDBRANCH   1  14
TORSDOF 6
ENDMDL
MODEL 3
REMARK VINA RESULT: -6.575883441      0.890      1.594
REMARK  6 active torsions:
REMARK  status: ('A' for Active; 'I' for Inactive)
REMARK    1  A    between atoms: C2_2  and  S1_3 
REMARK    2  A    between atoms: S1_3  and  C3_4 
REMARK    3  A    between atoms: C3_4  and  C4_5 
REMARK    4  A    between atoms: C4_5  and  N1_6 
REMARK    5  A    between atoms: N1_6  and  C5_7 
REMARK    6  A    between atoms: C12_21  and  S2_23 
ROOT
HETATM    1  C4  UNL     1       6.924  -4.650  17.746  1.00  0.00     0.178 C 
ENDROOT
BRANCH   1   2
HETATM    2  C3  UNL     1       7.022  -5.508  16.533  1.00  0.00     0.057 C 
HETATM    3  C10 UNL     1       7.232  -6.950  16.800  1.00  0.00     0.029 C 
HETATM    4  C11 UNL     1       7.239  -7.746  15.483  1.00  0.00     0.022 C 
HETATM    5  C12 UNL     1       5.938  -7.610  14.715  1.00  0.00     0.004 C 
HETATM    6  C13 UNL     1       6.241  -7.244  13.295  1.00  0.00     0.027 C 
HETATM    7  C15 UNL     1       5.108  -6.542  15.417  1.00  0.00     0.022 C 
HETATM    8  C16 UNL     1       5.863  -5.247  15.540  1.00  0.00     0.029 C 
BRANCH   2   9
HETATM    9  S1  UNL     1       8.499  -4.941  15.604  1.00  0.00    -0.126 SA
BRANCH   9  10
HETATM   10  C2  UNL     1       8.890  -3.244  16.178  1.00  0.00     0.036 C 
HETATM   11  C1  UNL     1       9.916  -2.590  15.823  1.00  0.00     0.018 C 
ENDBRANCH   9  10
ENDBRANCH   2   9
BRANCH   5  12
HETATM   12  S2  UNL     1       4.962  -9.120  14.809  1.00  0.00    -0.164 SA
HETATM   13  C14 UNL     1       4.500  -9.568  16.471  1.00  0.00     0.090 C 
ENDBRANCH   5  12
ENDBRANCH   1   2
BRANCH   1  14
HETATM   14  N1  UNL     1       5.959  -4.673  18.672  1.00  0.00    -0.398 NA
BRANCH  14  15
HETATM   15  C5  UNL     1       4.915  -4.471  19.221  1.00  0.00     0.221 A 
HETATM   16  N2  UNL     1       4.599  -3.304  19.830  1.00  0.00    -0.336 N 
HETATM   17  C6  UNL     1       3.419  -3.091  20.411  1.00  0.00     0.115 A 
ATOM     18  H2  UNL     1       5.293  -2.557  19.845  1.00  0.00     0.168 HD
HETATM   19  C7  UNL     1       2.425  -4.066  20.427  1.00  0.00     0.022 A 
HETATM   20  C8  UNL     1       1.137  -3.804  21.098  1.00  0.00     0.069 C 
HETATM   21  N3  UNL     1       2.668  -5.227  19.855  1.00  0.00    -0.341 N 
HETATM   22  C9  UNL     1       3.862  -5.478  19.262  1.00  0.00     0.158 A 
ATOM     23  H3  UNL     1       1.947  -5.949  19.858  1.00  0.00     0.167 HD
HETATM   24  N4  UNL     1       4.189  -6.630  18.701  1.00  0.00    -0.381 N 
ATOM     25  H42 UNL     1       5.086  -6.819  18.255  1.00  0.00     0.157 HD
ATOM     26  H41 UNL     1       3.452  -7.335  18.729  1.00  0.00     0.157 HD
ENDBRANCH  14  15
ENDBRANCH   1  14
TORSDOF 6
ENDMDL
MODEL 4
REMARK VINA RESULT: -6.574093318      3.640      7.226
REMARK  6 active torsions:
REMARK  status: ('A' for Active; 'I' for Inactive)
REMARK    1  A    between atoms: C2_2  and  S1_3 
REMARK    2  A    between atoms: S1_3  and  C3_4 
REMARK    3  A    between atoms: C3_4  and  C4_5 
REMARK    4  A    between atoms: C4_5  and  N1_6 
REMARK    5  A    between atoms: N1_6  and  C5_7 
REMARK    6  A    between atoms: C12_21  and  S2_23 
ROOT
HETATM    1  C4  UNL     1       5.458  -7.429  16.188  1.00  0.00     0.178 C 
ENDROOT
BRANCH   1   2
HETATM    2  C3  UNL     1       6.390  -6.344  16.599  1.00  0.00     0.057 C 
HETATM    3  C10 UNL     1       7.728  -6.801  17.040  1.00  0.00     0.029 C 
HETATM    4  C11 UNL     1       8.629  -5.596  17.365  1.00  0.00     0.022 C 
HETATM    5  C12 UNL     1       8.832  -4.683  16.170  1.00  0.00     0.004 C 
HETATM    6  C13 UNL     1       8.550  -3.270  16.578  1.00  0.00     0.027 C 
HETATM    7  C15 UNL     1       7.890  -5.162  15.072  1.00  0.00     0.022 C 
HETATM    8  C16 UNL     1       6.464  -5.209  15.547  1.00  0.00     0.029 C 
BRANCH   2   9
HETATM    9  S1  UNL     1       5.630  -5.516  18.049  1.00  0.00    -0.126 SA
BRANCH   9  10
HETATM   10  C2  UNL     1       4.172  -6.510  18.546  1.00  0.00     0.036 C 
HETATM   11  C1  UNL     1       3.306  -6.133  19.391  1.00  0.00     0.018 C 
ENDBRANCH   9  10
ENDBRANCH   2   9
BRANCH   5  12
HETATM   12  S2  UNL     1      10.491  -4.852  15.491  1.00  0.00    -0.164 SA
HETATM   13  C14 UNL     1      11.356  -3.302  15.331  1.00  0.00     0.090 C 
ENDBRANCH   5  12
ENDBRANCH   1   2
BRANCH   1  14
HETATM   14  N1  UNL     1       5.357  -7.987  14.976  1.00  0.00    -0.398 NA
BRANCH  14  15
HETATM   15  C5  UNL     1       5.625  -8.627  14.001  1.00  0.00     0.221 A 
HETATM   16  N2  UNL     1       6.088  -9.898  14.038  1.00  0.00    -0.336 N 
HETATM   17  C6  UNL     1       6.353 -10.603  12.939  1.00  0.00     0.115 A 
ATOM     18  H2  UNL     1       6.241 -10.336  14.948  1.00  0.00     0.168 HD
HETATM   19  C7  UNL     1       6.165 -10.069  11.666  1.00  0.00     0.022 A 
HETATM   20  C8  UNL     1       6.488 -10.869  10.470  1.00  0.00     0.069 C 
HETATM   21  N3  UNL     1       5.719  -8.834  11.557  1.00  0.00    -0.341 N 
HETATM   22  C9  UNL     1       5.448  -8.089  12.657  1.00  0.00     0.158 A 
ATOM     23  H3  UNL     1       5.576  -8.433  10.631  1.00  0.00     0.167 HD
HETATM   24  N4  UNL     1       5.034  -6.834  12.625  1.00  0.00    -0.381 N 
ATOM     25  H42 UNL     1       4.830  -6.273  13.452  1.00  0.00     0.157 HD
ATOM     26  H41 UNL     1       4.910  -6.457  11.685  1.00  0.00     0.157 HD
ENDBRANCH  14  15
ENDBRANCH   1  14
TORSDOF 6
ENDMDL
MODEL 5
REMARK VINA RESULT: -6.506920189      2.562      4.741
REMARK  6 active torsions:
REMARK  status: ('A' for Active; 'I' for Inactive)
REMARK    1  A    between atoms: C2_2  and  S1_3 
REMARK    2  A    between atoms: S1_3  and  C3_4 
REMARK    3  A    between atoms: C3_4  and  C4_5 
REMARK    4  A    between atoms: C4_5  and  N1_6 
REMARK    5  A    between atoms: N1_6  and  C5_7 
REMARK    6  A    between atoms: C12_21  and  S2_23 
ROOT
HETATM    1  C4  UNL     1       2.903  -6.543  15.848  1.00  0.00     0.178 C 
ENDROOT
BRANCH   1   2
HETATM    2  C3  UNL     1       4.391  -6.538  15.807  1.00  0.00     0.057 C 
HETATM    3  C10 UNL     1       4.997  -5.347  15.168  1.00  0.00     0.029 C 
HETATM    4  C11 UNL     1       6.532  -5.412  15.253  1.00  0.00     0.022 C 
HETATM    5  C12 UNL     1       7.034  -5.465  16.683  1.00  0.00     0.004 C 
HETATM    6  C13 UNL     1       8.008  -6.593  16.821  1.00  0.00     0.027 C 
HETATM    7  C15 UNL     1       5.817  -5.645  17.582  1.00  0.00     0.022 C 
HETATM    8  C16 UNL     1       5.013  -6.854  17.190  1.00  0.00     0.029 C 
BRANCH   2   9
HETATM    9  S1  UNL     1       4.896  -7.977  14.787  1.00  0.00    -0.126 SA
BRANCH   9  10
HETATM   10  C2  UNL     1       5.533  -9.262  15.929  1.00  0.00     0.036 C 
HETATM   11  C1  UNL     1       6.636  -9.867  15.778  1.00  0.00     0.018 C 
ENDBRANCH   9  10
ENDBRANCH   2   9
BRANCH   5  12
HETATM   12  S2  UNL     1       7.771  -3.898  17.176  1.00  0.00    -0.164 SA
HETATM   13  C14 UNL     1       7.133  -3.263  18.715  1.00  0.00     0.090 C 
ENDBRANCH   5  12
ENDBRANCH   1   2
BRANCH   1  14
HETATM   14  N1  UNL     1       2.127  -6.354  16.921  1.00  0.00    -0.398 NA
BRANCH  14  15
HETATM   15  C5  UNL     1       1.628  -5.837  17.878  1.00  0.00     0.221 A 
HETATM   16  N2  UNL     1       1.735  -4.518  18.162  1.00  0.00    -0.336 N 
HETATM   17  C6  UNL     1       1.147  -3.958  19.218  1.00  0.00     0.115 A 
ATOM     18  H2  UNL     1       2.289  -3.928  17.541  1.00  0.00     0.168 HD
HETATM   19  C7  UNL     1       0.375  -4.703  20.106  1.00  0.00     0.022 A 
HETATM   20  C8  UNL     1      -0.244  -4.055  21.277  1.00  0.00     0.069 C 
HETATM   21  N3  UNL     1       0.232  -5.995  19.891  1.00  0.00    -0.341 N 
HETATM   22  C9  UNL     1       0.825  -6.596  18.829  1.00  0.00     0.158 A 
ATOM     23  H3  UNL     1      -0.333  -6.551  20.532  1.00  0.00     0.167 HD
HETATM   24  N4  UNL     1       0.755  -7.891  18.571  1.00  0.00    -0.381 N 
ATOM     25  H42 UNL     1       1.200  -8.343  17.773  1.00  0.00     0.157 HD
ATOM     26  H41 UNL     1       0.193  -8.422  19.236  1.00  0.00     0.157 HD
ENDBRANCH  14  15
ENDBRANCH   1  14
TORSDOF 6
ENDMDL
