MODEL 1
REMARK VINA RESULT: -8.180375300      0.000      0.000
REMARK  11 active torsions:
REMARK  status: ('A' for Active; 'I' for Inactive)
REMARK    1  A    between atoms: C2_2  and  C3_3 
REMARK    2  A    between atoms: C4_4  and  C5_5 
REMARK    3  A    between atoms: C8_8  and  O1_9 
REMARK    4  A    between atoms: C14_16  and  C15_17 
REMARK    5  A    between atoms: C15_17  and  O2_18 
REMARK    6  A    between atoms: C15_17  and  C16_20 
REMARK    7  A    between atoms: C16_20  and  C17_21 
REMARK    8  A    between atoms: C17_21  and  C19_23 
REMARK    9  A    between atoms: C19_23  and  C20_24 
REMARK   10  A    between atoms: C20_24  and  O3_25 
REMARK   11  A    between atoms: C20_24  and  O4_27 
ROOT
HETATM    1  C1  UNL     1       8.202  -6.136  17.947  1.00  0.00     0.048 C 
HETATM    2  C2  UNL     1       6.959  -5.455  17.637  1.00  0.00    -0.059 C 
HETATM    3  C14 UNL     1       6.900  -4.528  16.673  1.00  0.00     0.043 C 
ENDROOT
BRANCH   2   4
HETATM    4  C3  UNL     1       5.692  -5.733  18.347  1.00  0.00     0.007 C 
HETATM    5  C4  UNL     1       4.533  -5.303  18.006  1.00  0.00     0.009 C 
BRANCH   5   6
HETATM    6  C5  UNL     1       3.229  -5.521  18.639  1.00  0.00    -0.046 C 
HETATM    7  C6  UNL     1       2.770  -4.606  19.480  1.00  0.00    -0.048 C 
HETATM    8  C7  UNL     1       3.604  -3.385  19.748  1.00  0.00     0.046 C 
HETATM    9  C8  UNL     1       1.495  -4.663  20.178  1.00  0.00     0.147 C 
HETATM   10  C9  UNL     1       0.496  -5.587  19.536  1.00  0.00     0.037 C 
HETATM   11  C10 UNL     1       1.117  -6.847  19.043  1.00  0.00     0.016 C 
HETATM   12  C11 UNL     1       2.445  -6.719  18.362  1.00  0.00    -0.020 C 
HETATM   13  C12 UNL     1       2.151  -6.797  16.864  1.00  0.00     0.020 C 
HETATM   14  C13 UNL     1       3.288  -7.950  18.743  1.00  0.00     0.020 C 
BRANCH   9  15
HETATM   15  O1  UNL     1       0.926  -3.370  20.133  1.00  0.00    -0.391 OA
ATOM     16  H1  UNL     1      -0.011  -3.465  20.261  1.00  0.00     0.210 HD
ENDBRANCH   9  15
ENDBRANCH   5   6
ENDBRANCH   2   4
BRANCH   3  17
HETATM   17  C15 UNL     1       8.012  -4.117  15.868  1.00  0.00     0.066 C 
BRANCH  17  18
HETATM   18  O2  UNL     1       8.147  -4.734  14.731  1.00  0.00    -0.361 OA
ATOM     19  H2  UNL     1       7.552  -4.464  14.041  1.00  0.00     0.217 HD
ENDBRANCH  17  18
BRANCH  17  20
HETATM   20  C16 UNL     1       9.001  -3.126  16.127  1.00  0.00     0.039 C 
BRANCH  20  21
HETATM   21  C17 UNL     1      10.174  -2.891  15.662  1.00  0.00    -0.076 C 
HETATM   22  C18 UNL     1      10.625  -1.543  15.255  1.00  0.00     0.043 C 
BRANCH  21  23
HETATM   23  C19 UNL     1      11.217  -3.964  15.502  1.00  0.00     0.094 C 
BRANCH  23  24
HETATM   24  C20 UNL     1      12.587  -3.462  15.231  1.00  0.00     0.257 C 
BRANCH  24  25
HETATM   25  O3  UNL     1      13.465  -4.219  16.060  1.00  0.00    -0.371 OA
ATOM     26  H3  UNL     1      14.186  -4.496  15.506  1.00  0.00     0.212 HD
ENDBRANCH  24  25
BRANCH  24  27
HETATM   27  O4  UNL     1      13.015  -3.784  13.927  1.00  0.00    -0.371 OA
ATOM     28  H4  UNL     1      13.505  -3.074  13.530  1.00  0.00     0.212 HD
ENDBRANCH  24  27
ENDBRANCH  23  24
ENDBRANCH  21  23
ENDBRANCH  20  21
ENDBRANCH  17  20
ENDBRANCH   3  17
TORSDOF 11
ENDMDL
MODEL 2
REMARK VINA RESULT: -8.162020352      1.176      1.411
REMARK  11 active torsions:
REMARK  status: ('A' for Active; 'I' for Inactive)
REMARK    1  A    between atoms: C2_2  and  C3_3 
REMARK    2  A    between atoms: C4_4  and  C5_5 
REMARK    3  A    between atoms: C8_8  and  O1_9 
REMARK    4  A    between atoms: C14_16  and  C15_17 
REMARK    5  A    between atoms: C15_17  and  O2_18 
REMARK    6  A    between atoms: C15_17  and  C16_20 
REMARK    7  A    between atoms: C16_20  and  C17_21 
REMARK    8  A    between atoms: C17_21  and  C19_23 
REMARK    9  A    between atoms: C19_23  and  C20_24 
REMARK   10  A    between atoms: C20_24  and  O3_25 
REMARK   11  A    between atoms: C20_24  and  O4_27 
ROOT
HETATM    1  C1  UNL     1       6.967  -3.566  18.631  1.00  0.00     0.048 C 
HETATM    2  C2  UNL     1       6.190  -4.596  17.968  1.00  0.00    -0.059 C 
HETATM    3  C14 UNL     1       6.779  -5.515  17.192  1.00  0.00     0.043 C 
ENDROOT
BRANCH   2   4
HETATM    4  C3  UNL     1       4.721  -4.705  18.100  1.00  0.00     0.007 C 
HETATM    5  C4  UNL     1       4.097  -5.288  19.056  1.00  0.00     0.009 C 
BRANCH   5   6
HETATM    6  C5  UNL     1       2.656  -5.447  19.275  1.00  0.00    -0.046 C 
HETATM    7  C6  UNL     1       2.055  -4.658  20.153  1.00  0.00    -0.048 C 
HETATM    8  C7  UNL     1       2.875  -3.634  20.886  1.00  0.00     0.046 C 
HETATM    9  C8  UNL     1       0.637  -4.677  20.476  1.00  0.00     0.147 C 
HETATM   10  C9  UNL     1      -0.215  -5.319  19.415  1.00  0.00     0.037 C 
HETATM   11  C10 UNL     1       0.418  -6.532  18.828  1.00  0.00     0.016 C 
HETATM   12  C11 UNL     1       1.889  -6.454  18.551  1.00  0.00    -0.020 C 
HETATM   13  C12 UNL     1       2.013  -6.203  17.048  1.00  0.00     0.020 C 
HETATM   14  C13 UNL     1       2.497  -7.836  18.851  1.00  0.00     0.020 C 
BRANCH   9  15
HETATM   15  O1  UNL     1       0.204  -3.335  20.574  1.00  0.00    -0.391 OA
ATOM     16  H1  UNL     1      -0.446  -3.294  21.267  1.00  0.00     0.210 HD
ENDBRANCH   9  15
ENDBRANCH   5   6
ENDBRANCH   2   4
BRANCH   3  17
HETATM   17  C15 UNL     1       8.186  -5.586  16.937  1.00  0.00     0.066 C 
BRANCH  17  18
HETATM   18  O2  UNL     1       8.897  -6.185  17.848  1.00  0.00    -0.361 OA
ATOM     19  H2  UNL     1       8.837  -7.133  17.862  1.00  0.00     0.217 HD
ENDBRANCH  17  18
BRANCH  17  20
HETATM   20  C16 UNL     1       8.932  -5.096  15.828  1.00  0.00     0.039 C 
BRANCH  20  21
HETATM   21  C17 UNL     1       9.919  -4.283  15.703  1.00  0.00    -0.076 C 
HETATM   22  C18 UNL     1       9.797  -2.827  15.930  1.00  0.00     0.043 C 
BRANCH  21  23
HETATM   23  C19 UNL     1      11.305  -4.735  15.330  1.00  0.00     0.094 C 
BRANCH  23  24
HETATM   24  C20 UNL     1      12.306  -3.645  15.226  1.00  0.00     0.257 C 
BRANCH  24  25
HETATM   25  O3  UNL     1      13.399  -4.021  16.059  1.00  0.00    -0.371 OA
ATOM     26  H3  UNL     1      13.937  -3.244  16.165  1.00  0.00     0.212 HD
ENDBRANCH  24  25
BRANCH  24  27
HETATM   27  O4  UNL     1      12.883  -3.583  13.941  1.00  0.00    -0.371 OA
ATOM     28  H4  UNL     1      13.120  -2.695  13.702  1.00  0.00     0.212 HD
ENDBRANCH  24  27
ENDBRANCH  23  24
ENDBRANCH  21  23
ENDBRANCH  20  21
ENDBRANCH  17  20
ENDBRANCH   3  17
TORSDOF 11
ENDMDL
MODEL 3
REMARK VINA RESULT: -8.007069717      1.397      2.390
REMARK  11 active torsions:
REMARK  status: ('A' for Active; 'I' for Inactive)
REMARK    1  A    between atoms: C2_2  and  C3_3 
REMARK    2  A    between atoms: C4_4  and  C5_5 
REMARK    3  A    between atoms: C8_8  and  O1_9 
REMARK    4  A    between atoms: C14_16  and  C15_17 
REMARK    5  A    between atoms: C15_17  and  O2_18 
REMARK    6  A    between atoms: C15_17  and  C16_20 
REMARK    7  A    between atoms: C16_20  and  C17_21 
REMARK    8  A    between atoms: C17_21  and  C19_23 
REMARK    9  A    between atoms: C19_23  and  C20_24 
REMARK   10  A    between atoms: C20_24  and  O3_25 
REMARK   11  A    between atoms: C20_24  and  O4_27 
ROOT
HETATM    1  C1  UNL     1       6.223  -7.569  16.187  1.00  0.00     0.048 C 
HETATM    2  C2  UNL     1       5.841  -6.272  16.715  1.00  0.00    -0.059 C 
HETATM    3  C14 UNL     1       6.514  -5.164  16.381  1.00  0.00     0.043 C 
ENDROOT
BRANCH   2   4
HETATM    4  C3  UNL     1       4.703  -6.085  17.641  1.00  0.00     0.007 C 
HETATM    5  C4  UNL     1       4.002  -5.019  17.758  1.00  0.00     0.009 C 
BRANCH   5   6
HETATM    6  C5  UNL     1       2.864  -4.738  18.639  1.00  0.00    -0.046 C 
HETATM    7  C6  UNL     1       1.653  -5.113  18.252  1.00  0.00    -0.048 C 
HETATM    8  C7  UNL     1       1.499  -5.810  16.929  1.00  0.00     0.046 C 
HETATM    9  C8  UNL     1       0.427  -4.923  19.010  1.00  0.00     0.147 C 
HETATM   10  C9  UNL     1       0.654  -4.704  20.481  1.00  0.00     0.037 C 
HETATM   11  C10 UNL     1       1.826  -3.827  20.755  1.00  0.00     0.016 C 
HETATM   12  C11 UNL     1       3.046  -4.056  19.915  1.00  0.00    -0.020 C 
HETATM   13  C12 UNL     1       4.004  -4.863  20.789  1.00  0.00     0.020 C 
HETATM   14  C13 UNL     1       3.693  -2.685  19.644  1.00  0.00     0.020 C 
BRANCH   9  15
HETATM   15  O1  UNL     1      -0.331  -6.111  18.899  1.00  0.00    -0.391 OA
ATOM     16  H1  UNL     1      -1.031  -5.947  18.277  1.00  0.00     0.210 HD
ENDBRANCH   9  15
ENDBRANCH   5   6
ENDBRANCH   2   4
BRANCH   3  17
HETATM   17  C15 UNL     1       7.642  -5.130  15.500  1.00  0.00     0.066 C 
BRANCH  17  18
HETATM   18  O2  UNL     1       7.366  -5.080  14.228  1.00  0.00    -0.361 OA
ATOM     19  H2  UNL     1       8.057  -5.368  13.644  1.00  0.00     0.217 HD
ENDBRANCH  17  18
BRANCH  17  20
HETATM   20  C16 UNL     1       9.033  -5.142  15.805  1.00  0.00     0.039 C 
BRANCH  20  21
HETATM   21  C17 UNL     1       9.989  -4.300  15.651  1.00  0.00    -0.076 C 
HETATM   22  C18 UNL     1       9.825  -2.846  15.863  1.00  0.00     0.043 C 
BRANCH  21  23
HETATM   23  C19 UNL     1      11.382  -4.712  15.255  1.00  0.00     0.094 C 
BRANCH  23  24
HETATM   24  C20 UNL     1      12.357  -3.597  15.167  1.00  0.00     0.257 C 
BRANCH  24  25
HETATM   25  O3  UNL     1      13.427  -3.928  16.049  1.00  0.00    -0.371 OA
ATOM     26  H3  UNL     1      13.031  -4.136  16.887  1.00  0.00     0.212 HD
ENDBRANCH  24  25
BRANCH  24  27
HETATM   27  O4  UNL     1      12.981  -3.545  13.904  1.00  0.00    -0.371 OA
ATOM     28  H4  UNL     1      12.434  -3.920  13.224  1.00  0.00     0.212 HD
ENDBRANCH  24  27
ENDBRANCH  23  24
ENDBRANCH  21  23
ENDBRANCH  20  21
ENDBRANCH  17  20
ENDBRANCH   3  17
TORSDOF 11
ENDMDL
MODEL 4
REMARK VINA RESULT: -7.977969181      1.570      2.552
REMARK  11 active torsions:
REMARK  status: ('A' for Active; 'I' for Inactive)
REMARK    1  A    between atoms: C2_2  and  C3_3 
REMARK    2  A    between atoms: C4_4  and  C5_5 
REMARK    3  A    between atoms: C8_8  and  O1_9 
REMARK    4  A    between atoms: C14_16  and  C15_17 
REMARK    5  A    between atoms: C15_17  and  O2_18 
REMARK    6  A    between atoms: C15_17  and  C16_20 
REMARK    7  A    between atoms: C16_20  and  C17_21 
REMARK    8  A    between atoms: C17_21  and  C19_23 
REMARK    9  A    between atoms: C19_23  and  C20_24 
REMARK   10  A    between atoms: C20_24  and  O3_25 
REMARK   11  A    between atoms: C20_24  and  O4_27 
ROOT
HETATM    1  C1  UNL     1       7.342  -3.290  18.832  1.00  0.00     0.048 C 
HETATM    2  C2  UNL     1       6.542  -4.441  18.456  1.00  0.00    -0.059 C 
HETATM    3  C14 UNL     1       7.018  -5.370  17.618  1.00  0.00     0.043 C 
ENDROOT
BRANCH   2   4
HETATM    4  C3  UNL     1       5.171  -4.666  18.962  1.00  0.00     0.007 C 
HETATM    5  C4  UNL     1       4.139  -4.912  18.242  1.00  0.00     0.009 C 
BRANCH   5   6
HETATM    6  C5  UNL     1       2.750  -5.148  18.646  1.00  0.00    -0.046 C 
HETATM    7  C6  UNL     1       2.174  -6.292  18.307  1.00  0.00    -0.048 C 
HETATM    8  C7  UNL     1       2.970  -7.298  17.523  1.00  0.00     0.046 C 
HETATM    9  C8  UNL     1       0.814  -6.687  18.639  1.00  0.00     0.147 C 
HETATM   10  C9  UNL     1       0.235  -5.931  19.804  1.00  0.00     0.037 C 
HETATM   11  C10 UNL     1       0.594  -4.487  19.786  1.00  0.00     0.016 C 
HETATM   12  C11 UNL     1       2.002  -4.150  19.403  1.00  0.00    -0.020 C 
HETATM   13  C12 UNL     1       2.729  -3.860  20.716  1.00  0.00     0.020 C 
HETATM   14  C13 UNL     1       1.968  -2.847  18.584  1.00  0.00     0.020 C 
BRANCH   9  15
HETATM   15  O1  UNL     1       0.846  -8.046  19.024  1.00  0.00    -0.391 OA
ATOM     16  H1  UNL     1       0.287  -8.141  19.786  1.00  0.00     0.210 HD
ENDBRANCH   9  15
ENDBRANCH   5   6
ENDBRANCH   2   4
BRANCH   3  17
HETATM   17  C15 UNL     1       8.320  -5.339  17.021  1.00  0.00     0.066 C 
BRANCH  17  18
HETATM   18  O2  UNL     1       9.207  -6.129  17.553  1.00  0.00    -0.361 OA
ATOM     19  H2  UNL     1       9.500  -6.849  17.007  1.00  0.00     0.217 HD
ENDBRANCH  17  18
BRANCH  17  20
HETATM   20  C16 UNL     1       8.795  -4.567  15.923  1.00  0.00     0.039 C 
BRANCH  20  21
HETATM   21  C17 UNL     1       9.863  -3.891  15.702  1.00  0.00    -0.076 C 
HETATM   22  C18 UNL     1       9.917  -2.415  15.795  1.00  0.00     0.043 C 
BRANCH  21  23
HETATM   23  C19 UNL     1      11.176  -4.533  15.341  1.00  0.00     0.094 C 
BRANCH  23  24
HETATM   24  C20 UNL     1      12.317  -3.592  15.229  1.00  0.00     0.257 C 
BRANCH  24  25
HETATM   25  O3  UNL     1      13.368  -4.136  16.024  1.00  0.00    -0.371 OA
ATOM     26  H3  UNL     1      12.951  -4.627  16.723  1.00  0.00     0.212 HD
ENDBRANCH  24  25
BRANCH  24  27
HETATM   27  O4  UNL     1      12.864  -3.583  13.930  1.00  0.00    -0.371 OA
ATOM     28  H4  UNL     1      12.872  -4.452  13.544  1.00  0.00     0.212 HD
ENDBRANCH  24  27
ENDBRANCH  23  24
ENDBRANCH  21  23
ENDBRANCH  20  21
ENDBRANCH  17  20
ENDBRANCH   3  17
TORSDOF 11
ENDMDL
MODEL 5
REMARK VINA RESULT: -7.655567484      3.016      9.265
REMARK  11 active torsions:
REMARK  status: ('A' for Active; 'I' for Inactive)
REMARK    1  A    between atoms: C2_2  and  C3_3 
REMARK    2  A    between atoms: C4_4  and  C5_5 
REMARK    3  A    between atoms: C8_8  and  O1_9 
REMARK    4  A    between atoms: C14_16  and  C15_17 
REMARK    5  A    between atoms: C15_17  and  O2_18 
REMARK    6  A    between atoms: C15_17  and  C16_20 
REMARK    7  A    between atoms: C16_20  and  C17_21 
REMARK    8  A    between atoms: C17_21  and  C19_23 
REMARK    9  A    between atoms: C19_23  and  C20_24 
REMARK   10  A    between atoms: C20_24  and  O3_25 
REMARK   11  A    between atoms: C20_24  and  O4_27 
ROOT
HETATM    1  C1  UNL     1       3.569  -4.074  20.697  1.00  0.00     0.048 C 
HETATM    2  C2  UNL     1       3.741  -4.455  19.307  1.00  0.00    -0.059 C 
HETATM    3  C14 UNL     1       2.757  -4.283  18.415  1.00  0.00     0.043 C 
ENDROOT
BRANCH   2   4
HETATM    4  C3  UNL     1       4.992  -5.046  18.785  1.00  0.00     0.007 C 
HETATM    5  C4  UNL     1       5.340  -5.094  17.552  1.00  0.00     0.009 C 
BRANCH   5   6
HETATM    6  C5  UNL     1       6.548  -5.654  16.940  1.00  0.00    -0.046 C 
HETATM    7  C6  UNL     1       6.429  -6.703  16.140  1.00  0.00    -0.048 C 
HETATM    8  C7  UNL     1       5.060  -7.274  15.894  1.00  0.00     0.046 C 
HETATM    9  C8  UNL     1       7.521  -7.367  15.447  1.00  0.00     0.147 C 
HETATM   10  C9  UNL     1       8.751  -6.512  15.299  1.00  0.00     0.037 C 
HETATM   11  C10 UNL     1       9.039  -5.709  16.519  1.00  0.00     0.016 C 
HETATM   12  C11 UNL     1       7.864  -5.080  17.202  1.00  0.00    -0.020 C 
HETATM   13  C12 UNL     1       7.872  -3.614  16.772  1.00  0.00     0.020 C 
HETATM   14  C13 UNL     1       8.121  -5.129  18.720  1.00  0.00     0.020 C 
BRANCH   9  15
HETATM   15  O1  UNL     1       7.081  -7.657  14.136  1.00  0.00    -0.391 OA
ATOM     16  H1  UNL     1       7.123  -8.600  14.021  1.00  0.00     0.210 HD
ENDBRANCH   9  15
ENDBRANCH   5   6
ENDBRANCH   2   4
BRANCH   3  17
HETATM   17  C15 UNL     1       1.472  -3.726  18.717  1.00  0.00     0.066 C 
BRANCH  17  18
HETATM   18  O2  UNL     1       1.370  -2.435  18.588  1.00  0.00    -0.361 OA
ATOM     19  H2  UNL     1       0.488  -2.084  18.628  1.00  0.00     0.217 HD
ENDBRANCH  17  18
BRANCH  17  20
HETATM   20  C16 UNL     1       0.279  -4.377  19.141  1.00  0.00     0.039 C 
BRANCH  20  21
HETATM   21  C17 UNL     1      -0.148  -4.815  20.269  1.00  0.00    -0.076 C 
HETATM   22  C18 UNL     1      -0.553  -6.221  20.487  1.00  0.00     0.043 C 
BRANCH  21  23
HETATM   23  C19 UNL     1      -0.264  -3.944  21.491  1.00  0.00     0.094 C 
BRANCH  23  24
HETATM   24  C20 UNL     1      -1.650  -3.736  21.976  1.00  0.00     0.257 C 
BRANCH  24  25
HETATM   25  O3  UNL     1      -1.563  -2.818  23.063  1.00  0.00    -0.371 OA
ATOM     26  H3  UNL     1      -2.305  -3.001  23.629  1.00  0.00     0.212 HD
ENDBRANCH  24  25
BRANCH  24  27
HETATM   27  O4  UNL     1      -2.438  -3.046  21.032  1.00  0.00    -0.371 OA
ATOM     28  H4  UNL     1      -2.765  -3.626  20.354  1.00  0.00     0.212 HD
ENDBRANCH  24  27
ENDBRANCH  23  24
ENDBRANCH  21  23
ENDBRANCH  20  21
ENDBRANCH  17  20
ENDBRANCH   3  17
TORSDOF 11
ENDMDL
