MODEL 1
REMARK VINA RESULT: -6.845528629      0.000      0.000
REMARK  8 active torsions:
REMARK  status: ('A' for Active; 'I' for Inactive)
REMARK    1  A    between atoms: C2_2  and  N1_4 
REMARK    2  A    between atoms: N1_4  and  C4_6 
REMARK    3  A    between atoms: C4_6  and  N2_7 
REMARK    4  A    between atoms: C4_6  and  C10_16 
REMARK    5  A    between atoms: N2_7  and  C5_9 
REMARK    6  A    between atoms: C5_9  and  O1_10 
REMARK    7  A    between atoms: C5_9  and  C6_12 
REMARK    8  A    between atoms: C12_18  and  C13_19 
ROOT
HETATM    1  C10 UNL     1       4.765  -4.930  18.239  1.00  0.00     0.012 A 
HETATM    2  C11 UNL     1       5.670  -5.343  17.321  1.00  0.00     0.028 A 
HETATM    3  C12 UNL     1       6.874  -4.699  17.305  1.00  0.00    -0.008 A 
HETATM    4  S1  UNL     1       6.722  -3.548  18.551  1.00  0.00    -0.082 SA
HETATM    5  C17 UNL     1       5.114  -3.922  19.065  1.00  0.00     0.095 A 
HETATM    6  C18 UNL     1       4.415  -3.278  20.146  1.00  0.00     0.107 C 
HETATM    7  N3  UNL     1       3.838  -2.772  21.028  1.00  0.00    -0.191 NA
ENDROOT
BRANCH   1   8
HETATM    8  C4  UNL     1       3.380  -5.587  18.275  1.00  0.00     0.211 C 
BRANCH   8   9
HETATM    9  N1  UNL     1       3.504  -6.571  17.211  1.00  0.00    -0.395 N 
ATOM     10  H1  UNL     1       3.871  -6.329  16.291  1.00  0.00     0.155 HD
BRANCH   9  11
HETATM   11  C2  UNL     1       3.090  -7.867  17.524  1.00  0.00     0.070 C 
HETATM   12  C1  UNL     1       3.067  -8.011  19.033  1.00  0.00     0.031 C 
HETATM   13  C3  UNL     1       3.911  -8.974  16.942  1.00  0.00     0.031 C 
ENDBRANCH   9  11
ENDBRANCH   8   9
BRANCH   8  14
HETATM   14  N2  UNL     1       2.399  -4.668  17.792  1.00  0.00    -0.372 N 
ATOM     15  H2  UNL     1       2.488  -4.325  16.835  1.00  0.00     0.158 HD
BRANCH  14  16
HETATM   16  C5  UNL     1       1.333  -4.218  18.554  1.00  0.00     0.219 C 
BRANCH  16  17
HETATM   17  O1  UNL     1       1.379  -2.846  18.863  1.00  0.00    -0.377 OA
ATOM     18  H1  UNL     1       0.718  -2.323  18.424  1.00  0.00     0.212 HD
ENDBRANCH  16  17
BRANCH  16  19
HETATM   19  C6  UNL     1       0.973  -5.004  19.789  1.00  0.00     0.034 C 
HETATM   20  C7  UNL     1      -0.125  -6.059  19.494  1.00  0.00     0.009 C 
HETATM   21  C8  UNL     1      -0.694  -5.751  20.870  1.00  0.00     0.001 C 
HETATM   22  C9  UNL     1      -0.046  -4.379  20.719  1.00  0.00     0.009 C 
ENDBRANCH  16  19
ENDBRANCH  14  16
ENDBRANCH   8  14
ENDBRANCH   1   8
BRANCH   3  23
HETATM   23  C13 UNL     1       8.051  -4.956  16.395  1.00  0.00    -0.018 C 
HETATM   24  C14 UNL     1       8.895  -5.987  17.153  1.00  0.00     0.020 C 
HETATM   25  C15 UNL     1       8.873  -3.725  16.171  1.00  0.00     0.020 C 
HETATM   26  C16 UNL     1       7.505  -5.507  15.118  1.00  0.00     0.020 C 
ENDBRANCH   3  23
TORSDOF 8
ENDMDL
MODEL 2
REMARK VINA RESULT: -6.720989377      0.868      1.129
REMARK  8 active torsions:
REMARK  status: ('A' for Active; 'I' for Inactive)
REMARK    1  A    between atoms: C2_2  and  N1_4 
REMARK    2  A    between atoms: N1_4  and  C4_6 
REMARK    3  A    between atoms: C4_6  and  N2_7 
REMARK    4  A    between atoms: C4_6  and  C10_16 
REMARK    5  A    between atoms: N2_7  and  C5_9 
REMARK    6  A    between atoms: C5_9  and  O1_10 
REMARK    7  A    between atoms: C5_9  and  C6_12 
REMARK    8  A    between atoms: C12_18  and  C13_19 
ROOT
HETATM    1  C10 UNL     1       4.462  -5.325  18.412  1.00  0.00     0.012 A 
HETATM    2  C11 UNL     1       5.296  -5.973  17.564  1.00  0.00     0.028 A 
HETATM    3  C12 UNL     1       6.567  -5.486  17.454  1.00  0.00    -0.008 A 
HETATM    4  S1  UNL     1       6.575  -4.157  18.519  1.00  0.00    -0.082 SA
HETATM    5  C17 UNL     1       4.943  -4.257  19.082  1.00  0.00     0.095 A 
HETATM    6  C18 UNL     1       4.345  -3.384  20.058  1.00  0.00     0.107 C 
HETATM    7  N3  UNL     1       3.848  -2.690  20.856  1.00  0.00    -0.191 NA
ENDROOT
BRANCH   1   8
HETATM    8  C4  UNL     1       3.010  -5.798  18.544  1.00  0.00     0.211 C 
BRANCH   8   9
HETATM    9  N1  UNL     1       2.966  -6.861  17.551  1.00  0.00    -0.395 N 
ATOM     10  H1  UNL     1       3.276  -6.716  16.591  1.00  0.00     0.155 HD
BRANCH   9  11
HETATM   11  C2  UNL     1       2.473  -8.091  17.992  1.00  0.00     0.070 C 
HETATM   12  C1  UNL     1       3.142  -9.189  17.189  1.00  0.00     0.031 C 
HETATM   13  C3  UNL     1       0.989  -8.266  17.915  1.00  0.00     0.031 C 
ENDBRANCH   9  11
ENDBRANCH   8   9
BRANCH   8  14
HETATM   14  N2  UNL     1       2.130  -4.800  18.029  1.00  0.00    -0.372 N 
ATOM     15  H2  UNL     1       2.243  -4.510  17.058  1.00  0.00     0.158 HD
BRANCH  14  16
HETATM   16  C5  UNL     1       1.128  -4.202  18.779  1.00  0.00     0.219 C 
BRANCH  16  17
HETATM   17  O1  UNL     1       1.284  -2.816  18.955  1.00  0.00    -0.377 OA
ATOM     18  H1  UNL     1       0.562  -2.394  19.406  1.00  0.00     0.212 HD
ENDBRANCH  16  17
BRANCH  16  19
HETATM   19  C6  UNL     1       0.762  -4.842  20.094  1.00  0.00     0.034 C 
HETATM   20  C7  UNL     1      -0.529  -5.694  19.974  1.00  0.00     0.009 C 
HETATM   21  C8  UNL     1      -0.893  -5.215  21.370  1.00  0.00     0.001 C 
HETATM   22  C9  UNL     1      -0.032  -3.994  21.065  1.00  0.00     0.009 C 
ENDBRANCH  16  19
ENDBRANCH  14  16
ENDBRANCH   8  14
ENDBRANCH   1   8
BRANCH   3  23
HETATM   23  C13 UNL     1       7.688  -6.013  16.592  1.00  0.00    -0.018 C 
HETATM   24  C14 UNL     1       8.898  -6.061  17.532  1.00  0.00     0.020 C 
HETATM   25  C15 UNL     1       8.000  -5.098  15.448  1.00  0.00     0.020 C 
HETATM   26  C16 UNL     1       7.283  -7.373  16.127  1.00  0.00     0.020 C 
ENDBRANCH   3  23
TORSDOF 8
ENDMDL
MODEL 3
REMARK VINA RESULT: -6.708443392      2.983      6.505
REMARK  8 active torsions:
REMARK  status: ('A' for Active; 'I' for Inactive)
REMARK    1  A    between atoms: C2_2  and  N1_4 
REMARK    2  A    between atoms: N1_4  and  C4_6 
REMARK    3  A    between atoms: C4_6  and  N2_7 
REMARK    4  A    between atoms: C4_6  and  C10_16 
REMARK    5  A    between atoms: N2_7  and  C5_9 
REMARK    6  A    between atoms: C5_9  and  O1_10 
REMARK    7  A    between atoms: C5_9  and  C6_12 
REMARK    8  A    between atoms: C12_18  and  C13_19 
ROOT
HETATM    1  C10 UNL     1       4.518  -6.166  17.387  1.00  0.00     0.012 A 
HETATM    2  C11 UNL     1       4.084  -5.064  18.044  1.00  0.00     0.028 A 
HETATM    3  C12 UNL     1       3.006  -5.219  18.867  1.00  0.00    -0.008 A 
HETATM    4  S1  UNL     1       2.624  -6.871  18.714  1.00  0.00    -0.082 SA
HETATM    5  C17 UNL     1       3.861  -7.327  17.593  1.00  0.00     0.095 A 
HETATM    6  C18 UNL     1       4.075  -8.657  17.088  1.00  0.00     0.107 C 
HETATM    7  N3  UNL     1       4.269  -9.733  16.676  1.00  0.00    -0.191 NA
ENDROOT
BRANCH   1   8
HETATM    8  C4  UNL     1       5.696  -6.045  16.415  1.00  0.00     0.211 C 
BRANCH   8   9
HETATM    9  N1  UNL     1       6.400  -4.896  16.962  1.00  0.00    -0.395 N 
ATOM     10  H1  UNL     1       5.977  -3.969  16.996  1.00  0.00     0.155 HD
BRANCH   9  11
HETATM   11  C2  UNL     1       7.690  -5.138  17.439  1.00  0.00     0.070 C 
HETATM   12  C1  UNL     1       8.097  -6.539  17.028  1.00  0.00     0.031 C 
HETATM   13  C3  UNL     1       7.879  -4.990  18.917  1.00  0.00     0.031 C 
ENDBRANCH   9  11
ENDBRANCH   8   9
BRANCH   8  14
HETATM   14  N2  UNL     1       5.227  -5.597  15.143  1.00  0.00    -0.372 N 
ATOM     15  H2  UNL     1       4.654  -4.753  15.110  1.00  0.00     0.158 HD
BRANCH  14  16
HETATM   16  C5  UNL     1       5.508  -6.247  13.951  1.00  0.00     0.219 C 
BRANCH  16  17
HETATM   17  O1  UNL     1       5.063  -5.568  12.802  1.00  0.00    -0.377 OA
ATOM     18  H1  UNL     1       4.142  -5.691  12.607  1.00  0.00     0.212 HD
ENDBRANCH  16  17
BRANCH  16  19
HETATM   19  C6  UNL     1       5.151  -7.707  13.849  1.00  0.00     0.034 C 
HETATM   20  C7  UNL     1       5.837  -8.378  12.630  1.00  0.00     0.009 C 
HETATM   21  C8  UNL     1       4.565  -9.193  12.450  1.00  0.00     0.001 C 
HETATM   22  C9  UNL     1       3.851  -8.041  13.149  1.00  0.00     0.009 C 
ENDBRANCH  16  19
ENDBRANCH  14  16
ENDBRANCH   8  14
ENDBRANCH   1   8
BRANCH   3  23
HETATM   23  C13 UNL     1       2.326  -4.166  19.709  1.00  0.00    -0.018 C 
HETATM   24  C14 UNL     1       2.071  -3.010  18.735  1.00  0.00     0.020 C 
HETATM   25  C15 UNL     1       3.201  -3.679  20.822  1.00  0.00     0.020 C 
HETATM   26  C16 UNL     1       1.054  -4.765  20.216  1.00  0.00     0.020 C 
ENDBRANCH   3  23
TORSDOF 8
ENDMDL
MODEL 4
REMARK VINA RESULT: -6.666659511      2.550      5.499
REMARK  8 active torsions:
REMARK  status: ('A' for Active; 'I' for Inactive)
REMARK    1  A    between atoms: C2_2  and  N1_4 
REMARK    2  A    between atoms: N1_4  and  C4_6 
REMARK    3  A    between atoms: C4_6  and  N2_7 
REMARK    4  A    between atoms: C4_6  and  C10_16 
REMARK    5  A    between atoms: N2_7  and  C5_9 
REMARK    6  A    between atoms: C5_9  and  O1_10 
REMARK    7  A    between atoms: C5_9  and  C6_12 
REMARK    8  A    between atoms: C12_18  and  C13_19 
ROOT
HETATM    1  C10 UNL     1       4.676  -5.579  16.856  1.00  0.00     0.012 A 
HETATM    2  C11 UNL     1       3.615  -5.770  17.675  1.00  0.00     0.028 A 
HETATM    3  C12 UNL     1       2.469  -6.243  17.103  1.00  0.00    -0.008 A 
HETATM    4  S1  UNL     1       2.887  -6.411  15.461  1.00  0.00    -0.082 SA
HETATM    5  C17 UNL     1       4.527  -5.868  15.546  1.00  0.00     0.095 A 
HETATM    6  C18 UNL     1       5.442  -5.808  14.436  1.00  0.00     0.107 C 
HETATM    7  N3  UNL     1       6.200  -5.763  13.549  1.00  0.00    -0.191 NA
ENDROOT
BRANCH   1   8
HETATM    8  C4  UNL     1       5.976  -5.006  17.433  1.00  0.00     0.211 C 
BRANCH   8   9
HETATM    9  N1  UNL     1       6.760  -6.217  17.623  1.00  0.00    -0.395 N 
ATOM     10  H1  UNL     1       6.336  -7.093  17.927  1.00  0.00     0.155 HD
BRANCH   9  11
HETATM   11  C2  UNL     1       8.128  -6.108  17.365  1.00  0.00     0.070 C 
HETATM   12  C1  UNL     1       8.851  -5.922  18.684  1.00  0.00     0.031 C 
HETATM   13  C3  UNL     1       8.532  -5.011  16.430  1.00  0.00     0.031 C 
ENDBRANCH   9  11
ENDBRANCH   8   9
BRANCH   8  14
HETATM   14  N2  UNL     1       5.745  -4.525  18.756  1.00  0.00    -0.372 N 
ATOM     15  H2  UNL     1       5.743  -5.199  19.522  1.00  0.00     0.158 HD
BRANCH  14  16
HETATM   16  C5  UNL     1       5.522  -3.190  19.057  1.00  0.00     0.219 C 
BRANCH  16  17
HETATM   17  O1  UNL     1       6.686  -2.463  19.365  1.00  0.00    -0.377 OA
ATOM     18  H1  UNL     1       7.160  -2.144  18.606  1.00  0.00     0.212 HD
ENDBRANCH  16  17
BRANCH  16  19
HETATM   19  C6  UNL     1       4.443  -2.869  20.059  1.00  0.00     0.034 C 
HETATM   20  C7  UNL     1       4.037  -4.121  20.882  1.00  0.00     0.009 C 
HETATM   21  C8  UNL     1       2.608  -3.602  20.836  1.00  0.00     0.001 C 
HETATM   22  C9  UNL     1       3.017  -2.888  19.552  1.00  0.00     0.009 C 
ENDBRANCH  16  19
ENDBRANCH  14  16
ENDBRANCH   8  14
ENDBRANCH   1   8
BRANCH   3  23
HETATM   23  C13 UNL     1       1.153  -6.544  17.779  1.00  0.00    -0.018 C 
HETATM   24  C14 UNL     1       1.530  -6.798  19.243  1.00  0.00     0.020 C 
HETATM   25  C15 UNL     1       0.501  -7.773  17.226  1.00  0.00     0.020 C 
HETATM   26  C16 UNL     1       0.293  -5.333  17.622  1.00  0.00     0.020 C 
ENDBRANCH   3  23
TORSDOF 8
ENDMDL
MODEL 5
REMARK VINA RESULT: -6.603116407      2.900      6.562
REMARK  8 active torsions:
REMARK  status: ('A' for Active; 'I' for Inactive)
REMARK    1  A    between atoms: C2_2  and  N1_4 
REMARK    2  A    between atoms: N1_4  and  C4_6 
REMARK    3  A    between atoms: C4_6  and  N2_7 
REMARK    4  A    between atoms: C4_6  and  C10_16 
REMARK    5  A    between atoms: N2_7  and  C5_9 
REMARK    6  A    between atoms: C5_9  and  O1_10 
REMARK    7  A    between atoms: C5_9  and  C6_12 
REMARK    8  A    between atoms: C12_18  and  C13_19 
ROOT
HETATM    1  C10 UNL     1       4.612  -6.174  17.393  1.00  0.00     0.012 A 
HETATM    2  C11 UNL     1       4.192  -5.046  18.012  1.00  0.00     0.028 A 
HETATM    3  C12 UNL     1       3.055  -5.138  18.762  1.00  0.00    -0.008 A 
HETATM    4  S1  UNL     1       2.601  -6.770  18.592  1.00  0.00    -0.082 SA
HETATM    5  C17 UNL     1       3.884  -7.298  17.560  1.00  0.00     0.095 A 
HETATM    6  C18 UNL     1       4.064  -8.642  17.078  1.00  0.00     0.107 C 
HETATM    7  N3  UNL     1       4.230  -9.730  16.686  1.00  0.00    -0.191 NA
ENDROOT
BRANCH   1   8
HETATM    8  C4  UNL     1       5.858  -6.121  16.501  1.00  0.00     0.211 C 
BRANCH   8   9
HETATM    9  N1  UNL     1       6.661  -5.125  17.192  1.00  0.00    -0.395 N 
ATOM     10  H1  UNL     1       6.503  -4.888  18.171  1.00  0.00     0.155 HD
BRANCH   9  11
HETATM   11  C2  UNL     1       7.662  -4.513  16.436  1.00  0.00     0.070 C 
HETATM   12  C1  UNL     1       8.884  -5.411  16.442  1.00  0.00     0.031 C 
HETATM   13  C3  UNL     1       8.065  -3.140  16.875  1.00  0.00     0.031 C 
ENDBRANCH   9  11
ENDBRANCH   8   9
BRANCH   8  14
HETATM   14  N2  UNL     1       5.532  -5.507  15.254  1.00  0.00    -0.372 N 
ATOM     15  H2  UNL     1       5.198  -4.543  15.263  1.00  0.00     0.158 HD
BRANCH  14  16
HETATM   16  C5  UNL     1       5.645  -6.151  14.032  1.00  0.00     0.219 C 
BRANCH  16  17
HETATM   17  O1  UNL     1       5.076  -5.450  12.953  1.00  0.00    -0.377 OA
ATOM     18  H1  UNL     1       5.235  -5.842  12.103  1.00  0.00     0.212 HD
ENDBRANCH  16  17
BRANCH  16  19
HETATM   19  C6  UNL     1       5.240  -7.601  13.964  1.00  0.00     0.034 C 
HETATM   20  C7  UNL     1       5.768  -8.281  12.673  1.00  0.00     0.009 C 
HETATM   21  C8  UNL     1       4.464  -9.061  12.633  1.00  0.00     0.001 C 
HETATM   22  C9  UNL     1       3.862  -7.897  13.413  1.00  0.00     0.009 C 
ENDBRANCH  16  19
ENDBRANCH  14  16
ENDBRANCH   8  14
ENDBRANCH   1   8
BRANCH   3  23
HETATM   23  C13 UNL     1       2.375  -4.045  19.550  1.00  0.00    -0.018 C 
HETATM   24  C14 UNL     1       1.142  -4.727  20.154  1.00  0.00     0.020 C 
HETATM   25  C15 UNL     1       1.924  -2.914  18.678  1.00  0.00     0.020 C 
HETATM   26  C16 UNL     1       3.339  -3.595  20.599  1.00  0.00     0.020 C 
ENDBRANCH   3  23
TORSDOF 8
ENDMDL
