MODEL 1
REMARK VINA RESULT: -8.345271404      0.000      0.000
REMARK  6 active torsions:
REMARK  status: ('A' for Active; 'I' for Inactive)
REMARK    1  A    between atoms: C2_2  and  C3_3 
REMARK    2  A    between atoms: C3_3  and  C4_4 
REMARK    3  A    between atoms: C4_4  and  S1_6 
REMARK    4  A    between atoms: C4_4  and  C8_20 
REMARK    5  A    between atoms: S1_6  and  C6_7 
REMARK    6  A    between atoms: C7_16  and  N5_17 
ROOT
HETATM    1  C4  UNL     1       4.885  -6.163  17.363  1.00  0.00     0.019 C 
HETATM    2  C5  UNL     1       5.199  -7.623  17.428  1.00  0.00     0.028 C 
ENDROOT
BRANCH   1   3
HETATM    3  C3  UNL     1       6.174  -5.417  17.437  1.00  0.00     0.021 C 
BRANCH   3   4
HETATM    4  C2  UNL     1       7.461  -6.112  17.187  1.00  0.00    -0.003 C 
HETATM    5  C1  UNL     1       8.550  -6.040  18.202  1.00  0.00     0.005 C 
ENDBRANCH   3   4
ENDBRANCH   1   3
BRANCH   1   6
HETATM    6  S1  UNL     1       4.170  -5.644  15.747  1.00  0.00    -0.097 SA
BRANCH   6   7
HETATM    7  C6  UNL     1       4.033  -6.416  14.383  1.00  0.00     0.132 A 
HETATM    8  N1  UNL     1       2.990  -7.122  13.986  1.00  0.00    -0.275 N 
HETATM    9  N2  UNL     1       2.920  -7.766  12.839  1.00  0.00    -0.227 N 
ATOM     10  H1  UNL     1       2.185  -7.172  14.609  1.00  0.00     0.189 HD
HETATM   11  N3  UNL     1       3.917  -7.746  11.984  1.00  0.00    -0.227 N 
ATOM     12  H2  UNL     1       2.075  -8.290  12.611  1.00  0.00     0.210 HD
HETATM   13  N4  UNL     1       4.983  -7.055  12.331  1.00  0.00    -0.268 N 
ATOM     14  H3  UNL     1       3.868  -8.241  11.093  1.00  0.00     0.210 HD
HETATM   15  C7  UNL     1       5.104  -6.388  13.476  1.00  0.00     0.150 A 
ATOM     16  H4  UNL     1       5.767  -7.029  11.680  1.00  0.00     0.190 HD
BRANCH  15  17
HETATM   17  N5  UNL     1       6.186  -5.741  13.724  1.00  0.00    -0.382 N 
ATOM     18  H52 UNL     1       6.595  -5.778  14.659  1.00  0.00     0.157 HD
ATOM     19  H51 UNL     1       6.655  -5.183  13.010  1.00  0.00     0.157 HD
ENDBRANCH  15  17
ENDBRANCH   6   7
ENDBRANCH   1   6
BRANCH   1  20
HETATM   20  C8  UNL     1       3.870  -5.728  18.389  1.00  0.00    -0.020 C 
HETATM   21  C9  UNL     1       4.708  -4.832  19.318  1.00  0.00     0.011 C 
HETATM   22  C10 UNL     1       4.024  -4.410  20.587  1.00  0.00     0.001 C 
HETATM   23  C11 UNL     1       2.846  -3.616  20.170  1.00  0.00     0.000 C 
HETATM   24  C12 UNL     1       2.052  -4.227  19.129  1.00  0.00     0.005 C 
HETATM   25  C13 UNL     1       2.726  -4.903  17.957  1.00  0.00    -0.004 C 
HETATM   26  C14 UNL     1       1.554  -5.635  17.322  1.00  0.00     0.005 C 
HETATM   27  C15 UNL     1       1.104  -6.821  18.105  1.00  0.00     0.000 C 
HETATM   28  C16 UNL     1       2.148  -7.580  18.835  1.00  0.00     0.001 C 
HETATM   29  C17 UNL     1       3.344  -6.804  19.275  1.00  0.00     0.011 C 
ENDBRANCH   1  20
TORSDOF 6
ENDMDL
MODEL 2
REMARK VINA RESULT: -8.207109605      1.997      3.907
REMARK  6 active torsions:
REMARK  status: ('A' for Active; 'I' for Inactive)
REMARK    1  A    between atoms: C2_2  and  C3_3 
REMARK    2  A    between atoms: C3_3  and  C4_4 
REMARK    3  A    between atoms: C4_4  and  S1_6 
REMARK    4  A    between atoms: C4_4  and  C8_20 
REMARK    5  A    between atoms: S1_6  and  C6_7 
REMARK    6  A    between atoms: C7_16  and  N5_17 
ROOT
HETATM    1  C4  UNL     1       7.734  -6.137  16.529  1.00  0.00     0.019 C 
HETATM    2  C5  UNL     1       7.696  -7.566  16.968  1.00  0.00     0.028 C 
ENDROOT
BRANCH   1   3
HETATM    3  C3  UNL     1       9.143  -5.664  16.641  1.00  0.00     0.021 C 
BRANCH   3   4
HETATM    4  C2  UNL     1       9.834  -5.075  15.467  1.00  0.00    -0.003 C 
HETATM    5  C1  UNL     1      10.563  -3.783  15.610  1.00  0.00     0.005 C 
ENDBRANCH   3   4
ENDBRANCH   1   3
BRANCH   1   6
HETATM    6  S1  UNL     1       7.337  -5.914  14.745  1.00  0.00    -0.097 SA
BRANCH   6   7
HETATM    7  C6  UNL     1       6.548  -6.833  13.739  1.00  0.00     0.132 A 
HETATM    8  N1  UNL     1       6.931  -8.016  13.296  1.00  0.00    -0.275 N 
HETATM    9  N2  UNL     1       6.247  -8.750  12.442  1.00  0.00    -0.227 N 
ATOM     10  H1  UNL     1       7.817  -8.389  13.639  1.00  0.00     0.189 HD
HETATM   11  N3  UNL     1       5.097  -8.337  11.959  1.00  0.00    -0.227 N 
ATOM     12  H2  UNL     1       6.617  -9.654  12.151  1.00  0.00     0.210 HD
HETATM   13  N4  UNL     1       4.669  -7.161  12.368  1.00  0.00    -0.268 N 
ATOM     14  H3  UNL     1       4.561  -8.900  11.298  1.00  0.00     0.210 HD
HETATM   15  C7  UNL     1       5.320  -6.383  13.228  1.00  0.00     0.150 A 
ATOM     16  H4  UNL     1       3.778  -6.824  12.002  1.00  0.00     0.190 HD
BRANCH  15  17
HETATM   17  N5  UNL     1       4.819  -5.250  13.568  1.00  0.00    -0.382 N 
ATOM     18  H52 UNL     1       5.191  -4.390  13.165  1.00  0.00     0.157 HD
ATOM     19  H51 UNL     1       4.052  -5.180  14.238  1.00  0.00     0.157 HD
ENDBRANCH  15  17
ENDBRANCH   6   7
ENDBRANCH   1   6
BRANCH   1  20
HETATM   20  C8  UNL     1       6.739  -5.268  17.255  1.00  0.00    -0.020 C 
HETATM   21  C9  UNL     1       5.413  -6.004  16.996  1.00  0.00     0.011 C 
HETATM   22  C10 UNL     1       4.177  -5.260  17.414  1.00  0.00     0.001 C 
HETATM   23  C11 UNL     1       4.287  -5.075  18.878  1.00  0.00     0.000 C 
HETATM   24  C12 UNL     1       5.571  -4.583  19.322  1.00  0.00     0.005 C 
HETATM   25  C13 UNL     1       6.845  -5.131  18.720  1.00  0.00    -0.004 C 
HETATM   26  C14 UNL     1       7.872  -4.138  19.243  1.00  0.00     0.005 C 
HETATM   27  C15 UNL     1       7.801  -2.807  18.576  1.00  0.00     0.000 C 
HETATM   28  C16 UNL     1       7.414  -2.793  17.145  1.00  0.00     0.001 C 
HETATM   29  C17 UNL     1       6.533  -3.907  16.686  1.00  0.00     0.011 C 
ENDBRANCH   1  20
TORSDOF 6
ENDMDL
MODEL 3
REMARK VINA RESULT: -8.186786035      2.669      4.725
REMARK  6 active torsions:
REMARK  status: ('A' for Active; 'I' for Inactive)
REMARK    1  A    between atoms: C2_2  and  C3_3 
REMARK    2  A    between atoms: C3_3  and  C4_4 
REMARK    3  A    between atoms: C4_4  and  S1_6 
REMARK    4  A    between atoms: C4_4  and  C8_20 
REMARK    5  A    between atoms: S1_6  and  C6_7 
REMARK    6  A    between atoms: C7_16  and  N5_17 
ROOT
HETATM    1  C4  UNL     1       6.692  -6.571  16.204  1.00  0.00     0.019 C 
HETATM    2  C5  UNL     1       5.523  -6.537  17.135  1.00  0.00     0.028 C 
ENDROOT
BRANCH   1   3
HETATM    3  C3  UNL     1       7.179  -7.978  16.135  1.00  0.00     0.021 C 
BRANCH   3   4
HETATM    4  C2  UNL     1       6.216  -9.105  16.065  1.00  0.00    -0.003 C 
HETATM    5  C1  UNL     1       6.384 -10.158  15.023  1.00  0.00     0.005 C 
ENDBRANCH   3   4
ENDBRANCH   1   3
BRANCH   1   6
HETATM    6  S1  UNL     1       6.244  -6.176  14.461  1.00  0.00    -0.097 SA
BRANCH   6   7
HETATM    7  C6  UNL     1       5.640  -7.076  13.321  1.00  0.00     0.132 A 
HETATM    8  N1  UNL     1       6.321  -7.743  12.407  1.00  0.00    -0.275 N 
HETATM    9  N2  UNL     1       5.775  -8.476  11.458  1.00  0.00    -0.227 N 
ATOM     10  H1  UNL     1       7.339  -7.686  12.437  1.00  0.00     0.189 HD
HETATM   11  N3  UNL     1       4.471  -8.598  11.357  1.00  0.00    -0.227 N 
ATOM     12  H2  UNL     1       6.376  -8.958  10.790  1.00  0.00     0.210 HD
HETATM   13  N4  UNL     1       3.744  -7.953  12.245  1.00  0.00    -0.268 N 
ATOM     14  H3  UNL     1       4.042  -9.165  10.626  1.00  0.00     0.210 HD
HETATM   15  C7  UNL     1       4.244  -7.201  13.221  1.00  0.00     0.150 A 
ATOM     16  H4  UNL     1       2.729  -8.035  12.181  1.00  0.00     0.190 HD
BRANCH  15  17
HETATM   17  N5  UNL     1       3.451  -6.610  14.041  1.00  0.00    -0.382 N 
ATOM     18  H52 UNL     1       3.243  -5.618  13.919  1.00  0.00     0.157 HD
ATOM     19  H51 UNL     1       3.018  -7.105  14.821  1.00  0.00     0.157 HD
ENDBRANCH  15  17
ENDBRANCH   6   7
ENDBRANCH   1   6
BRANCH   1  20
HETATM   20  C8  UNL     1       7.763  -5.572  16.560  1.00  0.00    -0.020 C 
HETATM   21  C9  UNL     1       8.655  -5.589  15.306  1.00  0.00     0.011 C 
HETATM   22  C10 UNL     1       9.953  -4.846  15.435  1.00  0.00     0.001 C 
HETATM   23  C11 UNL     1       9.592  -3.433  15.686  1.00  0.00     0.000 C 
HETATM   24  C12 UNL     1       8.586  -3.247  16.707  1.00  0.00     0.005 C 
HETATM   25  C13 UNL     1       7.384  -4.161  16.766  1.00  0.00    -0.004 C 
HETATM   26  C14 UNL     1       6.801  -3.799  18.123  1.00  0.00     0.005 C 
HETATM   27  C15 UNL     1       7.602  -4.321  19.268  1.00  0.00     0.000 C 
HETATM   28  C16 UNL     1       8.283  -5.623  19.074  1.00  0.00     0.001 C 
HETATM   29  C17 UNL     1       8.670  -5.965  17.674  1.00  0.00     0.011 C 
ENDBRANCH   1  20
TORSDOF 6
ENDMDL
MODEL 4
REMARK VINA RESULT: -8.166763390      1.105      2.482
REMARK  6 active torsions:
REMARK  status: ('A' for Active; 'I' for Inactive)
REMARK    1  A    between atoms: C2_2  and  C3_3 
REMARK    2  A    between atoms: C3_3  and  C4_4 
REMARK    3  A    between atoms: C4_4  and  S1_6 
REMARK    4  A    between atoms: C4_4  and  C8_20 
REMARK    5  A    between atoms: S1_6  and  C6_7 
REMARK    6  A    between atoms: C7_16  and  N5_17 
ROOT
HETATM    1  C4  UNL     1       4.155  -6.020  17.804  1.00  0.00     0.019 C 
HETATM    2  C5  UNL     1       3.961  -7.499  17.898  1.00  0.00     0.028 C 
ENDROOT
BRANCH   1   3
HETATM    3  C3  UNL     1       5.487  -5.697  18.388  1.00  0.00     0.021 C 
BRANCH   3   4
HETATM    4  C2  UNL     1       6.485  -4.923  17.608  1.00  0.00    -0.003 C 
HETATM    5  C1  UNL     1       7.278  -3.853  18.276  1.00  0.00     0.005 C 
ENDBRANCH   3   4
ENDBRANCH   1   3
BRANCH   1   6
HETATM    6  S1  UNL     1       4.279  -5.412  16.069  1.00  0.00    -0.097 SA
BRANCH   6   7
HETATM    7  C6  UNL     1       4.134  -6.169  14.697  1.00  0.00     0.132 A 
HETATM    8  N1  UNL     1       3.094  -6.879  14.301  1.00  0.00    -0.275 N 
HETATM    9  N2  UNL     1       3.017  -7.510  13.147  1.00  0.00    -0.227 N 
ATOM     10  H1  UNL     1       2.295  -6.943  14.932  1.00  0.00     0.189 HD
HETATM   11  N3  UNL     1       4.006  -7.471  12.283  1.00  0.00    -0.227 N 
ATOM     12  H2  UNL     1       2.175  -8.038  12.921  1.00  0.00     0.210 HD
HETATM   13  N4  UNL     1       5.069  -6.775  12.629  1.00  0.00    -0.268 N 
ATOM     14  H3  UNL     1       3.953  -7.955  11.387  1.00  0.00     0.210 HD
HETATM   15  C7  UNL     1       5.197  -6.121  13.780  1.00  0.00     0.150 A 
ATOM     16  H4  UNL     1       5.847  -6.735  11.970  1.00  0.00     0.190 HD
BRANCH  15  17
HETATM   17  N5  UNL     1       6.275  -5.468  14.026  1.00  0.00    -0.382 N 
ATOM     18  H52 UNL     1       6.323  -4.860  14.844  1.00  0.00     0.157 HD
ATOM     19  H51 UNL     1       7.095  -5.537  13.423  1.00  0.00     0.157 HD
ENDBRANCH  15  17
ENDBRANCH   6   7
ENDBRANCH   1   6
BRANCH   1  20
HETATM   20  C8  UNL     1       3.018  -5.233  18.405  1.00  0.00    -0.020 C 
HETATM   21  C9  UNL     1       1.807  -5.751  17.609  1.00  0.00     0.011 C 
HETATM   22  C10 UNL     1       0.529  -4.994  17.825  1.00  0.00     0.001 C 
HETATM   23  C11 UNL     1       0.200  -5.149  19.260  1.00  0.00     0.000 C 
HETATM   24  C12 UNL     1       1.306  -4.905  20.156  1.00  0.00     0.005 C 
HETATM   25  C13 UNL     1       2.682  -5.436  19.827  1.00  0.00    -0.004 C 
HETATM   26  C14 UNL     1       3.538  -4.697  20.845  1.00  0.00     0.005 C 
HETATM   27  C15 UNL     1       3.716  -3.251  20.528  1.00  0.00     0.000 C 
HETATM   28  C16 UNL     1       3.778  -2.880  19.094  1.00  0.00     0.001 C 
HETATM   29  C17 UNL     1       3.039  -3.766  18.148  1.00  0.00     0.011 C 
ENDBRANCH   1  20
TORSDOF 6
ENDMDL
MODEL 5
REMARK VINA RESULT: -8.146929663      1.516      3.084
REMARK  6 active torsions:
REMARK  status: ('A' for Active; 'I' for Inactive)
REMARK    1  A    between atoms: C2_2  and  C3_3 
REMARK    2  A    between atoms: C3_3  and  C4_4 
REMARK    3  A    between atoms: C4_4  and  S1_6 
REMARK    4  A    between atoms: C4_4  and  C8_20 
REMARK    5  A    between atoms: S1_6  and  C6_7 
REMARK    6  A    between atoms: C7_16  and  N5_17 
ROOT
HETATM    1  C4  UNL     1       3.060  -6.850  17.863  1.00  0.00     0.019 C 
HETATM    2  C5  UNL     1       3.271  -8.328  17.781  1.00  0.00     0.028 C 
ENDROOT
BRANCH   1   3
HETATM    3  C3  UNL     1       3.965  -6.319  18.921  1.00  0.00     0.021 C 
BRANCH   3   4
HETATM    4  C2  UNL     1       4.911  -5.216  18.619  1.00  0.00    -0.003 C 
HETATM    5  C1  UNL     1       4.856  -3.957  19.413  1.00  0.00     0.005 C 
ENDBRANCH   3   4
ENDBRANCH   1   3
BRANCH   1   6
HETATM    6  S1  UNL     1       3.590  -5.955  16.342  1.00  0.00    -0.097 SA
BRANCH   6   7
HETATM    7  C6  UNL     1       3.766  -6.451  14.860  1.00  0.00     0.132 A 
HETATM    8  N1  UNL     1       2.990  -7.312  14.226  1.00  0.00    -0.275 N 
HETATM    9  N2  UNL     1       3.180  -7.713  12.985  1.00  0.00    -0.227 N 
ATOM     10  H1  UNL     1       2.190  -7.692  14.732  1.00  0.00     0.189 HD
HETATM   11  N3  UNL     1       4.188  -7.265  12.272  1.00  0.00    -0.227 N 
ATOM     12  H2  UNL     1       2.532  -8.383  12.572  1.00  0.00     0.210 HD
HETATM   13  N4  UNL     1       4.993  -6.404  12.857  1.00  0.00    -0.268 N 
ATOM     14  H3  UNL     1       4.339  -7.571  11.310  1.00  0.00     0.210 HD
HETATM   15  C7  UNL     1       4.846  -5.967  14.105  1.00  0.00     0.150 A 
ATOM     16  H4  UNL     1       5.782  -6.046  12.318  1.00  0.00     0.190 HD
BRANCH  15  17
HETATM   17  N5  UNL     1       5.686  -5.123  14.588  1.00  0.00    -0.382 N 
ATOM     18  H52 UNL     1       5.348  -4.329  15.133  1.00  0.00     0.157 HD
ATOM     19  H51 UNL     1       6.691  -5.221  14.442  1.00  0.00     0.157 HD
ENDBRANCH  15  17
ENDBRANCH   6   7
ENDBRANCH   1   6
BRANCH   1  20
HETATM   20  C8  UNL     1       1.613  -6.468  18.048  1.00  0.00    -0.020 C 
HETATM   21  C9  UNL     1       0.877  -7.647  17.388  1.00  0.00     0.011 C 
HETATM   22  C10 UNL     1      -0.602  -7.459  17.213  1.00  0.00     0.001 C 
HETATM   23  C11 UNL     1      -1.159  -7.313  18.576  1.00  0.00     0.000 C 
HETATM   24  C12 UNL     1      -0.441  -6.384  19.418  1.00  0.00     0.005 C 
HETATM   25  C13 UNL     1       1.070  -6.368  19.416  1.00  0.00    -0.004 C 
HETATM   26  C14 UNL     1       1.356  -5.081  20.174  1.00  0.00     0.005 C 
HETATM   27  C15 UNL     1       1.065  -3.852  19.382  1.00  0.00     0.000 C 
HETATM   28  C16 UNL     1       1.302  -3.922  17.921  1.00  0.00     0.001 C 
HETATM   29  C17 UNL     1       1.160  -5.268  17.291  1.00  0.00     0.011 C 
ENDBRANCH   1  20
TORSDOF 6
ENDMDL
