MODEL 1
REMARK VINA RESULT: -5.764791906      0.000      0.000
REMARK  12 active torsions:
REMARK  status: ('A' for Active; 'I' for Inactive)
REMARK    1  A    between atoms: N1_1  and  C1_4 
REMARK    2  A    between atoms: N6_15  and  C5_16 
REMARK    3  A    between atoms: C6_17  and  O1_18 
REMARK    4  A    between atoms: C7_20  and  O2_21 
REMARK    5  A    between atoms: C8_23  and  C9_24 
REMARK    6  A    between atoms: C9_24  and  O3_25 
REMARK    7  A    between atoms: O3_25  and  C10_26 
REMARK    8  A    between atoms: C13_30  and  N7_31 
REMARK    9  A    between atoms: C14_35  and  O5_36 
REMARK   10  A    between atoms: C15_38  and  O6_39 
REMARK   11  A    between atoms: N8_42  and  N9_43 
REMARK   12  A    between atoms: N9_43  and  N10_45 
ROOT
HETATM    1  C5  UNL     1      13.045  -8.213  38.544  1.00  0.00     0.233 C 
HETATM    2  C6  UNL     1      12.885  -7.566  39.876  1.00  0.00     0.187 C 
HETATM    3  C7  UNL     1      14.036  -6.521  40.025  1.00  0.00     0.157 C 
HETATM    4  C8  UNL     1      15.258  -7.337  40.239  1.00  0.00     0.056 C 
HETATM    5  C16 UNL     1      15.365  -8.365  39.115  1.00  0.00     0.127 C 
HETATM    6  N8  UNL     1      14.410  -8.136  38.051  1.00  0.00    -0.188 NA
ENDROOT
BRANCH   4   7
HETATM    7  C9  UNL     1      16.539  -6.625  40.444  1.00  0.00     0.177 C 
BRANCH   7   8
HETATM    8  O3  UNL     1      16.886  -5.668  39.612  1.00  0.00    -0.375 OA
BRANCH   8   9
HETATM    9  C10 UNL     1      17.948  -5.673  38.797  1.00  0.00     0.222 C 
HETATM   10  C11 UNL     1      17.545  -5.435  37.373  1.00  0.00     0.160 C 
HETATM   11  O4  UNL     1      16.387  -5.491  37.079  1.00  0.00    -0.295 OA
HETATM   12  C12 UNL     1      18.579  -5.143  36.376  1.00  0.00     0.116 C 
HETATM   13  C13 UNL     1      19.367  -3.929  36.886  1.00  0.00     0.221 C 
HETATM   14  C14 UNL     1      19.948  -4.373  38.235  1.00  0.00     0.180 C 
HETATM   15  C15 UNL     1      18.799  -4.425  39.199  1.00  0.00     0.185 C 
BRANCH  13  16
HETATM   16  N7  UNL     1      20.424  -3.559  35.987  1.00  0.00    -0.072 N 
ATOM     17  H73 UNL     1      20.655  -2.569  36.075  1.00  0.00     0.274 HD
ATOM     18  H72 UNL     1      21.316  -3.959  36.279  1.00  0.00     0.274 HD
ATOM     19  H71 UNL     1      20.206  -3.804  35.022  1.00  0.00     0.274 HD
ENDBRANCH  13  16
BRANCH  14  20
HETATM   20  O5  UNL     1      20.934  -3.495  38.612  1.00  0.00    -0.391 OA
ATOM     21  H5  UNL     1      20.540  -2.763  39.073  1.00  0.00     0.210 HD
ENDBRANCH  14  20
BRANCH  15  22
HETATM   22  O6  UNL     1      17.934  -3.344  39.045  1.00  0.00    -0.390 OA
ATOM     23  H6  UNL     1      17.608  -3.422  38.156  1.00  0.00     0.210 HD
ENDBRANCH  15  22
ENDBRANCH   8   9
ENDBRANCH   7   8
ENDBRANCH   4   7
BRANCH   3  24
HETATM   24  O2  UNL     1      14.082  -5.794  38.831  1.00  0.00    -0.392 OA
ATOM     25  H2  UNL     1      14.234  -4.885  39.066  1.00  0.00     0.210 HD
ENDBRANCH   3  24
BRANCH   2  26
HETATM   26  O1  UNL     1      11.689  -6.857  39.973  1.00  0.00    -0.389 OA
ATOM     27  H1  UNL     1      11.175  -7.125  40.727  1.00  0.00     0.210 HD
ENDBRANCH   2  26
BRANCH   6  28
HETATM   28  N9  UNL     1      14.571  -9.164  37.131  1.00  0.00    -0.258 N 
ATOM     29  H9  UNL     1      14.665 -10.122  37.469  1.00  0.00     0.202 HD
BRANCH  28  30
HETATM   30  N10 UNL     1      14.610  -8.927  35.765  1.00  0.00    -0.265 N 
HETATM   31  C17 UNL     1      13.796  -9.505  34.967  1.00  0.00     0.216 C 
HETATM   32  N11 UNL     1      13.804  -9.286  33.556  1.00  0.00    -0.065 NA
HETATM   33  N12 UNL     1      12.840 -10.402  35.493  1.00  0.00    -0.065 NA
ATOM     34  H10 UNL     1      15.301  -8.278  35.389  1.00  0.00     0.190 HD
ENDBRANCH  28  30
ENDBRANCH   6  28
BRANCH   1  35
HETATM   35  N6  UNL     1      12.126  -7.639  37.587  1.00  0.00    -0.235 N 
HETATM   36  C3  UNL     1      10.823  -8.020  37.421  1.00  0.00     0.155 A 
HETATM   37  N3  UNL     1      10.059  -8.943  38.025  1.00  0.00    -0.336 N 
HETATM   38  C4  UNL     1      10.235  -7.271  36.423  1.00  0.00     0.135 A 
HETATM   39  C2  UNL     1       8.777  -9.119  37.662  1.00  0.00     0.183 A 
ATOM     40  H3  UNL     1      10.456  -9.518  38.768  1.00  0.00     0.168 HD
HETATM   41  N2  UNL     1       8.207  -8.375  36.677  1.00  0.00    -0.337 N 
HETATM   42  C1  UNL     1       8.922  -7.433  36.035  1.00  0.00     0.132 A 
ATOM     43  H2  UNL     1       7.231  -8.532  36.423  1.00  0.00     0.168 HD
HETATM   44  N4  UNL     1      11.217  -6.439  36.003  1.00  0.00    -0.277 N 
HETATM   45  N5  UNL     1      12.316  -6.674  36.699  1.00  0.00    -0.016 NA
ATOM     46  H4  UNL     1      11.124  -5.741  35.265  1.00  0.00     0.184 HD
BRANCH  42  47
HETATM   47  N1  UNL     1       8.382  -6.727  35.100  1.00  0.00    -0.383 N 
ATOM     48  H12 UNL     1       7.981  -7.143  34.260  1.00  0.00     0.157 HD
ATOM     49  H11 UNL     1       8.341  -5.711  35.180  1.00  0.00     0.157 HD
ENDBRANCH  42  47
ENDBRANCH   1  35
TORSDOF 12
ENDMDL
MODEL 2
REMARK VINA RESULT: -5.725673376      2.835      9.583
REMARK  12 active torsions:
REMARK  status: ('A' for Active; 'I' for Inactive)
REMARK    1  A    between atoms: N1_1  and  C1_4 
REMARK    2  A    between atoms: N6_15  and  C5_16 
REMARK    3  A    between atoms: C6_17  and  O1_18 
REMARK    4  A    between atoms: C7_20  and  O2_21 
REMARK    5  A    between atoms: C8_23  and  C9_24 
REMARK    6  A    between atoms: C9_24  and  O3_25 
REMARK    7  A    between atoms: O3_25  and  C10_26 
REMARK    8  A    between atoms: C13_30  and  N7_31 
REMARK    9  A    between atoms: C14_35  and  O5_36 
REMARK   10  A    between atoms: C15_38  and  O6_39 
REMARK   11  A    between atoms: N8_42  and  N9_43 
REMARK   12  A    between atoms: N9_43  and  N10_45 
ROOT
HETATM    1  C5  UNL     1      20.479  -4.768  37.933  1.00  0.00     0.233 C 
HETATM    2  C6  UNL     1      20.237  -6.234  37.836  1.00  0.00     0.187 C 
HETATM    3  C7  UNL     1      18.693  -6.442  37.717  1.00  0.00     0.157 C 
HETATM    4  C8  UNL     1      18.169  -6.146  39.075  1.00  0.00     0.056 C 
HETATM    5  C16 UNL     1      18.678  -4.773  39.509  1.00  0.00     0.127 C 
HETATM    6  N8  UNL     1      19.322  -4.047  38.434  1.00  0.00    -0.188 NA
ENDROOT
BRANCH   4   7
HETATM    7  C9  UNL     1      16.713  -6.280  39.300  1.00  0.00     0.177 C 
BRANCH   7   8
HETATM    8  O3  UNL     1      15.892  -6.204  38.277  1.00  0.00    -0.375 OA
BRANCH   8   9
HETATM    9  C10 UNL     1      15.132  -7.194  37.795  1.00  0.00     0.222 C 
HETATM   10  C11 UNL     1      13.673  -6.865  37.901  1.00  0.00     0.160 C 
HETATM   11  O4  UNL     1      13.335  -5.929  38.565  1.00  0.00    -0.295 OA
HETATM   12  C12 UNL     1      12.698  -7.699  37.193  1.00  0.00     0.116 C 
HETATM   13  C13 UNL     1      13.105  -7.710  35.713  1.00  0.00     0.221 C 
HETATM   14  C14 UNL     1      14.519  -8.303  35.697  1.00  0.00     0.180 C 
HETATM   15  C15 UNL     1      15.431  -7.253  36.262  1.00  0.00     0.185 C 
BRANCH  13  16
HETATM   16  N7  UNL     1      12.219  -8.514  34.919  1.00  0.00    -0.072 N 
ATOM     17  H73 UNL     1      12.161  -9.467  35.279  1.00  0.00     0.274 HD
ATOM     18  H72 UNL     1      11.247  -8.233  35.048  1.00  0.00     0.274 HD
ATOM     19  H71 UNL     1      12.479  -8.507  33.933  1.00  0.00     0.274 HD
ENDBRANCH  13  16
BRANCH  14  20
HETATM   20  O5  UNL     1      14.841  -8.667  34.412  1.00  0.00    -0.391 OA
ATOM     21  H5  UNL     1      15.782  -8.606  34.297  1.00  0.00     0.210 HD
ENDBRANCH  14  20
BRANCH  15  22
HETATM   22  O6  UNL     1      15.118  -5.979  35.792  1.00  0.00    -0.390 OA
ATOM     23  H6  UNL     1      14.832  -6.116  34.897  1.00  0.00     0.210 HD
ENDBRANCH  15  22
ENDBRANCH   8   9
ENDBRANCH   7   8
ENDBRANCH   4   7
BRANCH   3  24
HETATM   24  O2  UNL     1      18.233  -5.532  36.759  1.00  0.00    -0.392 OA
ATOM     25  H2  UNL     1      17.292  -5.651  36.694  1.00  0.00     0.210 HD
ENDBRANCH   3  24
BRANCH   2  26
HETATM   26  O1  UNL     1      20.801  -6.784  36.686  1.00  0.00    -0.389 OA
ATOM     27  H1  UNL     1      21.307  -7.566  36.875  1.00  0.00     0.210 HD
ENDBRANCH   2  26
BRANCH   6  28
HETATM   28  N9  UNL     1      19.786  -2.852  38.971  1.00  0.00    -0.258 N 
ATOM     29  H9  UNL     1      19.728  -2.706  39.979  1.00  0.00     0.202 HD
BRANCH  28  30
HETATM   30  N10 UNL     1      20.326  -1.851  38.177  1.00  0.00    -0.265 N 
HETATM   31  C17 UNL     1      21.070  -0.939  38.672  1.00  0.00     0.216 C 
HETATM   32  N11 UNL     1      21.645   0.106  37.887  1.00  0.00    -0.065 NA
HETATM   33  N12 UNL     1      21.347  -0.955  40.057  1.00  0.00    -0.065 NA
ATOM     34  H10 UNL     1      20.124  -1.844  37.177  1.00  0.00     0.190 HD
ENDBRANCH  28  30
ENDBRANCH   6  28
BRANCH   1  35
HETATM   35  N6  UNL     1      20.896  -4.237  36.655  1.00  0.00    -0.235 N 
HETATM   36  C3  UNL     1      22.176  -4.251  36.176  1.00  0.00     0.155 A 
HETATM   37  N3  UNL     1      23.332  -4.712  36.677  1.00  0.00    -0.336 N 
HETATM   38  C4  UNL     1      22.222  -3.661  34.930  1.00  0.00     0.135 A 
HETATM   39  C2  UNL     1      24.478  -4.597  35.983  1.00  0.00     0.183 A 
ATOM     40  H3  UNL     1      23.342  -5.155  37.596  1.00  0.00     0.168 HD
HETATM   41  N2  UNL     1      24.511  -4.013  34.755  1.00  0.00    -0.337 N 
HETATM   42  C1  UNL     1      23.384  -3.532  34.200  1.00  0.00     0.132 A 
ATOM     43  H2  UNL     1      25.396  -3.939  34.253  1.00  0.00     0.168 HD
HETATM   44  N4  UNL     1      20.941  -3.298  34.682  1.00  0.00    -0.277 N 
HETATM   45  N5  UNL     1      20.183  -3.645  35.707  1.00  0.00    -0.016 NA
ATOM     46  H4  UNL     1      20.613  -2.830  33.837  1.00  0.00     0.184 HD
BRANCH  42  47
HETATM   47  N1  UNL     1      23.415  -2.978  33.035  1.00  0.00    -0.383 N 
ATOM     48  H12 UNL     1      24.243  -2.506  32.674  1.00  0.00     0.157 HD
ATOM     49  H11 UNL     1      22.593  -3.000  32.432  1.00  0.00     0.157 HD
ENDBRANCH  42  47
ENDBRANCH   1  35
TORSDOF 12
ENDMDL
MODEL 3
REMARK VINA RESULT: -5.692025175      1.317      1.471
REMARK  12 active torsions:
REMARK  status: ('A' for Active; 'I' for Inactive)
REMARK    1  A    between atoms: N1_1  and  C1_4 
REMARK    2  A    between atoms: N6_15  and  C5_16 
REMARK    3  A    between atoms: C6_17  and  O1_18 
REMARK    4  A    between atoms: C7_20  and  O2_21 
REMARK    5  A    between atoms: C8_23  and  C9_24 
REMARK    6  A    between atoms: C9_24  and  O3_25 
REMARK    7  A    between atoms: O3_25  and  C10_26 
REMARK    8  A    between atoms: C13_30  and  N7_31 
REMARK    9  A    between atoms: C14_35  and  O5_36 
REMARK   10  A    between atoms: C15_38  and  O6_39 
REMARK   11  A    between atoms: N8_42  and  N9_43 
REMARK   12  A    between atoms: N9_43  and  N10_45 
ROOT
HETATM    1  C5  UNL     1      13.062  -8.091  37.180  1.00  0.00     0.233 C 
HETATM    2  C6  UNL     1      13.188  -8.271  38.652  1.00  0.00     0.187 C 
HETATM    3  C7  UNL     1      14.084  -7.108  39.187  1.00  0.00     0.157 C 
HETATM    4  C8  UNL     1      15.455  -7.451  38.730  1.00  0.00     0.056 C 
HETATM    5  C16 UNL     1      15.423  -7.699  37.224  1.00  0.00     0.127 C 
HETATM    6  N8  UNL     1      14.161  -7.325  36.619  1.00  0.00    -0.188 NA
ENDROOT
BRANCH   4   7
HETATM    7  C9  UNL     1      16.558  -6.539  39.106  1.00  0.00     0.177 C 
BRANCH   7   8
HETATM    8  O3  UNL     1      17.117  -5.789  38.184  1.00  0.00    -0.375 OA
BRANCH   8   9
HETATM    9  C10 UNL     1      18.418  -5.487  38.088  1.00  0.00     0.222 C 
HETATM   10  C11 UNL     1      18.877  -5.496  36.661  1.00  0.00     0.160 C 
HETATM   11  O4  UNL     1      18.161  -5.961  35.822  1.00  0.00    -0.295 OA
HETATM   12  C12 UNL     1      20.191  -4.938  36.328  1.00  0.00     0.116 C 
HETATM   13  C13 UNL     1      20.216  -3.497  36.856  1.00  0.00     0.221 C 
HETATM   14  C14 UNL     1      19.989  -3.627  38.368  1.00  0.00     0.180 C 
HETATM   15  C15 UNL     1      18.547  -4.001  38.554  1.00  0.00     0.185 C 
BRANCH  13  16
HETATM   16  N7  UNL     1      21.472  -2.852  36.596  1.00  0.00    -0.072 N 
ATOM     17  H73 UNL     1      22.227  -3.532  36.512  1.00  0.00     0.274 HD
ATOM     18  H72 UNL     1      21.500  -2.463  35.654  1.00  0.00     0.274 HD
ATOM     19  H71 UNL     1      21.688  -2.144  37.296  1.00  0.00     0.274 HD
ENDBRANCH  13  16
BRANCH  14  20
HETATM   20  O5  UNL     1      20.325  -2.443  38.977  1.00  0.00    -0.391 OA
ATOM     21  H5  UNL     1      21.243  -2.466  39.217  1.00  0.00     0.210 HD
ENDBRANCH  14  20
BRANCH  15  22
HETATM   22  O6  UNL     1      17.706  -3.290  37.700  1.00  0.00    -0.390 OA
ATOM     23  H6  UNL     1      18.282  -2.692  37.239  1.00  0.00     0.210 HD
ENDBRANCH  15  22
ENDBRANCH   8   9
ENDBRANCH   7   8
ENDBRANCH   4   7
BRANCH   3  24
HETATM   24  O2  UNL     1      13.607  -5.928  38.605  1.00  0.00    -0.392 OA
ATOM     25  H2  UNL     1      13.547  -5.282  39.300  1.00  0.00     0.210 HD
ENDBRANCH   3  24
BRANCH   2  26
HETATM   26  O1  UNL     1      11.959  -8.156  39.301  1.00  0.00    -0.389 OA
ATOM     27  H1  UNL     1      11.972  -7.487  39.975  1.00  0.00     0.210 HD
ENDBRANCH   2  26
BRANCH   6  28
HETATM   28  N9  UNL     1      14.244  -7.652  35.271  1.00  0.00    -0.258 N 
ATOM     29  H9  UNL     1      13.912  -6.982  34.578  1.00  0.00     0.202 HD
BRANCH  28  30
HETATM   30  N10 UNL     1      14.764  -8.863  34.841  1.00  0.00    -0.265 N 
HETATM   31  C17 UNL     1      14.120  -9.613  34.031  1.00  0.00     0.216 C 
HETATM   32  N11 UNL     1      14.622 -10.866  33.565  1.00  0.00    -0.065 NA
HETATM   33  N12 UNL     1      12.853  -9.194  33.567  1.00  0.00    -0.065 NA
ATOM     34  H10 UNL     1      15.679  -9.162  35.177  1.00  0.00     0.190 HD
ENDBRANCH  28  30
ENDBRANCH   6  28
BRANCH   1  35
HETATM   35  N6  UNL     1      11.795  -7.480  36.849  1.00  0.00    -0.235 N 
HETATM   36  C3  UNL     1      10.741  -8.122  36.260  1.00  0.00     0.155 A 
HETATM   37  N3  UNL     1      10.560  -9.385  35.845  1.00  0.00    -0.336 N 
HETATM   38  C4  UNL     1       9.692  -7.245  36.083  1.00  0.00     0.135 A 
HETATM   39  C2  UNL     1       9.398  -9.765  35.284  1.00  0.00     0.183 A 
ATOM     40  H3  UNL     1      11.311 -10.065  35.957  1.00  0.00     0.168 HD
HETATM   41  N2  UNL     1       8.370  -8.892  35.115  1.00  0.00    -0.337 N 
HETATM   42  C1  UNL     1       8.492  -7.612  35.511  1.00  0.00     0.132 A 
ATOM     43  H2  UNL     1       7.501  -9.209  34.685  1.00  0.00     0.168 HD
HETATM   44  N4  UNL     1      10.147  -6.071  36.581  1.00  0.00    -0.277 N 
HETATM   45  N5  UNL     1      11.381  -6.233  37.023  1.00  0.00    -0.016 NA
ATOM     46  H4  UNL     1       9.619  -5.199  36.610  1.00  0.00     0.184 HD
BRANCH  42  47
HETATM   47  N1  UNL     1       7.517  -6.783  35.351  1.00  0.00    -0.383 N 
ATOM     48  H12 UNL     1       6.698  -6.775  35.958  1.00  0.00     0.157 HD
ATOM     49  H11 UNL     1       7.540  -6.098  34.596  1.00  0.00     0.157 HD
ENDBRANCH  42  47
ENDBRANCH   1  35
TORSDOF 12
ENDMDL
MODEL 4
REMARK VINA RESULT: -5.631970723      3.812      9.315
REMARK  12 active torsions:
REMARK  status: ('A' for Active; 'I' for Inactive)
REMARK    1  A    between atoms: N1_1  and  C1_4 
REMARK    2  A    between atoms: N6_15  and  C5_16 
REMARK    3  A    between atoms: C6_17  and  O1_18 
REMARK    4  A    between atoms: C7_20  and  O2_21 
REMARK    5  A    between atoms: C8_23  and  C9_24 
REMARK    6  A    between atoms: C9_24  and  O3_25 
REMARK    7  A    between atoms: O3_25  and  C10_26 
REMARK    8  A    between atoms: C13_30  and  N7_31 
REMARK    9  A    between atoms: C14_35  and  O5_36 
REMARK   10  A    between atoms: C15_38  and  O6_39 
REMARK   11  A    between atoms: N8_42  and  N9_43 
REMARK   12  A    between atoms: N9_43  and  N10_45 
ROOT
HETATM    1  C5  UNL     1      19.326  -4.385  40.249  1.00  0.00     0.233 C 
HETATM    2  C6  UNL     1      19.954  -5.684  39.882  1.00  0.00     0.187 C 
HETATM    3  C7  UNL     1      18.938  -6.451  38.977  1.00  0.00     0.157 C 
HETATM    4  C8  UNL     1      17.867  -6.892  39.906  1.00  0.00     0.056 C 
HETATM    5  C16 UNL     1      17.362  -5.680  40.686  1.00  0.00     0.127 C 
HETATM    6  N8  UNL     1      17.877  -4.428  40.172  1.00  0.00    -0.188 NA
ENDROOT
BRANCH   4   7
HETATM    7  C9  UNL     1      16.748  -7.682  39.348  1.00  0.00     0.177 C 
BRANCH   7   8
HETATM    8  O3  UNL     1      15.985  -7.152  38.418  1.00  0.00    -0.375 OA
BRANCH   8   9
HETATM    9  C10 UNL     1      14.772  -7.580  38.048  1.00  0.00     0.222 C 
HETATM   10  C11 UNL     1      13.703  -6.610  38.452  1.00  0.00     0.160 C 
HETATM   11  O4  UNL     1      13.976  -5.726  39.211  1.00  0.00    -0.295 OA
HETATM   12  C12 UNL     1      12.350  -6.768  37.910  1.00  0.00     0.116 C 
HETATM   13  C13 UNL     1      12.476  -6.771  36.380  1.00  0.00     0.221 C 
HETATM   14  C14 UNL     1      13.389  -7.962  36.061  1.00  0.00     0.180 C 
HETATM   15  C15 UNL     1      14.773  -7.565  36.485  1.00  0.00     0.185 C 
BRANCH  13  16
HETATM   16  N7  UNL     1      11.202  -6.935  35.738  1.00  0.00    -0.072 N 
ATOM     17  H73 UNL     1      11.067  -7.896  35.424  1.00  0.00     0.274 HD
ATOM     18  H72 UNL     1      10.438  -6.876  36.410  1.00  0.00     0.274 HD
ATOM     19  H71 UNL     1      11.074  -6.274  34.972  1.00  0.00     0.274 HD
ENDBRANCH  13  16
BRANCH  14  20
HETATM   20  O5  UNL     1      13.295  -8.256  34.723  1.00  0.00    -0.391 OA
ATOM     21  H5  UNL     1      13.431  -9.188  34.599  1.00  0.00     0.210 HD
ENDBRANCH  14  20
BRANCH  15  22
HETATM   22  O6  UNL     1      15.069  -6.247  36.145  1.00  0.00    -0.390 OA
ATOM     23  H6  UNL     1      15.130  -6.251  35.197  1.00  0.00     0.210 HD
ENDBRANCH  15  22
ENDBRANCH   8   9
ENDBRANCH   7   8
ENDBRANCH   4   7
BRANCH   3  24
HETATM   24  O2  UNL     1      18.473  -5.537  38.024  1.00  0.00    -0.392 OA
ATOM     25  H2  UNL     1      18.114  -6.046  37.306  1.00  0.00     0.210 HD
ENDBRANCH   3  24
BRANCH   2  26
HETATM   26  O1  UNL     1      21.111  -5.511  39.123  1.00  0.00    -0.389 OA
ATOM     27  H1  UNL     1      21.486  -6.341  38.850  1.00  0.00     0.210 HD
ENDBRANCH   2  26
BRANCH   6  28
HETATM   28  N9  UNL     1      17.392  -3.420  40.997  1.00  0.00    -0.258 N 
ATOM     29  H9  UNL     1      17.306  -2.474  40.626  1.00  0.00     0.202 HD
BRANCH  28  30
HETATM   30  N10 UNL     1      17.022  -3.663  42.311  1.00  0.00    -0.265 N 
HETATM   31  C17 UNL     1      17.319  -2.846  43.247  1.00  0.00     0.216 C 
HETATM   32  N11 UNL     1      16.955  -3.060  44.611  1.00  0.00    -0.065 NA
HETATM   33  N12 UNL     1      18.040  -1.673  42.931  1.00  0.00    -0.065 NA
ATOM     34  H10 UNL     1      16.500  -4.511  42.535  1.00  0.00     0.190 HD
ENDBRANCH  28  30
ENDBRANCH   6  28
BRANCH   1  35
HETATM   35  N6  UNL     1      19.848  -3.318  39.424  1.00  0.00    -0.235 N 
HETATM   36  C3  UNL     1      20.430  -2.173  39.893  1.00  0.00     0.155 A 
HETATM   37  N3  UNL     1      20.681  -1.719  41.130  1.00  0.00    -0.336 N 
HETATM   38  C4  UNL     1      20.812  -1.370  38.839  1.00  0.00     0.135 A 
HETATM   39  C2  UNL     1      21.280  -0.529  41.318  1.00  0.00     0.183 A 
ATOM     40  H3  UNL     1      20.414  -2.282  41.938  1.00  0.00     0.168 HD
HETATM   41  N2  UNL     1      21.652   0.254  40.271  1.00  0.00    -0.337 N 
HETATM   42  C1  UNL     1      21.427  -0.148  39.007  1.00  0.00     0.132 A 
ATOM     43  H2  UNL     1      22.103   1.152  40.446  1.00  0.00     0.168 HD
HETATM   44  N4  UNL     1      20.443  -2.065  37.736  1.00  0.00    -0.277 N 
HETATM   45  N5  UNL     1      19.880  -3.202  38.104  1.00  0.00    -0.016 NA
ATOM     46  H4  UNL     1      20.579  -1.758  36.773  1.00  0.00     0.184 HD
BRANCH  42  47
HETATM   47  N1  UNL     1      21.780   0.595  38.014  1.00  0.00    -0.383 N 
ATOM     48  H12 UNL     1      22.262   0.225  37.195  1.00  0.00     0.157 HD
ATOM     49  H11 UNL     1      21.580   1.595  38.021  1.00  0.00     0.157 HD
ENDBRANCH  42  47
ENDBRANCH   1  35
TORSDOF 12
ENDMDL
MODEL 5
REMARK VINA RESULT: -5.546303420      3.981      9.763
REMARK  12 active torsions:
REMARK  status: ('A' for Active; 'I' for Inactive)
REMARK    1  A    between atoms: N1_1  and  C1_4 
REMARK    2  A    between atoms: N6_15  and  C5_16 
REMARK    3  A    between atoms: C6_17  and  O1_18 
REMARK    4  A    between atoms: C7_20  and  O2_21 
REMARK    5  A    between atoms: C8_23  and  C9_24 
REMARK    6  A    between atoms: C9_24  and  O3_25 
REMARK    7  A    between atoms: O3_25  and  C10_26 
REMARK    8  A    between atoms: C13_30  and  N7_31 
REMARK    9  A    between atoms: C14_35  and  O5_36 
REMARK   10  A    between atoms: C15_38  and  O6_39 
REMARK   11  A    between atoms: N8_42  and  N9_43 
REMARK   12  A    between atoms: N9_43  and  N10_45 
ROOT
HETATM    1  C5  UNL     1      20.346  -3.390  39.581  1.00  0.00     0.233 C 
HETATM    2  C6  UNL     1      21.148  -4.384  38.816  1.00  0.00     0.187 C 
HETATM    3  C7  UNL     1      20.232  -4.948  37.684  1.00  0.00     0.157 C 
HETATM    4  C8  UNL     1      19.265  -5.828  38.387  1.00  0.00     0.056 C 
HETATM    5  C16 UNL     1      18.608  -5.035  39.514  1.00  0.00     0.127 C 
HETATM    6  N8  UNL     1      18.917  -3.621  39.460  1.00  0.00    -0.188 NA
ENDROOT
BRANCH   4   7
HETATM    7  C9  UNL     1      18.260  -6.544  37.571  1.00  0.00     0.177 C 
BRANCH   7   8
HETATM    8  O3  UNL     1      16.991  -6.484  37.911  1.00  0.00    -0.375 OA
BRANCH   8   9
HETATM    9  C10 UNL     1      16.041  -7.369  37.587  1.00  0.00     0.222 C 
HETATM   10  C11 UNL     1      14.689  -6.910  38.045  1.00  0.00     0.160 C 
HETATM   11  O4  UNL     1      14.613  -5.986  38.801  1.00  0.00    -0.295 OA
HETATM   12  C12 UNL     1      13.494  -7.607  37.558  1.00  0.00     0.116 C 
HETATM   13  C13 UNL     1      13.546  -7.571  36.024  1.00  0.00     0.221 C 
HETATM   14  C14 UNL     1      14.848  -8.293  35.656  1.00  0.00     0.180 C 
HETATM   15  C15 UNL     1      15.970  -7.367  36.026  1.00  0.00     0.185 C 
BRANCH  13  16
HETATM   16  N7  UNL     1      12.422  -8.241  35.434  1.00  0.00    -0.072 N 
ATOM     17  H73 UNL     1      11.651  -8.325  36.096  1.00  0.00     0.274 HD
ATOM     18  H72 UNL     1      11.968  -7.657  34.732  1.00  0.00     0.274 HD
ATOM     19  H71 UNL     1      12.679  -9.149  35.049  1.00  0.00     0.274 HD
ENDBRANCH  13  16
BRANCH  14  20
HETATM   20  O5  UNL     1      14.825  -8.611  34.320  1.00  0.00    -0.391 OA
ATOM     21  H5  UNL     1      15.705  -8.832  34.038  1.00  0.00     0.210 HD
ENDBRANCH  14  20
BRANCH  15  22
HETATM   22  O6  UNL     1      15.693  -6.045  35.687  1.00  0.00    -0.390 OA
ATOM     23  H6  UNL     1      16.334  -5.828  35.021  1.00  0.00     0.210 HD
ENDBRANCH  15  22
ENDBRANCH   8   9
ENDBRANCH   7   8
ENDBRANCH   4   7
BRANCH   3  24
HETATM   24  O2  UNL     1      19.611  -3.849  37.080  1.00  0.00    -0.392 OA
ATOM     25  H2  UNL     1      20.106  -3.650  36.293  1.00  0.00     0.210 HD
ENDBRANCH   3  24
BRANCH   2  26
HETATM   26  O1  UNL     1      22.245  -3.798  38.185  1.00  0.00    -0.389 OA
ATOM     27  H1  UNL     1      22.441  -4.212  37.352  1.00  0.00     0.210 HD
ENDBRANCH   2  26
BRANCH   6  28
HETATM   28  N9  UNL     1      18.312  -3.030  40.563  1.00  0.00    -0.258 N 
ATOM     29  H9  UNL     1      18.619  -2.104  40.859  1.00  0.00     0.202 HD
BRANCH  28  30
HETATM   30  N10 UNL     1      17.302  -3.663  41.272  1.00  0.00    -0.265 N 
HETATM   31  C17 UNL     1      16.936  -3.246  42.423  1.00  0.00     0.216 C 
HETATM   32  N11 UNL     1      15.901  -3.869  43.183  1.00  0.00    -0.065 NA
HETATM   33  N12 UNL     1      17.577  -2.116  42.979  1.00  0.00    -0.065 NA
ATOM     34  H10 UNL     1      16.841  -4.477  40.866  1.00  0.00     0.190 HD
ENDBRANCH  28  30
ENDBRANCH   6  28
BRANCH   1  35
HETATM   35  N6  UNL     1      20.680  -2.045  39.172  1.00  0.00    -0.235 N 
HETATM   36  C3  UNL     1      21.030  -1.029  40.017  1.00  0.00     0.155 A 
HETATM   37  N3  UNL     1      21.163  -0.958  41.351  1.00  0.00    -0.336 N 
HETATM   38  C4  UNL     1      21.281   0.120  39.298  1.00  0.00     0.135 A 
HETATM   39  C2  UNL     1      21.527   0.192  41.945  1.00  0.00     0.183 A 
ATOM     40  H3  UNL     1      20.987  -1.785  41.920  1.00  0.00     0.168 HD
HETATM   41  N2  UNL     1      21.773   1.319  41.226  1.00  0.00    -0.337 N 
HETATM   42  C1  UNL     1      21.656   1.310  39.885  1.00  0.00     0.132 A 
ATOM     43  H2  UNL     1      22.047   2.177  41.705  1.00  0.00     0.168 HD
HETATM   44  N4  UNL     1      21.073  -0.237  38.008  1.00  0.00    -0.277 N 
HETATM   45  N5  UNL     1      20.722  -1.510  37.960  1.00  0.00    -0.016 NA
ATOM     46  H4  UNL     1      21.173   0.379  37.202  1.00  0.00     0.184 HD
BRANCH  42  47
HETATM   47  N1  UNL     1      21.889   2.379  39.202  1.00  0.00    -0.383 N 
ATOM     48  H12 UNL     1      21.760   3.315  39.587  1.00  0.00     0.157 HD
ATOM     49  H11 UNL     1      22.215   2.315  38.238  1.00  0.00     0.157 HD
ENDBRANCH  42  47
ENDBRANCH   1  35
TORSDOF 12
ENDMDL
