MODEL 1
REMARK VINA RESULT: -5.760140781      0.000      0.000
REMARK  12 active torsions:
REMARK  status: ('A' for Active; 'I' for Inactive)
REMARK    1  A    between atoms: N1_1  and  C1_4 
REMARK    2  A    between atoms: N4_13  and  C5_14 
REMARK    3  A    between atoms: C6_15  and  O2_16 
REMARK    4  A    between atoms: C7_18  and  O3_19 
REMARK    5  A    between atoms: C8_21  and  O4_22 
REMARK    6  A    between atoms: C9_24  and  C10_25 
REMARK    7  A    between atoms: C10_25  and  O5_26 
REMARK    8  A    between atoms: O5_26  and  S1_27 
REMARK    9  A    between atoms: S1_27  and  N5_30 
REMARK       I    between atoms: N5_30  and  C11_32 
REMARK   10  A    between atoms: C11_32  and  C12_34 
REMARK   11  A    between atoms: C13_36  and  O10_37 
REMARK   12  A    between atoms: C15_40  and  N6_41 
ROOT
HETATM    1  C5  UNL     1      12.884  -7.919  36.943  1.00  0.00     0.056 C 
HETATM    2  C6  UNL     1      12.565  -8.886  35.867  1.00  0.00     0.198 C 
HETATM    3  C7  UNL     1      13.702  -9.962  35.750  1.00  0.00     0.181 C 
HETATM    4  C8  UNL     1      14.989  -9.186  35.520  1.00  0.00     0.158 C 
HETATM    5  C9  UNL     1      15.279  -8.157  36.541  1.00  0.00     0.077 C 
HETATM    6  C13 UNL     1      14.137  -7.139  36.759  1.00  0.00     0.175 C 
ENDROOT
BRANCH   1   7
HETATM    7  N4  UNL     1      12.024  -7.628  38.059  1.00  0.00    -0.305 N 
HETATM    8  C4  UNL     1      12.172  -8.010  39.391  1.00  0.00     0.189 A 
HETATM    9  N3  UNL     1      11.182  -7.599  40.158  1.00  0.00    -0.345 N 
HETATM   10  C3  UNL     1      10.358  -6.937  39.376  1.00  0.00     0.133 A 
ATOM     11  H3  UNL     1      11.077  -7.761  41.159  1.00  0.00     0.167 HD
HETATM   12  C2  UNL     1       9.161  -6.345  39.763  1.00  0.00     0.288 C 
HETATM   13  C14 UNL     1      10.876  -6.948  38.067  1.00  0.00     0.117 A 
HETATM   14  N2  UNL     1       8.081  -6.089  38.960  1.00  0.00    -0.154 N 
HETATM   15  O1  UNL     1       9.079  -6.020  40.967  1.00  0.00    -0.265 OA
HETATM   16  C1  UNL     1       8.005  -6.242  37.611  1.00  0.00     0.680 C 
ATOM     17  H2  UNL     1       7.240  -5.747  39.425  1.00  0.00     0.187 HD
HETATM   18  N7  UNL     1       8.991  -6.221  36.701  1.00  0.00    -0.175 N 
HETATM   19  C15 UNL     1      10.324  -6.341  36.963  1.00  0.00     0.144 C 
ATOM     20  H7  UNL     1       8.720  -6.104  35.726  1.00  0.00     0.186 HD
BRANCH  16  21
HETATM   21  N1  UNL     1       6.820  -6.433  37.151  1.00  0.00    -0.234 N 
ATOM     22  H12 UNL     1       6.177  -5.645  37.234  1.00  0.00     0.174 HD
ATOM     23  H11 UNL     1       6.655  -7.357  36.751  1.00  0.00     0.174 HD
ENDBRANCH  16  21
BRANCH  19  24
HETATM   24  N6  UNL     1      11.181  -5.846  36.161  1.00  0.00    -0.383 N 
ATOM     25  H62 UNL     1      12.116  -5.609  36.492  1.00  0.00     0.157 HD
ATOM     26  H61 UNL     1      10.843  -5.743  35.204  1.00  0.00     0.157 HD
ENDBRANCH  19  24
ENDBRANCH   1   7
BRANCH   2  27
HETATM   27  O2  UNL     1      12.771  -8.428  34.533  1.00  0.00    -0.387 OA
ATOM     28  H2  UNL     1      12.243  -8.845  33.862  1.00  0.00     0.210 HD
ENDBRANCH   2  27
BRANCH   6  29
HETATM   29  O10 UNL     1      14.305  -6.248  35.779  1.00  0.00    -0.389 OA
ATOM     30  H10 UNL     1      14.263  -6.476  34.857  1.00  0.00     0.210 HD
ENDBRANCH   6  29
BRANCH   3  31
HETATM   31  O3  UNL     1      13.685 -10.659  36.931  1.00  0.00    -0.390 OA
ATOM     32  H3  UNL     1      14.421 -10.335  37.437  1.00  0.00     0.210 HD
ENDBRANCH   3  31
BRANCH   5  33
HETATM   33  C10 UNL     1      16.603  -7.529  36.319  1.00  0.00     0.202 C 
BRANCH  33  34
HETATM   34  O5  UNL     1      16.653  -6.322  37.018  1.00  0.00    -0.259 OA
BRANCH  34  35
HETATM   35  S1  UNL     1      17.457  -6.416  38.473  1.00  0.00     0.364 S 
HETATM   36  O6  UNL     1      16.572  -5.962  39.573  1.00  0.00    -0.175 OA
HETATM   37  O7  UNL     1      17.795  -7.869  38.770  1.00  0.00    -0.175 OA
BRANCH  35  38
HETATM   38  N5  UNL     1      18.911  -5.519  38.480  1.00  0.00    -0.225 N 
HETATM   39  C11 UNL     1      18.903  -4.156  38.099  1.00  0.00     0.294 C 
HETATM   40  O8  UNL     1      17.826  -3.625  37.763  1.00  0.00    -0.264 OA
ATOM     41  H5  UNL     1      19.785  -5.966  38.759  1.00  0.00     0.184 HD
BRANCH  39  42
HETATM   42  C12 UNL     1      20.134  -3.356  38.093  1.00  0.00     0.333 C 
HETATM   43  O9  UNL     1      20.362  -2.477  37.227  1.00  0.00    -0.296 OA
ENDBRANCH  39  42
ENDBRANCH  35  38
ENDBRANCH  34  35
ENDBRANCH  33  34
ENDBRANCH   5  33
BRANCH   4  44
HETATM   44  O4  UNL     1      15.082  -8.774  34.218  1.00  0.00    -0.392 OA
ATOM     45  H4  UNL     1      15.806  -8.169  34.106  1.00  0.00     0.210 HD
ENDBRANCH   4  44
TORSDOF 12
ENDMDL
MODEL 2
REMARK VINA RESULT: -5.603119553      2.918      3.896
REMARK  12 active torsions:
REMARK  status: ('A' for Active; 'I' for Inactive)
REMARK    1  A    between atoms: N1_1  and  C1_4 
REMARK    2  A    between atoms: N4_13  and  C5_14 
REMARK    3  A    between atoms: C6_15  and  O2_16 
REMARK    4  A    between atoms: C7_18  and  O3_19 
REMARK    5  A    between atoms: C8_21  and  O4_22 
REMARK    6  A    between atoms: C9_24  and  C10_25 
REMARK    7  A    between atoms: C10_25  and  O5_26 
REMARK    8  A    between atoms: O5_26  and  S1_27 
REMARK    9  A    between atoms: S1_27  and  N5_30 
REMARK       I    between atoms: N5_30  and  C11_32 
REMARK   10  A    between atoms: C11_32  and  C12_34 
REMARK   11  A    between atoms: C13_36  and  O10_37 
REMARK   12  A    between atoms: C15_40  and  N6_41 
ROOT
HETATM    1  C5  UNL     1      14.618  -7.842  37.204  1.00  0.00     0.056 C 
HETATM    2  C6  UNL     1      15.481  -7.299  36.129  1.00  0.00     0.198 C 
HETATM    3  C7  UNL     1      16.983  -7.307  36.583  1.00  0.00     0.181 C 
HETATM    4  C8  UNL     1      17.033  -6.508  37.875  1.00  0.00     0.158 C 
HETATM    5  C9  UNL     1      16.115  -6.985  38.930  1.00  0.00     0.077 C 
HETATM    6  C13 UNL     1      14.638  -7.090  38.488  1.00  0.00     0.175 C 
ENDROOT
BRANCH   1   7
HETATM    7  N4  UNL     1      13.714  -8.949  37.045  1.00  0.00    -0.305 N 
HETATM    8  C4  UNL     1      13.863 -10.261  37.491  1.00  0.00     0.189 A 
HETATM    9  N3  UNL     1      12.855 -11.038  37.149  1.00  0.00    -0.345 N 
HETATM   10  C3  UNL     1      12.014 -10.282  36.477  1.00  0.00     0.133 A 
ATOM     11  H3  UNL     1      12.748 -12.030  37.362  1.00  0.00     0.167 HD
HETATM   12  C2  UNL     1      10.817 -10.698  35.905  1.00  0.00     0.288 C 
HETATM   13  C14 UNL     1      12.541  -8.978  36.410  1.00  0.00     0.117 A 
HETATM   14  N2  UNL     1      10.181 -10.121  34.837  1.00  0.00    -0.154 N 
HETATM   15  O1  UNL     1      10.283 -11.698  36.428  1.00  0.00    -0.265 OA
HETATM   16  C1  UNL     1      10.516  -8.964  34.207  1.00  0.00     0.680 C 
ATOM     17  H2  UNL     1       9.365 -10.614  34.475  1.00  0.00     0.187 HD
HETATM   18  N7  UNL     1      11.191  -7.906  34.685  1.00  0.00    -0.175 N 
HETATM   19  C15 UNL     1      11.950  -7.886  35.817  1.00  0.00     0.144 C 
ATOM     20  H7  UNL     1      11.131  -7.039  34.153  1.00  0.00     0.186 HD
BRANCH  16  21
HETATM   21  N1  UNL     1      10.130  -8.878  32.985  1.00  0.00    -0.234 N 
ATOM     22  H12 UNL     1       9.978  -9.764  32.502  1.00  0.00     0.174 HD
ATOM     23  H11 UNL     1      10.019  -7.928  32.632  1.00  0.00     0.174 HD
ENDBRANCH  16  21
BRANCH  19  24
HETATM   24  N6  UNL     1      12.144  -6.791  36.438  1.00  0.00    -0.383 N 
ATOM     25  H62 UNL     1      13.035  -6.302  36.349  1.00  0.00     0.157 HD
ATOM     26  H61 UNL     1      11.341  -6.475  36.983  1.00  0.00     0.157 HD
ENDBRANCH  19  24
ENDBRANCH   1   7
BRANCH   2  27
HETATM   27  O2  UNL     1      15.468  -5.883  35.970  1.00  0.00    -0.387 OA
ATOM     28  H2  UNL     1      14.621  -5.461  36.061  1.00  0.00     0.210 HD
ENDBRANCH   2  27
BRANCH   6  29
HETATM   29  O10 UNL     1      14.173  -5.844  38.612  1.00  0.00    -0.389 OA
ATOM     30  H10 UNL     1      13.304  -5.645  38.941  1.00  0.00     0.210 HD
ENDBRANCH   6  29
BRANCH   3  31
HETATM   31  O3  UNL     1      17.323  -8.627  36.740  1.00  0.00    -0.390 OA
ATOM     32  H3  UNL     1      17.625  -8.714  37.637  1.00  0.00     0.210 HD
ENDBRANCH   3  31
BRANCH   5  33
HETATM   33  C10 UNL     1      16.306  -6.238  40.196  1.00  0.00     0.202 C 
BRANCH  33  34
HETATM   34  O5  UNL     1      17.657  -5.917  40.332  1.00  0.00    -0.259 OA
BRANCH  34  35
HETATM   35  S1  UNL     1      17.932  -4.367  40.876  1.00  0.00     0.364 S 
HETATM   36  O6  UNL     1      16.684  -3.796  41.437  1.00  0.00    -0.175 OA
HETATM   37  O7  UNL     1      18.936  -4.403  42.019  1.00  0.00    -0.175 OA
BRANCH  35  38
HETATM   38  N5  UNL     1      18.551  -3.343  39.657  1.00  0.00    -0.225 N 
HETATM   39  C11 UNL     1      19.727  -3.706  38.956  1.00  0.00     0.294 C 
HETATM   40  O8  UNL     1      20.296  -4.779  39.240  1.00  0.00    -0.264 OA
ATOM     41  H5  UNL     1      18.075  -2.469  39.434  1.00  0.00     0.184 HD
BRANCH  39  42
HETATM   42  C12 UNL     1      20.286  -2.850  37.903  1.00  0.00     0.333 C 
HETATM   43  O9  UNL     1      19.826  -2.831  36.735  1.00  0.00    -0.296 OA
ENDBRANCH  39  42
ENDBRANCH  35  38
ENDBRANCH  34  35
ENDBRANCH  33  34
ENDBRANCH   5  33
BRANCH   4  44
HETATM   44  O4  UNL     1      16.996  -5.164  37.617  1.00  0.00    -0.392 OA
ATOM     45  H4  UNL     1      17.376  -4.672  38.335  1.00  0.00     0.210 HD
ENDBRANCH   4  44
TORSDOF 12
ENDMDL
MODEL 3
REMARK VINA RESULT: -5.597178041      2.316      3.971
REMARK  12 active torsions:
REMARK  status: ('A' for Active; 'I' for Inactive)
REMARK    1  A    between atoms: N1_1  and  C1_4 
REMARK    2  A    between atoms: N4_13  and  C5_14 
REMARK    3  A    between atoms: C6_15  and  O2_16 
REMARK    4  A    between atoms: C7_18  and  O3_19 
REMARK    5  A    between atoms: C8_21  and  O4_22 
REMARK    6  A    between atoms: C9_24  and  C10_25 
REMARK    7  A    between atoms: C10_25  and  O5_26 
REMARK    8  A    between atoms: O5_26  and  S1_27 
REMARK    9  A    between atoms: S1_27  and  N5_30 
REMARK       I    between atoms: N5_30  and  C11_32 
REMARK   10  A    between atoms: C11_32  and  C12_34 
REMARK   11  A    between atoms: C13_36  and  O10_37 
REMARK   12  A    between atoms: C15_40  and  N6_41 
ROOT
HETATM    1  C5  UNL     1      10.738  -7.414  37.483  1.00  0.00     0.056 C 
HETATM    2  C6  UNL     1      10.083  -8.386  36.577  1.00  0.00     0.198 C 
HETATM    3  C7  UNL     1      11.048  -9.586  36.279  1.00  0.00     0.181 C 
HETATM    4  C8  UNL     1      12.316  -8.971  35.709  1.00  0.00     0.158 C 
HETATM    5  C9  UNL     1      12.937  -7.937  36.564  1.00  0.00     0.077 C 
HETATM    6  C13 UNL     1      11.985  -6.789  36.966  1.00  0.00     0.175 C 
ENDROOT
BRANCH   1   7
HETATM    7  N4  UNL     1      10.196  -6.979  38.743  1.00  0.00    -0.305 N 
HETATM    8  C4  UNL     1       8.963  -6.382  38.995  1.00  0.00     0.189 A 
HETATM    9  N3  UNL     1       8.788  -6.079  40.267  1.00  0.00    -0.345 N 
HETATM   10  C3  UNL     1       9.880  -6.460  40.892  1.00  0.00     0.133 A 
ATOM     11  H3  UNL     1       7.969  -5.636  40.682  1.00  0.00     0.167 HD
HETATM   12  C2  UNL     1      10.140  -6.311  42.250  1.00  0.00     0.288 C 
HETATM   13  C14 UNL     1      10.762  -7.025  39.951  1.00  0.00     0.117 A 
HETATM   14  N2  UNL     1      11.374  -6.235  42.840  1.00  0.00    -0.154 N 
HETATM   15  O1  UNL     1       9.137  -6.241  42.991  1.00  0.00    -0.265 OA
HETATM   16  C1  UNL     1      12.582  -6.416  42.245  1.00  0.00     0.680 C 
ATOM     17  H2  UNL     1      11.388  -6.019  43.837  1.00  0.00     0.187 HD
HETATM   18  N7  UNL     1      12.885  -7.122  41.144  1.00  0.00    -0.175 N 
HETATM   19  C15 UNL     1      11.999  -7.568  40.210  1.00  0.00     0.144 C 
ATOM     20  H7  UNL     1      13.869  -7.345  40.993  1.00  0.00     0.186 HD
BRANCH  16  21
HETATM   21  N1  UNL     1      13.567  -5.824  42.821  1.00  0.00    -0.234 N 
ATOM     22  H12 UNL     1      14.261  -5.406  42.201  1.00  0.00     0.174 HD
ATOM     23  H11 UNL     1      13.544  -5.840  43.841  1.00  0.00     0.174 HD
ENDBRANCH  16  21
BRANCH  19  24
HETATM   24  N6  UNL     1      12.275  -8.589  39.501  1.00  0.00    -0.383 N 
ATOM     25  H62 UNL     1      11.589  -9.336  39.388  1.00  0.00     0.157 HD
ATOM     26  H61 UNL     1      13.200  -8.558  39.071  1.00  0.00     0.157 HD
ENDBRANCH  19  24
ENDBRANCH   1   7
BRANCH   2  27
HETATM   27  O2  UNL     1      10.016  -8.012  35.203  1.00  0.00    -0.387 OA
ATOM     28  H2  UNL     1      10.008  -8.727  34.577  1.00  0.00     0.210 HD
ENDBRANCH   2  27
BRANCH   6  29
HETATM   29  O10 UNL     1      12.006  -5.966  35.914  1.00  0.00    -0.389 OA
ATOM     30  H10 UNL     1      11.917  -5.023  35.990  1.00  0.00     0.210 HD
ENDBRANCH   6  29
BRANCH   3  31
HETATM   31  O3  UNL     1      11.239 -10.224  37.478  1.00  0.00    -0.390 OA
ATOM     32  H3  UNL     1      11.650 -11.056  37.270  1.00  0.00     0.210 HD
ENDBRANCH   3  31
BRANCH   5  33
HETATM   33  C10 UNL     1      14.229  -7.472  36.005  1.00  0.00     0.202 C 
BRANCH  33  34
HETATM   34  O5  UNL     1      14.684  -6.390  36.759  1.00  0.00    -0.259 OA
BRANCH  34  35
HETATM   35  S1  UNL     1      16.325  -6.404  37.039  1.00  0.00     0.364 S 
HETATM   36  O6  UNL     1      17.040  -6.920  35.847  1.00  0.00    -0.175 OA
HETATM   37  O7  UNL     1      16.816  -4.980  37.247  1.00  0.00    -0.175 OA
BRANCH  35  38
HETATM   38  N5  UNL     1      16.748  -7.320  38.419  1.00  0.00    -0.225 N 
HETATM   39  C11 UNL     1      16.141  -7.040  39.667  1.00  0.00     0.294 C 
HETATM   40  O8  UNL     1      15.299  -6.123  39.741  1.00  0.00    -0.264 OA
ATOM     41  H5  UNL     1      17.437  -8.067  38.344  1.00  0.00     0.184 HD
BRANCH  39  42
HETATM   42  C12 UNL     1      16.481  -7.805  40.872  1.00  0.00     0.333 C 
HETATM   43  O9  UNL     1      15.765  -7.792  41.903  1.00  0.00    -0.296 OA
ENDBRANCH  39  42
ENDBRANCH  35  38
ENDBRANCH  34  35
ENDBRANCH  33  34
ENDBRANCH   5  33
BRANCH   4  44
HETATM   44  O4  UNL     1      12.144  -8.630  34.395  1.00  0.00    -0.392 OA
ATOM     45  H4  UNL     1      11.252  -8.800  34.116  1.00  0.00     0.210 HD
ENDBRANCH   4  44
TORSDOF 12
ENDMDL
MODEL 4
REMARK VINA RESULT: -5.583460410      1.273      1.626
REMARK  12 active torsions:
REMARK  status: ('A' for Active; 'I' for Inactive)
REMARK    1  A    between atoms: N1_1  and  C1_4 
REMARK    2  A    between atoms: N4_13  and  C5_14 
REMARK    3  A    between atoms: C6_15  and  O2_16 
REMARK    4  A    between atoms: C7_18  and  O3_19 
REMARK    5  A    between atoms: C8_21  and  O4_22 
REMARK    6  A    between atoms: C9_24  and  C10_25 
REMARK    7  A    between atoms: C10_25  and  O5_26 
REMARK    8  A    between atoms: O5_26  and  S1_27 
REMARK    9  A    between atoms: S1_27  and  N5_30 
REMARK       I    between atoms: N5_30  and  C11_32 
REMARK   10  A    between atoms: C11_32  and  C12_34 
REMARK   11  A    between atoms: C13_36  and  O10_37 
REMARK   12  A    between atoms: C15_40  and  N6_41 
ROOT
HETATM    1  C5  UNL     1      12.637  -8.197  36.769  1.00  0.00     0.056 C 
HETATM    2  C6  UNL     1      12.190  -8.983  35.594  1.00  0.00     0.198 C 
HETATM    3  C7  UNL     1      13.155 -10.197  35.356  1.00  0.00     0.181 C 
HETATM    4  C8  UNL     1      14.546  -9.603  35.207  1.00  0.00     0.158 C 
HETATM    5  C9  UNL     1      14.974  -8.747  36.333  1.00  0.00     0.077 C 
HETATM    6  C13 UNL     1      13.995  -7.599  36.666  1.00  0.00     0.175 C 
ENDROOT
BRANCH   1   7
HETATM    7  N4  UNL     1      11.816  -7.903  37.913  1.00  0.00    -0.305 N 
HETATM    8  C4  UNL     1      11.904  -8.429  39.200  1.00  0.00     0.189 A 
HETATM    9  N3  UNL     1      10.972  -7.965  40.010  1.00  0.00    -0.345 N 
HETATM   10  C3  UNL     1      10.248  -7.128  39.302  1.00  0.00     0.133 A 
ATOM     11  H3  UNL     1      10.840  -8.208  40.992  1.00  0.00     0.167 HD
HETATM   12  C2  UNL     1       9.138  -6.421  39.752  1.00  0.00     0.288 C 
HETATM   13  C14 UNL     1      10.768  -7.081  37.994  1.00  0.00     0.117 A 
HETATM   14  N2  UNL     1       8.107  -5.948  38.984  1.00  0.00    -0.154 N 
HETATM   15  O1  UNL     1       9.092  -6.206  40.982  1.00  0.00    -0.265 OA
HETATM   16  C1  UNL     1       8.020  -5.959  37.628  1.00  0.00     0.680 C 
ATOM     17  H2  UNL     1       7.316  -5.544  39.486  1.00  0.00     0.187 HD
HETATM   18  N7  UNL     1       9.006  -5.981  36.717  1.00  0.00    -0.175 N 
HETATM   19  C15 UNL     1      10.309  -6.302  36.957  1.00  0.00     0.144 C 
ATOM     20  H7  UNL     1       8.758  -5.735  35.760  1.00  0.00     0.186 HD
BRANCH  16  21
HETATM   21  N1  UNL     1       6.823  -5.945  37.159  1.00  0.00    -0.234 N 
ATOM     22  H12 UNL     1       6.234  -5.170  37.463  1.00  0.00     0.174 HD
ATOM     23  H11 UNL     1       6.596  -6.716  36.530  1.00  0.00     0.174 HD
ENDBRANCH  16  21
BRANCH  19  24
HETATM   24  N6  UNL     1      11.229  -5.850  36.201  1.00  0.00    -0.383 N 
ATOM     25  H62 UNL     1      11.342  -6.217  35.256  1.00  0.00     0.157 HD
ATOM     26  H61 UNL     1      11.788  -5.109  36.624  1.00  0.00     0.157 HD
ENDBRANCH  19  24
ENDBRANCH   1   7
BRANCH   2  27
HETATM   27  O2  UNL     1      12.479  -8.418  34.318  1.00  0.00    -0.387 OA
ATOM     28  H2  UNL     1      11.729  -8.223  33.768  1.00  0.00     0.210 HD
ENDBRANCH   2  27
BRANCH   6  29
HETATM   29  O10 UNL     1      14.306  -6.642  35.788  1.00  0.00    -0.389 OA
ATOM     30  H10 UNL     1      15.154  -6.214  35.766  1.00  0.00     0.210 HD
ENDBRANCH   6  29
BRANCH   3  31
HETATM   31  O3  UNL     1      13.019 -11.009  36.454  1.00  0.00    -0.390 OA
ATOM     32  H3  UNL     1      13.527 -11.790  36.267  1.00  0.00     0.210 HD
ENDBRANCH   3  31
BRANCH   5  33
HETATM   33  C10 UNL     1      16.380  -8.304  36.177  1.00  0.00     0.202 C 
BRANCH  33  34
HETATM   34  O5  UNL     1      16.790  -7.676  37.354  1.00  0.00    -0.259 OA
BRANCH  34  35
HETATM   35  S1  UNL     1      17.587  -6.236  37.109  1.00  0.00     0.364 S 
HETATM   36  O6  UNL     1      18.326  -6.276  35.824  1.00  0.00    -0.175 OA
HETATM   37  O7  UNL     1      16.571  -5.111  36.981  1.00  0.00    -0.175 OA
BRANCH  35  38
HETATM   38  N5  UNL     1      18.652  -5.848  38.388  1.00  0.00    -0.225 N 
HETATM   39  C11 UNL     1      18.136  -5.552  39.673  1.00  0.00     0.294 C 
HETATM   40  O8  UNL     1      16.903  -5.581  39.854  1.00  0.00    -0.264 OA
ATOM     41  H5  UNL     1      19.658  -5.829  38.226  1.00  0.00     0.184 HD
BRANCH  39  42
HETATM   42  C12 UNL     1      19.021  -5.214  40.794  1.00  0.00     0.333 C 
HETATM   43  O9  UNL     1      18.932  -4.130  41.420  1.00  0.00    -0.296 OA
ENDBRANCH  39  42
ENDBRANCH  35  38
ENDBRANCH  34  35
ENDBRANCH  33  34
ENDBRANCH   5  33
BRANCH   4  44
HETATM   44  O4  UNL     1      14.716  -9.071  33.957  1.00  0.00    -0.392 OA
ATOM     45  H4  UNL     1      15.621  -9.147  33.679  1.00  0.00     0.210 HD
ENDBRANCH   4  44
TORSDOF 12
ENDMDL
MODEL 5
REMARK VINA RESULT: -5.525405971      5.121      9.632
REMARK  12 active torsions:
REMARK  status: ('A' for Active; 'I' for Inactive)
REMARK    1  A    between atoms: N1_1  and  C1_4 
REMARK    2  A    between atoms: N4_13  and  C5_14 
REMARK    3  A    between atoms: C6_15  and  O2_16 
REMARK    4  A    between atoms: C7_18  and  O3_19 
REMARK    5  A    between atoms: C8_21  and  O4_22 
REMARK    6  A    between atoms: C9_24  and  C10_25 
REMARK    7  A    between atoms: C10_25  and  O5_26 
REMARK    8  A    between atoms: O5_26  and  S1_27 
REMARK    9  A    between atoms: S1_27  and  N5_30 
REMARK       I    between atoms: N5_30  and  C11_32 
REMARK   10  A    between atoms: C11_32  and  C12_34 
REMARK   11  A    between atoms: C13_36  and  O10_37 
REMARK   12  A    between atoms: C15_40  and  N6_41 
ROOT
HETATM    1  C5  UNL     1      20.394  -3.416  38.288  1.00  0.00     0.056 C 
HETATM    2  C6  UNL     1      19.479  -3.150  37.153  1.00  0.00     0.198 C 
HETATM    3  C7  UNL     1      18.482  -4.349  36.968  1.00  0.00     0.181 C 
HETATM    4  C8  UNL     1      19.346  -5.586  36.786  1.00  0.00     0.158 C 
HETATM    5  C9  UNL     1      20.324  -5.819  37.869  1.00  0.00     0.077 C 
HETATM    6  C13 UNL     1      21.257  -4.620  38.152  1.00  0.00     0.175 C 
ENDROOT
BRANCH   1   7
HETATM    7  N4  UNL     1      20.563  -2.546  39.421  1.00  0.00    -0.305 N 
HETATM    8  C4  UNL     1      20.252  -2.791  40.757  1.00  0.00     0.189 A 
HETATM    9  N3  UNL     1      20.507  -1.763  41.542  1.00  0.00    -0.345 N 
HETATM   10  C3  UNL     1      20.990  -0.817  40.769  1.00  0.00     0.133 A 
ATOM     11  H3  UNL     1      20.358  -1.712  42.550  1.00  0.00     0.167 HD
HETATM   12  C2  UNL     1      21.375   0.456  41.175  1.00  0.00     0.288 C 
HETATM   13  C14 UNL     1      21.031  -1.296  39.445  1.00  0.00     0.117 A 
HETATM   14  N2  UNL     1      21.413   1.583  40.397  1.00  0.00    -0.154 N 
HETATM   15  O1  UNL     1      21.716   0.565  42.372  1.00  0.00    -0.265 OA
HETATM   16  C1  UNL     1      21.210   1.664  39.056  1.00  0.00     0.680 C 
ATOM     17  H2  UNL     1      21.617   2.460  40.878  1.00  0.00     0.187 HD
HETATM   18  N7  UNL     1      21.376   0.719  38.117  1.00  0.00    -0.175 N 
HETATM   19  C15 UNL     1      21.499  -0.620  38.343  1.00  0.00     0.144 C 
ATOM     20  H7  UNL     1      21.415   1.031  37.147  1.00  0.00     0.186 HD
BRANCH  16  21
HETATM   21  N1  UNL     1      20.801   2.807  38.635  1.00  0.00    -0.234 N 
ATOM     22  H12 UNL     1      21.074   3.614  39.197  1.00  0.00     0.174 HD
ATOM     23  H11 UNL     1      20.245   2.780  37.780  1.00  0.00     0.174 HD
ENDBRANCH  16  21
BRANCH  19  24
HETATM   24  N6  UNL     1      22.112  -1.356  37.504  1.00  0.00    -0.383 N 
ATOM     25  H62 UNL     1      22.381  -2.308  37.757  1.00  0.00     0.157 HD
ATOM     26  H61 UNL     1      22.271  -0.913  36.599  1.00  0.00     0.157 HD
ENDBRANCH  19  24
ENDBRANCH   1   7
BRANCH   2  27
HETATM   27  O2  UNL     1      20.031  -3.322  35.851  1.00  0.00    -0.387 OA
ATOM     28  H2  UNL     1      20.817  -2.824  35.663  1.00  0.00     0.210 HD
ENDBRANCH   2  27
BRANCH   6  29
HETATM   29  O10 UNL     1      22.216  -4.730  37.229  1.00  0.00    -0.389 OA
ATOM     30  H10 UNL     1      22.892  -5.396  37.260  1.00  0.00     0.210 HD
ENDBRANCH   6  29
BRANCH   3  31
HETATM   31  O3  UNL     1      17.713  -4.379  38.104  1.00  0.00    -0.390 OA
ATOM     32  H3  UNL     1      17.028  -5.017  37.940  1.00  0.00     0.210 HD
ENDBRANCH   3  31
BRANCH   5  33
HETATM   33  C10 UNL     1      21.043  -7.102  37.686  1.00  0.00     0.202 C 
BRANCH  33  34
HETATM   34  O5  UNL     1      20.141  -8.065  37.231  1.00  0.00    -0.259 OA
BRANCH  34  35
HETATM   35  S1  UNL     1      19.356  -8.886  38.449  1.00  0.00     0.364 S 
HETATM   36  O6  UNL     1      19.093 -10.284  38.031  1.00  0.00    -0.175 OA
HETATM   37  O7  UNL     1      20.261  -8.967  39.668  1.00  0.00    -0.175 OA
BRANCH  35  38
HETATM   38  N5  UNL     1      17.898  -8.128  38.918  1.00  0.00    -0.225 N 
HETATM   39  C11 UNL     1      16.882  -7.896  37.960  1.00  0.00     0.294 C 
HETATM   40  O8  UNL     1      17.066  -8.252  36.779  1.00  0.00    -0.264 OA
ATOM     41  H5  UNL     1      17.760  -7.844  39.887  1.00  0.00     0.184 HD
BRANCH  39  42
HETATM   42  C12 UNL     1      15.617  -7.247  38.328  1.00  0.00     0.333 C 
HETATM   43  O9  UNL     1      15.308  -6.098  37.929  1.00  0.00    -0.296 OA
ENDBRANCH  39  42
ENDBRANCH  35  38
ENDBRANCH  34  35
ENDBRANCH  33  34
ENDBRANCH   5  33
BRANCH   4  44
HETATM   44  O4  UNL     1      19.843  -5.649  35.512  1.00  0.00    -0.392 OA
ATOM     45  H4  UNL     1      19.164  -5.459  34.875  1.00  0.00     0.210 HD
ENDBRANCH   4  44
TORSDOF 12
ENDMDL
