MODEL 1
REMARK VINA RESULT: -5.409460556      0.000      0.000
REMARK  13 active torsions:
REMARK  status: ('A' for Active; 'I' for Inactive)
REMARK    1  A    between atoms: N1_1  and  C1_4 
REMARK    2  A    between atoms: C2_7  and  N3_8 
REMARK    3  A    between atoms: N3_8  and  O1_10 
REMARK    4  A    between atoms: N6_20  and  C6_21 
REMARK    5  A    between atoms: C7_23  and  C8_24 
REMARK    6  A    between atoms: C8_24  and  C9_25 
REMARK    7  A    between atoms: C8_24  and  O7_33 
REMARK    8  A    between atoms: C9_25  and  O4_26 
REMARK    9  A    between atoms: O4_26  and  S1_27 
REMARK   10  A    between atoms: S1_27  and  N7_28 
REMARK   11  A    between atoms: O7_33  and  C10_34 
REMARK   12  A    between atoms: C11_40  and  O9_41 
REMARK   13  A    between atoms: C12_43  and  O10_44 
ROOT
HETATM    1  C6  UNL     1      16.855  -5.702  37.119  1.00  0.00     0.265 C 
HETATM    2  O3  UNL     1      16.701  -5.430  38.476  1.00  0.00    -0.329 OA
HETATM    3  C7  UNL     1      16.938  -6.485  39.305  1.00  0.00     0.358 C 
HETATM    4  N9  UNL     1      15.922  -7.497  39.155  1.00  0.00    -0.017 N 
ATOM      5  H91 UNL     1      15.423  -7.679  40.025  1.00  0.00     0.283 HD
ATOM      6  H92 UNL     1      16.316  -8.427  39.019  1.00  0.00     0.283 HD
HETATM    7  C11 UNL     1      15.044  -7.114  38.091  1.00  0.00     0.355 C 
HETATM    8  C12 UNL     1      15.785  -6.746  36.821  1.00  0.00     0.223 C 
ENDROOT
BRANCH   1   9
HETATM    9  N6  UNL     1      18.112  -6.300  36.764  1.00  0.00    -0.308 N 
HETATM   10  C5  UNL     1      18.378  -7.621  36.594  1.00  0.00     0.186 A 
HETATM   11  N5  UNL     1      19.670  -7.817  36.251  1.00  0.00    -0.346 N 
HETATM   12  C4  UNL     1      20.214  -6.592  36.208  1.00  0.00     0.133 A 
ATOM     13  H5  UNL     1      20.133  -8.706  36.063  1.00  0.00     0.167 HD
HETATM   14  C3  UNL     1      21.517  -6.333  35.892  1.00  0.00     0.288 C 
HETATM   15  C13 UNL     1      19.247  -5.630  36.529  1.00  0.00     0.115 A 
HETATM   16  N4  UNL     1      22.016  -5.156  35.424  1.00  0.00    -0.152 N 
HETATM   17  O2  UNL     1      22.315  -7.283  36.055  1.00  0.00    -0.265 OA
HETATM   18  C2  UNL     1      21.430  -3.950  35.319  1.00  0.00     0.706 C 
ATOM     19  H4  UNL     1      22.983  -5.194  35.103  1.00  0.00     0.187 HD
HETATM   20  N2  UNL     1      20.276  -3.546  35.898  1.00  0.00    -0.173 N 
HETATM   21  C1  UNL     1      19.375  -4.264  36.611  1.00  0.00     0.144 C 
ATOM     22  H2  UNL     1      20.052  -2.558  35.781  1.00  0.00     0.186 HD
BRANCH  18  23
HETATM   23  N3  UNL     1      22.068  -3.120  34.579  1.00  0.00    -0.098 N 
ATOM     24  H3  UNL     1      21.860  -2.123  34.647  1.00  0.00     0.213 HD
BRANCH  23  25
HETATM   25  O1  UNL     1      23.022  -3.552  33.702  1.00  0.00    -0.276 OA
ATOM     26  H1  UNL     1      23.906  -3.739  33.995  1.00  0.00     0.245 HD
ENDBRANCH  23  25
ENDBRANCH  18  23
BRANCH  21  27
HETATM   27  N1  UNL     1      18.591  -3.650  37.420  1.00  0.00    -0.383 N 
ATOM     28  H12 UNL     1      17.589  -3.753  37.265  1.00  0.00     0.157 HD
ATOM     29  H11 UNL     1      18.996  -3.097  38.175  1.00  0.00     0.157 HD
ENDBRANCH  21  27
ENDBRANCH   1   9
BRANCH   8  30
HETATM   30  O10 UNL     1      14.785  -6.160  35.995  1.00  0.00    -0.387 OA
ATOM     31  H10 UNL     1      14.421  -6.830  35.429  1.00  0.00     0.210 HD
ENDBRANCH   8  30
BRANCH   3  32
HETATM   32  C8  UNL     1      16.842  -5.971  40.747  1.00  0.00     0.215 C 
BRANCH  32  33
HETATM   33  C9  UNL     1      15.677  -6.643  41.439  1.00  0.00     0.228 C 
BRANCH  33  34
HETATM   34  O4  UNL     1      14.529  -5.854  41.405  1.00  0.00    -0.257 OA
BRANCH  34  35
HETATM   35  S1  UNL     1      14.120  -5.273  42.907  1.00  0.00     0.355 S 
HETATM   36  O5  UNL     1      14.926  -5.988  43.960  1.00  0.00    -0.176 OA
HETATM   37  O6  UNL     1      12.645  -5.462  43.131  1.00  0.00    -0.176 OA
BRANCH  35  38
HETATM   38  N7  UNL     1      14.463  -3.589  43.064  1.00  0.00    -0.306 N 
ATOM     39  H72 UNL     1      15.257  -3.137  42.611  1.00  0.00     0.171 HD
ATOM     40  H71 UNL     1      13.782  -3.114  43.656  1.00  0.00     0.171 HD
ENDBRANCH  35  38
ENDBRANCH  34  35
ENDBRANCH  33  34
ENDBRANCH  32  33
BRANCH  32  41
HETATM   41  O7  UNL     1      16.620  -4.577  40.798  1.00  0.00    -0.294 OA
BRANCH  41  42
HETATM   42  C10 UNL     1      17.589  -3.744  41.299  1.00  0.00     0.373 C 
HETATM   43  N8  UNL     1      18.765  -3.513  40.550  1.00  0.00    -0.032 NA
HETATM   44  O8  UNL     1      17.402  -3.207  42.414  1.00  0.00    -0.242 OA
ENDBRANCH  41  42
ENDBRANCH  32  41
ENDBRANCH   3  32
BRANCH   7  45
HETATM   45  O9  UNL     1      14.341  -5.975  38.482  1.00  0.00    -0.368 OA
ATOM     46  H9  UNL     1      14.846  -5.209  38.239  1.00  0.00     0.212 HD
ENDBRANCH   7  45
TORSDOF 13
ENDMDL
MODEL 2
REMARK VINA RESULT: -5.152703969      1.733      1.969
REMARK  13 active torsions:
REMARK  status: ('A' for Active; 'I' for Inactive)
REMARK    1  A    between atoms: N1_1  and  C1_4 
REMARK    2  A    between atoms: C2_7  and  N3_8 
REMARK    3  A    between atoms: N3_8  and  O1_10 
REMARK    4  A    between atoms: N6_20  and  C6_21 
REMARK    5  A    between atoms: C7_23  and  C8_24 
REMARK    6  A    between atoms: C8_24  and  C9_25 
REMARK    7  A    between atoms: C8_24  and  O7_33 
REMARK    8  A    between atoms: C9_25  and  O4_26 
REMARK    9  A    between atoms: O4_26  and  S1_27 
REMARK   10  A    between atoms: S1_27  and  N7_28 
REMARK   11  A    between atoms: O7_33  and  C10_34 
REMARK   12  A    between atoms: C11_40  and  O9_41 
REMARK   13  A    between atoms: C12_43  and  O10_44 
ROOT
HETATM    1  C6  UNL     1      18.353  -5.630  36.313  1.00  0.00     0.265 C 
HETATM    2  O3  UNL     1      18.181  -5.227  37.634  1.00  0.00    -0.329 OA
HETATM    3  C7  UNL     1      18.471  -6.174  38.569  1.00  0.00     0.358 C 
HETATM    4  N9  UNL     1      17.511  -7.249  38.528  1.00  0.00    -0.017 N 
ATOM      5  H91 UNL     1      17.020  -7.366  39.414  1.00  0.00     0.283 HD
ATOM      6  H92 UNL     1      17.954  -8.166  38.489  1.00  0.00     0.283 HD
HETATM    7  C11 UNL     1      16.617  -7.027  37.433  1.00  0.00     0.355 C 
HETATM    8  C12 UNL     1      17.341  -6.755  36.129  1.00  0.00     0.223 C 
ENDROOT
BRANCH   1   9
HETATM    9  N6  UNL     1      19.641  -6.194  36.018  1.00  0.00    -0.308 N 
HETATM   10  C5  UNL     1      19.977  -7.510  35.984  1.00  0.00     0.186 A 
HETATM   11  N5  UNL     1      21.278  -7.671  35.661  1.00  0.00    -0.346 N 
HETATM   12  C4  UNL     1      21.758  -6.431  35.493  1.00  0.00     0.133 A 
ATOM     13  H5  UNL     1      21.788  -8.550  35.565  1.00  0.00     0.167 HD
HETATM   14  C3  UNL     1      23.047  -6.137  35.150  1.00  0.00     0.288 C 
HETATM   15  C13 UNL     1      20.740  -5.494  35.715  1.00  0.00     0.115 A 
HETATM   16  N4  UNL     1      23.485  -4.989  34.563  1.00  0.00    -0.152 N 
HETATM   17  O2  UNL     1      23.893  -7.022  35.408  1.00  0.00    -0.265 OA
HETATM   18  C2  UNL     1      22.837  -3.833  34.337  1.00  0.00     0.706 C 
ATOM     19  H4  UNL     1      24.454  -5.009  34.247  1.00  0.00     0.187 HD
HETATM   20  N2  UNL     1      21.661  -3.434  34.874  1.00  0.00    -0.173 N 
HETATM   21  C1  UNL     1      20.796  -4.121  35.657  1.00  0.00     0.144 C 
ATOM     22  H2  UNL     1      21.386  -2.476  34.656  1.00  0.00     0.186 HD
BRANCH  18  23
HETATM   23  N3  UNL     1      23.434  -3.050  33.515  1.00  0.00    -0.098 N 
ATOM     24  H3  UNL     1      24.233  -2.502  33.833  1.00  0.00     0.213 HD
BRANCH  23  25
HETATM   25  O1  UNL     1      23.012  -2.940  32.220  1.00  0.00    -0.276 OA
ATOM     26  H1  UNL     1      23.613  -2.680  31.532  1.00  0.00     0.245 HD
ENDBRANCH  23  25
ENDBRANCH  18  23
BRANCH  21  27
HETATM   27  N1  UNL     1      19.978  -3.470  36.400  1.00  0.00    -0.383 N 
ATOM     28  H12 UNL     1      20.368  -2.732  36.985  1.00  0.00     0.157 HD
ATOM     29  H11 UNL     1      18.987  -3.709  36.371  1.00  0.00     0.157 HD
ENDBRANCH  21  27
ENDBRANCH   1   9
BRANCH   8  30
HETATM   30  O10 UNL     1      16.314  -6.313  35.249  1.00  0.00    -0.387 OA
ATOM     31  H10 UNL     1      15.505  -6.223  35.739  1.00  0.00     0.210 HD
ENDBRANCH   8  30
BRANCH   3  32
HETATM   32  C8  UNL     1      18.344  -5.518  39.949  1.00  0.00     0.215 C 
BRANCH  32  33
HETATM   33  C9  UNL     1      17.218  -6.179  40.713  1.00  0.00     0.228 C 
BRANCH  33  34
HETATM   34  O4  UNL     1      16.054  -5.415  40.683  1.00  0.00    -0.257 OA
BRANCH  34  35
HETATM   35  S1  UNL     1      14.683  -6.354  40.739  1.00  0.00     0.355 S 
HETATM   36  O5  UNL     1      15.064  -7.807  40.639  1.00  0.00    -0.176 OA
HETATM   37  O6  UNL     1      13.759  -5.955  39.623  1.00  0.00    -0.176 OA
BRANCH  35  38
HETATM   38  N7  UNL     1      13.826  -6.157  42.225  1.00  0.00    -0.306 N 
ATOM     39  H72 UNL     1      14.196  -5.631  43.017  1.00  0.00     0.171 HD
ATOM     40  H71 UNL     1      12.920  -6.625  42.208  1.00  0.00     0.171 HD
ENDBRANCH  35  38
ENDBRANCH  34  35
ENDBRANCH  33  34
ENDBRANCH  32  33
BRANCH  32  41
HETATM   41  O7  UNL     1      18.042  -4.141  39.854  1.00  0.00    -0.294 OA
BRANCH  41  42
HETATM   42  C10 UNL     1      18.934  -3.208  40.322  1.00  0.00     0.373 C 
HETATM   43  N8  UNL     1      20.035  -2.832  39.520  1.00  0.00    -0.032 NA
HETATM   44  O8  UNL     1      18.745  -2.713  41.456  1.00  0.00    -0.242 OA
ENDBRANCH  41  42
ENDBRANCH  32  41
ENDBRANCH   3  32
BRANCH   7  45
HETATM   45  O9  UNL     1      15.853  -5.893  37.704  1.00  0.00    -0.368 OA
ATOM     46  H9  UNL     1      15.514  -5.553  36.884  1.00  0.00     0.212 HD
ENDBRANCH   7  45
TORSDOF 13
ENDMDL
MODEL 3
REMARK VINA RESULT: -5.106739914      4.047      6.900
REMARK  13 active torsions:
REMARK  status: ('A' for Active; 'I' for Inactive)
REMARK    1  A    between atoms: N1_1  and  C1_4 
REMARK    2  A    between atoms: C2_7  and  N3_8 
REMARK    3  A    between atoms: N3_8  and  O1_10 
REMARK    4  A    between atoms: N6_20  and  C6_21 
REMARK    5  A    between atoms: C7_23  and  C8_24 
REMARK    6  A    between atoms: C8_24  and  C9_25 
REMARK    7  A    between atoms: C8_24  and  O7_33 
REMARK    8  A    between atoms: C9_25  and  O4_26 
REMARK    9  A    between atoms: O4_26  and  S1_27 
REMARK   10  A    between atoms: S1_27  and  N7_28 
REMARK   11  A    between atoms: O7_33  and  C10_34 
REMARK   12  A    between atoms: C11_40  and  O9_41 
REMARK   13  A    between atoms: C12_43  and  O10_44 
ROOT
HETATM    1  C6  UNL     1      19.688  -3.779  40.258  1.00  0.00     0.265 C 
HETATM    2  O3  UNL     1      20.252  -2.585  39.819  1.00  0.00    -0.329 OA
HETATM    3  C7  UNL     1      21.599  -2.620  39.624  1.00  0.00     0.358 C 
HETATM    4  N9  UNL     1      22.298  -2.758  40.878  1.00  0.00    -0.017 N 
ATOM      5  H91 UNL     1      22.935  -1.982  41.056  1.00  0.00     0.283 HD
ATOM      6  H92 UNL     1      22.989  -3.508  40.858  1.00  0.00     0.283 HD
HETATM    7  C11 UNL     1      21.337  -2.928  41.925  1.00  0.00     0.355 C 
HETATM    8  C12 UNL     1      20.325  -4.016  41.622  1.00  0.00     0.223 C 
ENDROOT
BRANCH   1   9
HETATM    9  N6  UNL     1      20.012  -4.928  39.457  1.00  0.00    -0.308 N 
HETATM   10  C5  UNL     1      20.989  -5.843  39.685  1.00  0.00     0.186 A 
HETATM   11  N5  UNL     1      20.996  -6.795  38.727  1.00  0.00    -0.346 N 
HETATM   12  C4  UNL     1      20.006  -6.461  37.888  1.00  0.00     0.133 A 
ATOM     13  H5  UNL     1      21.623  -7.598  38.656  1.00  0.00     0.167 HD
HETATM   14  C3  UNL     1      19.662  -7.168  36.771  1.00  0.00     0.288 C 
HETATM   15  C13 UNL     1      19.379  -5.289  38.335  1.00  0.00     0.115 A 
HETATM   16  N4  UNL     1      18.457  -7.145  36.139  1.00  0.00    -0.152 N 
HETATM   17  O2  UNL     1      20.558  -7.904  36.298  1.00  0.00    -0.265 OA
HETATM   18  C2  UNL     1      17.399  -6.337  36.326  1.00  0.00     0.706 C 
ATOM     19  H4  UNL     1      18.338  -7.849  35.411  1.00  0.00     0.187 HD
HETATM   20  N2  UNL     1      17.368  -5.173  37.016  1.00  0.00    -0.173 N 
HETATM   21  C1  UNL     1      18.330  -4.599  37.775  1.00  0.00     0.144 C 
ATOM     22  H2  UNL     1      16.492  -4.653  36.954  1.00  0.00     0.186 HD
BRANCH  18  23
HETATM   23  N3  UNL     1      16.319  -6.751  35.774  1.00  0.00    -0.098 N 
ATOM     24  H3  UNL     1      16.304  -7.666  35.323  1.00  0.00     0.213 HD
BRANCH  23  25
HETATM   25  O1  UNL     1      15.189  -5.984  35.781  1.00  0.00    -0.276 OA
ATOM     26  H1  UNL     1      14.635  -5.925  35.011  1.00  0.00     0.245 HD
ENDBRANCH  23  25
ENDBRANCH  18  23
BRANCH  21  27
HETATM   27  N1  UNL     1      18.280  -3.335  37.992  1.00  0.00    -0.383 N 
ATOM     28  H12 UNL     1      18.474  -2.720  37.202  1.00  0.00     0.157 HD
ATOM     29  H11 UNL     1      18.047  -3.003  38.927  1.00  0.00     0.157 HD
ENDBRANCH  21  27
ENDBRANCH   1   9
BRANCH   8  30
HETATM   30  O10 UNL     1      19.333  -3.854  42.630  1.00  0.00    -0.387 OA
ATOM     31  H10 UNL     1      18.474  -3.945  42.234  1.00  0.00     0.210 HD
ENDBRANCH   8  30
BRANCH   3  32
HETATM   32  C8  UNL     1      22.018  -1.269  39.031  1.00  0.00     0.215 C 
BRANCH  32  33
HETATM   33  C9  UNL     1      21.052  -0.201  39.493  1.00  0.00     0.228 C 
BRANCH  33  34
HETATM   34  O4  UNL     1      21.652   1.055  39.540  1.00  0.00    -0.257 OA
BRANCH  34  35
HETATM   35  S1  UNL     1      20.998   2.107  38.431  1.00  0.00     0.355 S 
HETATM   36  O5  UNL     1      22.104   2.753  37.638  1.00  0.00    -0.176 OA
HETATM   37  O6  UNL     1      20.169   3.136  39.147  1.00  0.00    -0.176 OA
BRANCH  35  38
HETATM   38  N7  UNL     1      19.972   1.299  37.302  1.00  0.00    -0.306 N 
ATOM     39  H72 UNL     1      19.254   1.778  36.759  1.00  0.00     0.171 HD
ATOM     40  H71 UNL     1      20.173   0.300  37.250  1.00  0.00     0.171 HD
ENDBRANCH  35  38
ENDBRANCH  34  35
ENDBRANCH  33  34
ENDBRANCH  32  33
BRANCH  32  41
HETATM   41  O7  UNL     1      21.994  -1.282  37.618  1.00  0.00    -0.294 OA
BRANCH  41  42
HETATM   42  C10 UNL     1      22.200  -2.456  36.937  1.00  0.00     0.373 C 
HETATM   43  N8  UNL     1      23.504  -2.991  36.850  1.00  0.00    -0.032 NA
HETATM   44  O8  UNL     1      21.217  -3.025  36.410  1.00  0.00    -0.242 OA
ENDBRANCH  41  42
ENDBRANCH  32  41
ENDBRANCH   3  32
BRANCH   7  45
HETATM   45  O9  UNL     1      20.614  -1.744  42.062  1.00  0.00    -0.368 OA
ATOM     46  H9  UNL     1      19.701  -1.962  42.209  1.00  0.00     0.212 HD
ENDBRANCH   7  45
TORSDOF 13
ENDMDL
MODEL 4
REMARK VINA RESULT: -5.100084952      1.006      1.122
REMARK  13 active torsions:
REMARK  status: ('A' for Active; 'I' for Inactive)
REMARK    1  A    between atoms: N1_1  and  C1_4 
REMARK    2  A    between atoms: C2_7  and  N3_8 
REMARK    3  A    between atoms: N3_8  and  O1_10 
REMARK    4  A    between atoms: N6_20  and  C6_21 
REMARK    5  A    between atoms: C7_23  and  C8_24 
REMARK    6  A    between atoms: C8_24  and  C9_25 
REMARK    7  A    between atoms: C8_24  and  O7_33 
REMARK    8  A    between atoms: C9_25  and  O4_26 
REMARK    9  A    between atoms: O4_26  and  S1_27 
REMARK   10  A    between atoms: S1_27  and  N7_28 
REMARK   11  A    between atoms: O7_33  and  C10_34 
REMARK   12  A    between atoms: C11_40  and  O9_41 
REMARK   13  A    between atoms: C12_43  and  O10_44 
ROOT
HETATM    1  C6  UNL     1      16.834  -5.727  37.125  1.00  0.00     0.265 C 
HETATM    2  O3  UNL     1      16.687  -5.446  38.480  1.00  0.00    -0.329 OA
HETATM    3  C7  UNL     1      16.933  -6.493  39.316  1.00  0.00     0.358 C 
HETATM    4  N9  UNL     1      15.920  -7.511  39.179  1.00  0.00    -0.017 N 
ATOM      5  H91 UNL     1      15.427  -7.689  40.053  1.00  0.00     0.283 HD
ATOM      6  H92 UNL     1      16.318  -8.440  39.048  1.00  0.00     0.283 HD
HETATM    7  C11 UNL     1      15.035  -7.140  38.118  1.00  0.00     0.355 C 
HETATM    8  C12 UNL     1      15.767  -6.778  36.841  1.00  0.00     0.223 C 
ENDROOT
BRANCH   1   9
HETATM    9  N6  UNL     1      18.092  -6.322  36.766  1.00  0.00    -0.308 N 
HETATM   10  C5  UNL     1      18.362  -7.643  36.601  1.00  0.00     0.186 A 
HETATM   11  N5  UNL     1      19.653  -7.836  36.253  1.00  0.00    -0.346 N 
HETATM   12  C4  UNL     1      20.193  -6.610  36.204  1.00  0.00     0.133 A 
ATOM     13  H5  UNL     1      20.118  -8.725  36.068  1.00  0.00     0.167 HD
HETATM   14  C3  UNL     1      21.494  -6.347  35.881  1.00  0.00     0.288 C 
HETATM   15  C13 UNL     1      19.223  -5.650  36.524  1.00  0.00     0.115 A 
HETATM   16  N4  UNL     1      21.986  -5.170  35.406  1.00  0.00    -0.152 N 
HETATM   17  O2  UNL     1      22.296  -7.294  36.045  1.00  0.00    -0.265 OA
HETATM   18  C2  UNL     1      21.396  -3.967  35.299  1.00  0.00     0.706 C 
ATOM     19  H4  UNL     1      22.952  -5.206  35.082  1.00  0.00     0.187 HD
HETATM   20  N2  UNL     1      20.243  -3.565  35.881  1.00  0.00    -0.173 N 
HETATM   21  C1  UNL     1      19.347  -4.283  36.600  1.00  0.00     0.144 C 
ATOM     22  H2  UNL     1      20.014  -2.578  35.761  1.00  0.00     0.186 HD
BRANCH  18  23
HETATM   23  N3  UNL     1      22.028  -3.138  34.553  1.00  0.00    -0.098 N 
ATOM     24  H3  UNL     1      21.800  -2.145  34.599  1.00  0.00     0.213 HD
BRANCH  23  25
HETATM   25  O1  UNL     1      23.003  -3.567  33.697  1.00  0.00    -0.276 OA
ATOM     26  H1  UNL     1      22.846  -4.291  33.103  1.00  0.00     0.245 HD
ENDBRANCH  23  25
ENDBRANCH  18  23
BRANCH  21  27
HETATM   27  N1  UNL     1      18.564  -3.668  37.410  1.00  0.00    -0.383 N 
ATOM     28  H12 UNL     1      18.285  -2.721  37.157  1.00  0.00     0.157 HD
ATOM     29  H11 UNL     1      18.255  -4.145  38.256  1.00  0.00     0.157 HD
ENDBRANCH  21  27
ENDBRANCH   1   9
BRANCH   8  30
HETATM   30  O10 UNL     1      14.760  -6.203  36.016  1.00  0.00    -0.387 OA
ATOM     31  H10 UNL     1      14.804  -6.599  35.153  1.00  0.00     0.210 HD
ENDBRANCH   8  30
BRANCH   3  32
HETATM   32  C8  UNL     1      16.842  -5.969  40.754  1.00  0.00     0.215 C 
BRANCH  32  33
HETATM   33  C9  UNL     1      15.665  -6.618  41.448  1.00  0.00     0.228 C 
BRANCH  33  34
HETATM   34  O4  UNL     1      14.544  -5.792  41.445  1.00  0.00    -0.257 OA
BRANCH  34  35
HETATM   35  S1  UNL     1      13.167  -6.598  41.914  1.00  0.00     0.355 S 
HETATM   36  O5  UNL     1      12.372  -5.730  42.854  1.00  0.00    -0.176 OA
HETATM   37  O6  UNL     1      13.547  -7.898  42.566  1.00  0.00    -0.176 OA
BRANCH  35  38
HETATM   38  N7  UNL     1      12.144  -6.962  40.573  1.00  0.00    -0.306 N 
ATOM     39  H72 UNL     1      12.156  -7.860  40.089  1.00  0.00     0.171 HD
ATOM     40  H71 UNL     1      11.537  -6.179  40.332  1.00  0.00     0.171 HD
ENDBRANCH  35  38
ENDBRANCH  34  35
ENDBRANCH  33  34
ENDBRANCH  32  33
BRANCH  32  41
HETATM   41  O7  UNL     1      16.643  -4.571  40.796  1.00  0.00    -0.294 OA
BRANCH  41  42
HETATM   42  C10 UNL     1      17.626  -3.751  41.293  1.00  0.00     0.373 C 
HETATM   43  N8  UNL     1      18.816  -3.562  40.555  1.00  0.00    -0.032 NA
HETATM   44  O8  UNL     1      17.438  -3.189  42.396  1.00  0.00    -0.242 OA
ENDBRANCH  41  42
ENDBRANCH  32  41
ENDBRANCH   3  32
BRANCH   7  45
HETATM   45  O9  UNL     1      14.329  -6.002  38.503  1.00  0.00    -0.368 OA
ATOM     46  H9  UNL     1      13.484  -6.270  38.846  1.00  0.00     0.212 HD
ENDBRANCH   7  45
TORSDOF 13
ENDMDL
MODEL 5
REMARK VINA RESULT: -5.089193793      4.988      7.432
REMARK  13 active torsions:
REMARK  status: ('A' for Active; 'I' for Inactive)
REMARK    1  A    between atoms: N1_1  and  C1_4 
REMARK    2  A    between atoms: C2_7  and  N3_8 
REMARK    3  A    between atoms: N3_8  and  O1_10 
REMARK    4  A    between atoms: N6_20  and  C6_21 
REMARK    5  A    between atoms: C7_23  and  C8_24 
REMARK    6  A    between atoms: C8_24  and  C9_25 
REMARK    7  A    between atoms: C8_24  and  O7_33 
REMARK    8  A    between atoms: C9_25  and  O4_26 
REMARK    9  A    between atoms: O4_26  and  S1_27 
REMARK   10  A    between atoms: S1_27  and  N7_28 
REMARK   11  A    between atoms: O7_33  and  C10_34 
REMARK   12  A    between atoms: C11_40  and  O9_41 
REMARK   13  A    between atoms: C12_43  and  O10_44 
ROOT
HETATM    1  C6  UNL     1      12.188  -8.249  35.861  1.00  0.00     0.265 C 
HETATM    2  O3  UNL     1      13.366  -7.703  36.363  1.00  0.00    -0.329 OA
HETATM    3  C7  UNL     1      13.719  -8.137  37.605  1.00  0.00     0.358 C 
HETATM    4  N9  UNL     1      12.797  -7.653  38.602  1.00  0.00    -0.017 N 
ATOM      5  H91 UNL     1      13.255  -7.083  39.312  1.00  0.00     0.283 HD
ATOM      6  H92 UNL     1      12.459  -8.396  39.212  1.00  0.00     0.283 HD
HETATM    7  C11 UNL     1      11.732  -6.958  37.946  1.00  0.00     0.355 C 
HETATM    8  C12 UNL     1      11.109  -7.763  36.822  1.00  0.00     0.223 C 
ENDROOT
BRANCH   1   9
HETATM    9  N6  UNL     1      12.133  -9.685  35.885  1.00  0.00    -0.308 N 
HETATM   10  C5  UNL     1      11.605 -10.474  36.857  1.00  0.00     0.186 A 
HETATM   11  N5  UNL     1      11.719 -11.781  36.537  1.00  0.00    -0.346 N 
HETATM   12  C4  UNL     1      12.331 -11.802  35.345  1.00  0.00     0.133 A 
ATOM     13  H5  UNL     1      11.407 -12.582  37.086  1.00  0.00     0.167 HD
HETATM   14  C3  UNL     1      12.638 -12.937  34.650  1.00  0.00     0.288 C 
HETATM   15  C13 UNL     1      12.597 -10.492  34.924  1.00  0.00     0.115 A 
HETATM   16  N4  UNL     1      12.852 -13.029  33.309  1.00  0.00    -0.152 N 
HETATM   17  O2  UNL     1      12.728 -13.983  35.331  1.00  0.00    -0.265 OA
HETATM   18  C2  UNL     1      12.985 -12.061  32.386  1.00  0.00     0.706 C 
ATOM     19  H4  UNL     1      12.923 -13.981  32.948  1.00  0.00     0.187 HD
HETATM   20  N2  UNL     1      13.199 -10.743  32.606  1.00  0.00    -0.173 N 
HETATM   21  C1  UNL     1      13.212 -10.058  33.774  1.00  0.00     0.144 C 
ATOM     22  H2  UNL     1      13.376 -10.185  31.770  1.00  0.00     0.186 HD
BRANCH  18  23
HETATM   23  N3  UNL     1      12.892 -12.474  31.176  1.00  0.00    -0.098 N 
ATOM     24  H3  UNL     1      12.048 -12.273  30.639  1.00  0.00     0.213 HD
BRANCH  23  25
HETATM   25  O1  UNL     1      13.908 -13.179  30.595  1.00  0.00    -0.276 OA
ATOM     26  H1  UNL     1      13.867 -13.429  29.680  1.00  0.00     0.245 HD
ENDBRANCH  23  25
ENDBRANCH  18  23
BRANCH  21  27
HETATM   27  N1  UNL     1      13.836  -8.938  33.830  1.00  0.00    -0.383 N 
ATOM     28  H12 UNL     1      13.304  -8.124  34.135  1.00  0.00     0.157 HD
ATOM     29  H11 UNL     1      14.824  -8.910  33.577  1.00  0.00     0.157 HD
ENDBRANCH  21  27
ENDBRANCH   1   9
BRANCH   8  30
HETATM   30  O10 UNL     1      10.277  -6.827  36.146  1.00  0.00    -0.387 OA
ATOM     31  H10 UNL     1       9.802  -6.315  36.790  1.00  0.00     0.210 HD
ENDBRANCH   8  30
BRANCH   3  32
HETATM   32  C8  UNL     1      15.088  -7.529  37.936  1.00  0.00     0.215 C 
BRANCH  32  33
HETATM   33  C9  UNL     1      15.214  -7.373  39.435  1.00  0.00     0.228 C 
BRANCH  33  34
HETATM   34  O4  UNL     1      15.103  -6.042  39.829  1.00  0.00    -0.257 OA
BRANCH  34  35
HETATM   35  S1  UNL     1      14.544  -5.891  41.387  1.00  0.00     0.355 S 
HETATM   36  O5  UNL     1      13.114  -6.356  41.457  1.00  0.00    -0.176 OA
HETATM   37  O6  UNL     1      14.672  -4.459  41.827  1.00  0.00    -0.176 OA
BRANCH  35  38
HETATM   38  N7  UNL     1      15.447  -6.861  42.493  1.00  0.00    -0.306 N 
ATOM     39  H72 UNL     1      16.342  -6.573  42.887  1.00  0.00     0.171 HD
ATOM     40  H71 UNL     1      14.977  -7.743  42.698  1.00  0.00     0.171 HD
ENDBRANCH  35  38
ENDBRANCH  34  35
ENDBRANCH  33  34
ENDBRANCH  32  33
BRANCH  32  41
HETATM   41  O7  UNL     1      15.251  -6.249  37.360  1.00  0.00    -0.294 OA
BRANCH  41  42
HETATM   42  C10 UNL     1      16.443  -5.907  36.770  1.00  0.00     0.373 C 
HETATM   43  N8  UNL     1      16.919  -6.660  35.674  1.00  0.00    -0.032 NA
HETATM   44  O8  UNL     1      17.079  -4.929  37.224  1.00  0.00    -0.242 OA
ENDBRANCH  41  42
ENDBRANCH  32  41
ENDBRANCH   3  32
BRANCH   7  45
HETATM   45  O9  UNL     1      12.247  -5.801  37.363  1.00  0.00    -0.368 OA
ATOM     46  H9  UNL     1      12.045  -5.813  36.435  1.00  0.00     0.212 HD
ENDBRANCH   7  45
TORSDOF 13
ENDMDL
