MODEL 1
REMARK VINA RESULT: -5.312573441      0.000      0.000
REMARK  2 active torsions:
REMARK  status: ('A' for Active; 'I' for Inactive)
REMARK    1  A    between atoms: N1_1  and  C1_4 
REMARK    2  A    between atoms: N3_9  and  C4_10 
ROOT
HETATM    1  C4  UNL     1      -3.303  36.846  -3.024  1.00  0.00     0.710 A 
HETATM    2  N4  UNL     1      -2.139  36.328  -2.552  1.00  0.00    -0.186 N 
ATOM      3  H4  UNL     1      -1.431  36.023  -3.219  1.00  0.00     0.185 HD
HETATM    4  C5  UNL     1      -1.888  36.205  -1.238  1.00  0.00     0.202 A 
HETATM    5  N5  UNL     1      -2.803  36.600  -0.332  1.00  0.00    -0.304 N 
ATOM      6  H5  UNL     1      -2.624  36.512   0.668  1.00  0.00     0.171 HD
HETATM    7  C6  UNL     1      -3.975  37.121  -0.795  1.00  0.00     0.339 A 
HETATM    8  O1  UNL     1      -4.815  37.484   0.069  1.00  0.00    -0.246 OA
HETATM    9  N6  UNL     1      -4.208  37.237  -2.108  1.00  0.00    -0.139 N 
ATOM     10  H6  UNL     1      -5.094  37.632  -2.423  1.00  0.00     0.189 HD
ENDROOT
BRANCH   1  11
HETATM   11  N3  UNL     1      -3.547  36.967  -4.429  1.00  0.00    -0.070 N 
HETATM   12  C1  UNL     1      -4.480  36.331  -5.137  1.00  0.00     0.140 A 
HETATM   13  C2  UNL     1      -4.391  36.723  -6.475  1.00  0.00     0.069 A 
HETATM   14  C3  UNL     1      -3.349  37.628  -6.503  1.00  0.00     0.112 A 
HETATM   15  N2  UNL     1      -2.863  37.750  -5.252  1.00  0.00    -0.289 N 
ATOM     16  H2  UNL     1      -2.088  38.353  -4.980  1.00  0.00     0.187 HD
BRANCH  12  17
HETATM   17  N1  UNL     1      -5.352  35.479  -4.705  1.00  0.00    -0.383 N 
ATOM     18  H12 UNL     1      -5.206  34.489  -4.507  1.00  0.00     0.157 HD
ATOM     19  H11 UNL     1      -6.323  35.723  -4.510  1.00  0.00     0.157 HD
ENDBRANCH  12  17
ENDBRANCH   1  11
TORSDOF 2
ENDMDL
MODEL 2
REMARK VINA RESULT: -5.140301392      2.685      3.636
REMARK  2 active torsions:
REMARK  status: ('A' for Active; 'I' for Inactive)
REMARK    1  A    between atoms: N1_1  and  C1_4 
REMARK    2  A    between atoms: N3_9  and  C4_10 
ROOT
HETATM    1  C4  UNL     1      -2.627  37.519  -2.408  1.00  0.00     0.710 A 
HETATM    2  N4  UNL     1      -2.615  38.644  -1.647  1.00  0.00    -0.186 N 
ATOM      3  H4  UNL     1      -3.495  38.989  -1.263  1.00  0.00     0.185 HD
HETATM    4  C5  UNL     1      -1.483  39.319  -1.381  1.00  0.00     0.202 A 
HETATM    5  N5  UNL     1      -0.305  38.889  -1.872  1.00  0.00    -0.304 N 
ATOM      6  H5  UNL     1       0.560  39.392  -1.678  1.00  0.00     0.171 HD
HETATM    7  C6  UNL     1      -0.307  37.760  -2.637  1.00  0.00     0.339 A 
HETATM    8  O1  UNL     1       0.805  37.376  -3.085  1.00  0.00    -0.246 OA
HETATM    9  N6  UNL     1      -1.444  37.100  -2.892  1.00  0.00    -0.139 N 
ATOM     10  H6  UNL     1      -1.412  36.258  -3.467  1.00  0.00     0.189 HD
ENDROOT
BRANCH   1  11
HETATM   11  N3  UNL     1      -3.846  36.818  -2.676  1.00  0.00    -0.070 N 
HETATM   12  C1  UNL     1      -4.740  36.396  -1.783  1.00  0.00     0.140 A 
HETATM   13  C2  UNL     1      -5.789  35.755  -2.446  1.00  0.00     0.069 A 
HETATM   14  C3  UNL     1      -5.452  35.832  -3.783  1.00  0.00     0.112 A 
HETATM   15  N2  UNL     1      -4.275  36.478  -3.885  1.00  0.00    -0.289 N 
ATOM     16  H2  UNL     1      -3.786  36.675  -4.758  1.00  0.00     0.187 HD
BRANCH  12  17
HETATM   17  N1  UNL     1      -4.692  36.531  -0.498  1.00  0.00    -0.383 N 
ATOM     18  H12 UNL     1      -3.886  36.793   0.069  1.00  0.00     0.157 HD
ATOM     19  H11 UNL     1      -5.498  36.380   0.110  1.00  0.00     0.157 HD
ENDBRANCH  12  17
ENDBRANCH   1  11
TORSDOF 2
ENDMDL
MODEL 3
REMARK VINA RESULT: -5.086198171      2.289      2.921
REMARK  2 active torsions:
REMARK  status: ('A' for Active; 'I' for Inactive)
REMARK    1  A    between atoms: N1_1  and  C1_4 
REMARK    2  A    between atoms: N3_9  and  C4_10 
ROOT
HETATM    1  C4  UNL     1      -2.692  37.593  -1.682  1.00  0.00     0.710 A 
HETATM    2  N4  UNL     1      -1.707  36.871  -1.085  1.00  0.00    -0.186 N 
ATOM      3  H4  UNL     1      -1.695  35.859  -1.209  1.00  0.00     0.185 HD
HETATM    4  C5  UNL     1      -0.749  37.445  -0.337  1.00  0.00     0.202 A 
HETATM    5  N5  UNL     1      -0.737  38.778  -0.155  1.00  0.00    -0.304 N 
ATOM      6  H5  UNL     1      -0.015  39.226   0.409  1.00  0.00     0.171 HD
HETATM    7  C6  UNL     1      -1.721  39.512  -0.751  1.00  0.00     0.339 A 
HETATM    8  O1  UNL     1      -1.690  40.757  -0.567  1.00  0.00    -0.246 OA
HETATM    9  N6  UNL     1      -2.667  38.924  -1.492  1.00  0.00    -0.139 N 
ATOM     10  H6  UNL     1      -3.389  39.501  -1.925  1.00  0.00     0.189 HD
ENDROOT
BRANCH   1  11
HETATM   11  N3  UNL     1      -3.701  36.959  -2.473  1.00  0.00    -0.070 N 
HETATM   12  C1  UNL     1      -4.819  36.380  -2.033  1.00  0.00     0.140 A 
HETATM   13  C2  UNL     1      -5.539  35.879  -3.120  1.00  0.00     0.069 A 
HETATM   14  C3  UNL     1      -4.773  36.203  -4.222  1.00  0.00     0.112 A 
HETATM   15  N2  UNL     1      -3.672  36.852  -3.795  1.00  0.00    -0.289 N 
ATOM     16  H2  UNL     1      -2.930  37.208  -4.397  1.00  0.00     0.187 HD
BRANCH  12  17
HETATM   17  N1  UNL     1      -5.218  36.273  -0.808  1.00  0.00    -0.383 N 
ATOM     18  H12 UNL     1      -5.108  35.470  -0.188  1.00  0.00     0.157 HD
ATOM     19  H11 UNL     1      -5.710  37.017  -0.313  1.00  0.00     0.157 HD
ENDBRANCH  12  17
ENDBRANCH   1  11
TORSDOF 2
ENDMDL
MODEL 4
REMARK VINA RESULT: -5.065861845      1.117      1.653
REMARK  2 active torsions:
REMARK  status: ('A' for Active; 'I' for Inactive)
REMARK    1  A    between atoms: N1_1  and  C1_4 
REMARK    2  A    between atoms: N3_9  and  C4_10 
ROOT
HETATM    1  C4  UNL     1      -3.792  36.861  -2.921  1.00  0.00     0.710 A 
HETATM    2  N4  UNL     1      -4.950  36.859  -2.210  1.00  0.00    -0.186 N 
ATOM      3  H4  UNL     1      -5.836  36.873  -2.715  1.00  0.00     0.185 HD
HETATM    4  C5  UNL     1      -4.968  36.840  -0.867  1.00  0.00     0.202 A 
HETATM    5  N5  UNL     1      -3.815  36.821  -0.172  1.00  0.00    -0.304 N 
ATOM      6  H5  UNL     1      -3.815  36.806   0.847  1.00  0.00     0.171 HD
HETATM    7  C6  UNL     1      -2.647  36.822  -0.876  1.00  0.00     0.339 A 
HETATM    8  O1  UNL     1      -1.581  36.804  -0.206  1.00  0.00    -0.246 OA
HETATM    9  N6  UNL     1      -2.647  36.841  -2.215  1.00  0.00    -0.139 N 
ATOM     10  H6  UNL     1      -1.757  36.840  -2.712  1.00  0.00     0.189 HD
ENDROOT
BRANCH   1  11
HETATM   11  N3  UNL     1      -3.798  36.881  -4.352  1.00  0.00    -0.070 N 
HETATM   12  C1  UNL     1      -4.598  36.183  -5.159  1.00  0.00     0.140 A 
HETATM   13  C2  UNL     1      -4.289  36.483  -6.487  1.00  0.00     0.069 A 
HETATM   14  C3  UNL     1      -3.260  37.401  -6.405  1.00  0.00     0.112 A 
HETATM   15  N2  UNL     1      -2.990  37.616  -5.103  1.00  0.00    -0.289 N 
ATOM     16  H2  UNL     1      -2.273  38.249  -4.749  1.00  0.00     0.187 HD
BRANCH  12  17
HETATM   17  N1  UNL     1      -5.526  35.349  -4.818  1.00  0.00    -0.383 N 
ATOM     18  H12 UNL     1      -6.350  35.084  -5.358  1.00  0.00     0.157 HD
ATOM     19  H11 UNL     1      -5.528  34.848  -3.930  1.00  0.00     0.157 HD
ENDBRANCH  12  17
ENDBRANCH   1  11
TORSDOF 2
ENDMDL
MODEL 5
REMARK VINA RESULT: -5.042746277      2.417      3.278
REMARK  2 active torsions:
REMARK  status: ('A' for Active; 'I' for Inactive)
REMARK    1  A    between atoms: N1_1  and  C1_4 
REMARK    2  A    between atoms: N3_9  and  C4_10 
ROOT
HETATM    1  C4  UNL     1      -2.769  37.803  -2.077  1.00  0.00     0.710 A 
HETATM    2  N4  UNL     1      -2.261  38.795  -2.855  1.00  0.00    -0.186 N 
ATOM      3  H4  UNL     1      -2.683  38.970  -3.767  1.00  0.00     0.185 HD
HETATM    4  C5  UNL     1      -1.223  39.553  -2.464  1.00  0.00     0.202 A 
HETATM    5  N5  UNL     1      -0.645  39.348  -1.265  1.00  0.00    -0.304 N 
ATOM      6  H5  UNL     1       0.144  39.916  -0.957  1.00  0.00     0.171 HD
HETATM    7  C6  UNL     1      -1.148  38.355  -0.477  1.00  0.00     0.339 A 
HETATM    8  O1  UNL     1      -0.592  38.180   0.639  1.00  0.00    -0.246 OA
HETATM    9  N6  UNL     1      -2.183  37.609  -0.882  1.00  0.00    -0.139 N 
ATOM     10  H6  UNL     1      -2.536  36.875  -0.269  1.00  0.00     0.189 HD
ENDROOT
BRANCH   1  11
HETATM   11  N3  UNL     1      -3.876  37.009  -2.515  1.00  0.00    -0.070 N 
HETATM   12  C1  UNL     1      -4.852  36.509  -1.758  1.00  0.00     0.140 A 
HETATM   13  C2  UNL     1      -5.741  35.793  -2.563  1.00  0.00     0.069 A 
HETATM   14  C3  UNL     1      -5.223  35.908  -3.838  1.00  0.00     0.112 A 
HETATM   15  N2  UNL     1      -4.099  36.647  -3.772  1.00  0.00    -0.289 N 
ATOM     16  H2  UNL     1      -3.508  36.891  -4.567  1.00  0.00     0.187 HD
BRANCH  12  17
HETATM   17  N1  UNL     1      -5.000  36.636  -0.480  1.00  0.00    -0.383 N 
ATOM     18  H12 UNL     1      -4.537  36.099   0.254  1.00  0.00     0.157 HD
ATOM     19  H11 UNL     1      -5.627  37.319  -0.055  1.00  0.00     0.157 HD
ENDBRANCH  12  17
ENDBRANCH   1  11
TORSDOF 2
ENDMDL
