MODEL 1
REMARK VINA RESULT: -5.285182307      0.000      0.000
REMARK  3 active torsions:
REMARK  status: ('A' for Active; 'I' for Inactive)
REMARK    1  A    between atoms: N1_1  and  C1_4 
REMARK    2  A    between atoms: C2_7  and  C3_8 
REMARK    3  A    between atoms: N5_12  and  O1_13 
ROOT
HETATM    1  C1  UNL     1      -3.739  36.292  -1.325  1.00  0.00     0.676 A 
HETATM    2  N2  UNL     1      -3.394  36.567  -2.611  1.00  0.00    -0.188 N 
ATOM      3  H2  UNL     1      -2.442  36.863  -2.822  1.00  0.00     0.184 HD
HETATM    4  C2  UNL     1      -4.285  36.457  -3.612  1.00  0.00     0.097 A 
HETATM    5  C4  UNL     1      -5.563  36.054  -3.283  1.00  0.00     0.051 A 
HETATM    6  C5  UNL     1      -5.920  35.770  -1.966  1.00  0.00     0.108 A 
HETATM    7  N7  UNL     1      -4.992  35.901  -1.033  1.00  0.00    -0.202 N 
ATOM      8  H7  UNL     1      -5.234  35.699  -0.063  1.00  0.00     0.183 HD
ENDROOT
BRANCH   4   9
HETATM    9  C3  UNL     1      -3.928  36.748  -4.989  1.00  0.00     0.164 A 
HETATM   10  N3  UNL     1      -2.989  37.614  -5.407  1.00  0.00    -0.263 N 
HETATM   11  N4  UNL     1      -2.934  37.624  -6.729  1.00  0.00     0.025 NA
ATOM     12  H3  UNL     1      -2.404  38.182  -4.795  1.00  0.00     0.186 HD
HETATM   13  N5  UNL     1      -3.835  36.765  -7.173  1.00  0.00    -0.077 N 
HETATM   14  N6  UNL     1      -4.443  36.229  -6.116  1.00  0.00    -0.242 N 
ATOM     15  H6  UNL     1      -5.187  35.532  -6.156  1.00  0.00     0.192 HD
BRANCH  13  16
HETATM   16  O1  UNL     1      -4.082  36.493  -8.493  1.00  0.00    -0.255 OA
ATOM     17  H1  UNL     1      -4.742  36.920  -9.025  1.00  0.00     0.248 HD
ENDBRANCH  13  16
ENDBRANCH   4   9
BRANCH   1  18
HETATM   18  N1  UNL     1      -2.909  36.391  -0.355  1.00  0.00    -0.234 N 
ATOM     19  H12 UNL     1      -1.924  36.515  -0.589  1.00  0.00     0.174 HD
ATOM     20  H11 UNL     1      -3.200  36.348   0.621  1.00  0.00     0.174 HD
ENDBRANCH   1  18
TORSDOF 3
ENDMDL
MODEL 2
REMARK VINA RESULT: -5.212896526      2.801      5.126
REMARK  3 active torsions:
REMARK  status: ('A' for Active; 'I' for Inactive)
REMARK    1  A    between atoms: N1_1  and  C1_4 
REMARK    2  A    between atoms: C2_7  and  C3_8 
REMARK    3  A    between atoms: N5_12  and  O1_13 
ROOT
HETATM    1  C1  UNL     1      -2.316  37.311  -5.958  1.00  0.00     0.676 A 
HETATM    2  N2  UNL     1      -2.798  37.312  -4.686  1.00  0.00    -0.188 N 
ATOM      3  H2  UNL     1      -2.279  37.798  -3.955  1.00  0.00     0.184 HD
HETATM    4  C2  UNL     1      -3.945  36.687  -4.373  1.00  0.00     0.097 A 
HETATM    5  C4  UNL     1      -4.616  36.042  -5.392  1.00  0.00     0.051 A 
HETATM    6  C5  UNL     1      -4.126  36.039  -6.696  1.00  0.00     0.108 A 
HETATM    7  N7  UNL     1      -2.991  36.675  -6.931  1.00  0.00    -0.202 N 
ATOM      8  H7  UNL     1      -2.615  36.683  -7.880  1.00  0.00     0.183 HD
ENDROOT
BRANCH   4   9
HETATM    9  C3  UNL     1      -4.469  36.683  -3.018  1.00  0.00     0.164 A 
HETATM   10  N3  UNL     1      -5.669  36.222  -2.625  1.00  0.00    -0.263 N 
HETATM   11  N4  UNL     1      -5.811  36.377  -1.318  1.00  0.00     0.025 NA
ATOM     12  H3  UNL     1      -6.368  35.812  -3.243  1.00  0.00     0.186 HD
HETATM   13  N5  UNL     1      -4.706  36.938  -0.861  1.00  0.00    -0.077 N 
HETATM   14  N6  UNL     1      -3.885  37.127  -1.893  1.00  0.00    -0.242 N 
ATOM     15  H6  UNL     1      -2.956  37.545  -1.837  1.00  0.00     0.192 HD
BRANCH  13  16
HETATM   16  O1  UNL     1      -4.470  37.261   0.451  1.00  0.00    -0.255 OA
ATOM     17  H1  UNL     1      -4.121  36.668   1.105  1.00  0.00     0.248 HD
ENDBRANCH  13  16
ENDBRANCH   4   9
BRANCH   1  18
HETATM   18  N1  UNL     1      -1.226  37.899  -6.280  1.00  0.00    -0.234 N 
ATOM     19  H12 UNL     1      -0.745  37.573  -7.118  1.00  0.00     0.174 HD
ATOM     20  H11 UNL     1      -0.835  38.667  -5.734  1.00  0.00     0.174 HD
ENDBRANCH   1  18
TORSDOF 3
ENDMDL
MODEL 3
REMARK VINA RESULT: -5.193777252      0.772      1.250
REMARK  3 active torsions:
REMARK  status: ('A' for Active; 'I' for Inactive)
REMARK    1  A    between atoms: N1_1  and  C1_4 
REMARK    2  A    between atoms: C2_7  and  C3_8 
REMARK    3  A    between atoms: N5_12  and  O1_13 
ROOT
HETATM    1  C1  UNL     1      -3.746  36.296  -1.319  1.00  0.00     0.676 A 
HETATM    2  N2  UNL     1      -3.399  36.574  -2.604  1.00  0.00    -0.188 N 
ATOM      3  H2  UNL     1      -2.447  36.878  -2.810  1.00  0.00     0.184 HD
HETATM    4  C2  UNL     1      -4.284  36.457  -3.607  1.00  0.00     0.097 A 
HETATM    5  C4  UNL     1      -5.560  36.044  -3.285  1.00  0.00     0.051 A 
HETATM    6  C5  UNL     1      -5.920  35.757  -1.969  1.00  0.00     0.108 A 
HETATM    7  N7  UNL     1      -4.997  35.895  -1.032  1.00  0.00    -0.202 N 
ATOM      8  H7  UNL     1      -5.242  35.690  -0.063  1.00  0.00     0.183 HD
ENDROOT
BRANCH   4   9
HETATM    9  C3  UNL     1      -3.924  36.752  -4.983  1.00  0.00     0.164 A 
HETATM   10  N3  UNL     1      -4.441  36.183  -6.086  1.00  0.00    -0.263 N 
HETATM   11  N4  UNL     1      -3.877  36.693  -7.170  1.00  0.00     0.025 NA
ATOM     12  H3  UNL     1      -5.162  35.463  -6.088  1.00  0.00     0.186 HD
HETATM   13  N5  UNL     1      -2.994  37.593  -6.774  1.00  0.00    -0.077 N 
HETATM   14  N6  UNL     1      -3.018  37.632  -5.443  1.00  0.00    -0.242 N 
ATOM     15  H6  UNL     1      -2.438  38.236  -4.861  1.00  0.00     0.192 HD
BRANCH  13  16
HETATM   16  O1  UNL     1      -2.203  38.341  -7.607  1.00  0.00    -0.255 OA
ATOM     17  H1  UNL     1      -1.270  38.215  -7.733  1.00  0.00     0.248 HD
ENDBRANCH  13  16
ENDBRANCH   4   9
BRANCH   1  18
HETATM   18  N1  UNL     1      -2.921  36.400  -0.346  1.00  0.00    -0.234 N 
ATOM     19  H12 UNL     1      -3.111  37.113   0.359  1.00  0.00     0.174 HD
ATOM     20  H11 UNL     1      -2.098  35.804  -0.259  1.00  0.00     0.174 HD
ENDBRANCH   1  18
TORSDOF 3
ENDMDL
MODEL 4
REMARK VINA RESULT: -5.061763276      2.735      5.398
REMARK  3 active torsions:
REMARK  status: ('A' for Active; 'I' for Inactive)
REMARK    1  A    between atoms: N1_1  and  C1_4 
REMARK    2  A    between atoms: C2_7  and  C3_8 
REMARK    3  A    between atoms: N5_12  and  O1_13 
ROOT
HETATM    1  C1  UNL     1      -3.631  36.759  -7.062  1.00  0.00     0.676 A 
HETATM    2  N2  UNL     1      -4.298  36.538  -5.898  1.00  0.00    -0.188 N 
ATOM      3  H2  UNL     1      -5.236  36.140  -5.927  1.00  0.00     0.184 HD
HETATM    4  C2  UNL     1      -3.745  36.834  -4.709  1.00  0.00     0.097 A 
HETATM    5  C4  UNL     1      -2.474  37.370  -4.714  1.00  0.00     0.051 A 
HETATM    6  C5  UNL     1      -1.787  37.598  -5.905  1.00  0.00     0.108 A 
HETATM    7  N7  UNL     1      -2.393  37.284  -7.038  1.00  0.00    -0.202 N 
ATOM      8  H7  UNL     1      -1.906  37.444  -7.920  1.00  0.00     0.183 HD
ENDROOT
BRANCH   4   9
HETATM    9  C3  UNL     1      -4.449  36.601  -3.460  1.00  0.00     0.164 A 
HETATM   10  N3  UNL     1      -5.593  35.912  -3.301  1.00  0.00    -0.263 N 
HETATM   11  N4  UNL     1      -5.946  35.903  -2.026  1.00  0.00     0.025 NA
ATOM     12  H3  UNL     1      -6.113  35.462  -4.053  1.00  0.00     0.186 HD
HETATM   13  N5  UNL     1      -5.035  36.585  -1.354  1.00  0.00    -0.077 N 
HETATM   14  N6  UNL     1      -4.121  37.012  -2.224  1.00  0.00    -0.242 N 
ATOM     15  H6  UNL     1      -3.298  37.567  -1.987  1.00  0.00     0.192 HD
BRANCH  13  16
HETATM   16  O1  UNL     1      -5.051  36.801  -0.001  1.00  0.00    -0.255 OA
ATOM     17  H1  UNL     1      -5.834  36.907   0.527  1.00  0.00     0.248 HD
ENDBRANCH  13  16
ENDBRANCH   4   9
BRANCH   1  18
HETATM   18  N1  UNL     1      -4.136  36.487  -8.206  1.00  0.00    -0.234 N 
ATOM     19  H12 UNL     1      -5.152  36.502  -8.288  1.00  0.00     0.174 HD
ATOM     20  H11 UNL     1      -3.562  36.260  -9.018  1.00  0.00     0.174 HD
ENDBRANCH   1  18
TORSDOF 3
ENDMDL
MODEL 5
REMARK VINA RESULT: -5.057642696      3.272      5.076
REMARK  3 active torsions:
REMARK  status: ('A' for Active; 'I' for Inactive)
REMARK    1  A    between atoms: N1_1  and  C1_4 
REMARK    2  A    between atoms: C2_7  and  C3_8 
REMARK    3  A    between atoms: N5_12  and  O1_13 
ROOT
HETATM    1  C1  UNL     1      -4.711  36.277  -4.005  1.00  0.00     0.676 A 
HETATM    2  N2  UNL     1      -3.718  36.900  -3.314  1.00  0.00    -0.188 N 
ATOM      3  H2  UNL     1      -2.880  37.205  -3.808  1.00  0.00     0.184 HD
HETATM    4  C2  UNL     1      -3.820  37.122  -1.993  1.00  0.00     0.097 A 
HETATM    5  C4  UNL     1      -4.970  36.693  -1.362  1.00  0.00     0.051 A 
HETATM    6  C5  UNL     1      -5.990  36.056  -2.066  1.00  0.00     0.108 A 
HETATM    7  N7  UNL     1      -5.822  35.871  -3.365  1.00  0.00    -0.202 N 
ATOM      8  H7  UNL     1      -6.556  35.405  -3.897  1.00  0.00     0.183 HD
ENDROOT
BRANCH   4   9
HETATM    9  C3  UNL     1      -2.766  37.786  -1.246  1.00  0.00     0.164 A 
HETATM   10  N3  UNL     1      -1.828  37.195  -0.485  1.00  0.00    -0.263 N 
HETATM   11  N4  UNL     1      -1.031  38.107   0.047  1.00  0.00     0.025 NA
ATOM     12  H3  UNL     1      -1.744  36.189  -0.339  1.00  0.00     0.186 HD
HETATM   13  N5  UNL     1      -1.447  39.291  -0.366  1.00  0.00    -0.077 N 
HETATM   14  N6  UNL     1      -2.505  39.101  -1.153  1.00  0.00    -0.242 N 
ATOM     15  H6  UNL     1      -3.035  39.839  -1.615  1.00  0.00     0.192 HD
BRANCH  13  16
HETATM   16  O1  UNL     1      -0.875  40.490  -0.028  1.00  0.00    -0.255 OA
ATOM     17  H1  UNL     1      -0.270  40.980  -0.572  1.00  0.00     0.248 HD
ENDBRANCH  13  16
ENDBRANCH   4   9
BRANCH   1  18
HETATM   18  N1  UNL     1      -4.637  36.055  -5.263  1.00  0.00    -0.234 N 
ATOM     19  H12 UNL     1      -3.840  35.516  -5.600  1.00  0.00     0.174 HD
ATOM     20  H11 UNL     1      -5.339  36.394  -5.921  1.00  0.00     0.174 HD
ENDBRANCH   1  18
TORSDOF 3
ENDMDL
