MODEL 1
REMARK VINA RESULT: -5.341295809      0.000      0.000
REMARK  3 active torsions:
REMARK  status: ('A' for Active; 'I' for Inactive)
REMARK    1  A    between atoms: C1_2  and  C2_4 
REMARK    2  A    between atoms: C4_8  and  N3_9 
REMARK    3  A    between atoms: N3_9  and  N4_11 
ROOT
HETATM    1  C2  UNL     1      -4.395  36.839  -1.634  1.00  0.00     0.088 A 
HETATM    2  C3  UNL     1      -5.640  36.290  -1.824  1.00  0.00     0.114 A 
HETATM    3  N2  UNL     1      -5.940  35.858  -3.014  1.00  0.00    -0.344 N 
ATOM      4  H2  UNL     1      -6.854  35.444  -3.199  1.00  0.00     0.167 HD
HETATM    5  C4  UNL     1      -5.033  35.965  -3.988  1.00  0.00     0.168 A 
HETATM    6  S1  UNL     1      -3.709  36.705  -3.193  1.00  0.00    -0.046 SA
ENDROOT
BRANCH   5   7
HETATM    7  N3  UNL     1      -5.141  35.592  -5.244  1.00  0.00    -0.219 N 
ATOM      8  H3  UNL     1      -5.760  34.831  -5.523  1.00  0.00     0.195 HD
BRANCH   7   9
HETATM    9  N4  UNL     1      -4.380  36.277  -6.167  1.00  0.00    -0.037 N 
HETATM   10  O2  UNL     1      -4.763  37.365  -6.596  1.00  0.00    -0.516 OA
HETATM   11  O3  UNL     1      -3.210  35.737  -6.594  1.00  0.00    -0.516 OA
ENDBRANCH   7   9
ENDBRANCH   5   7
BRANCH   1  12
HETATM   12  C1  UNL     1      -3.829  37.388  -0.404  1.00  0.00     0.273 C 
HETATM   13  N1  UNL     1      -2.436  37.484  -0.270  1.00  0.00    -0.057 NA
HETATM   14  O1  UNL     1      -4.602  37.761   0.500  1.00  0.00    -0.270 OA
ENDBRANCH   1  12
TORSDOF 3
ENDMDL
MODEL 2
REMARK VINA RESULT: -5.179173147      1.420      4.971
REMARK  3 active torsions:
REMARK  status: ('A' for Active; 'I' for Inactive)
REMARK    1  A    between atoms: C1_2  and  C2_4 
REMARK    2  A    between atoms: C4_8  and  N3_9 
REMARK    3  A    between atoms: N3_9  and  N4_11 
ROOT
HETATM    1  C2  UNL     1      -4.517  36.324  -4.719  1.00  0.00     0.088 A 
HETATM    2  C3  UNL     1      -5.567  35.598  -4.212  1.00  0.00     0.114 A 
HETATM    3  N2  UNL     1      -5.688  35.522  -2.919  1.00  0.00    -0.344 N 
ATOM      4  H2  UNL     1      -6.453  34.993  -2.500  1.00  0.00     0.167 HD
HETATM    5  C4  UNL     1      -4.793  36.147  -2.150  1.00  0.00     0.168 A 
HETATM    6  S1  UNL     1      -3.745  36.867  -3.295  1.00  0.00    -0.046 SA
ENDROOT
BRANCH   5   7
HETATM    7  N3  UNL     1      -4.741  36.190  -0.836  1.00  0.00    -0.219 N 
ATOM      8  H3  UNL     1      -5.203  35.487  -0.260  1.00  0.00     0.195 HD
BRANCH   7   9
HETATM    9  N4  UNL     1      -4.032  37.230  -0.274  1.00  0.00    -0.037 N 
HETATM   10  O2  UNL     1      -4.596  38.294  -0.021  1.00  0.00    -0.516 OA
HETATM   11  O3  UNL     1      -2.712  37.064  -0.005  1.00  0.00    -0.516 OA
ENDBRANCH   7   9
ENDBRANCH   5   7
BRANCH   1  12
HETATM   12  C1  UNL     1      -4.172  36.555  -6.119  1.00  0.00     0.273 C 
HETATM   13  N1  UNL     1      -3.256  35.703  -6.754  1.00  0.00    -0.057 NA
HETATM   14  O1  UNL     1      -4.705  37.510  -6.720  1.00  0.00    -0.270 OA
ENDBRANCH   1  12
TORSDOF 3
ENDMDL
MODEL 3
REMARK VINA RESULT: -5.061761513      1.921      5.313
REMARK  3 active torsions:
REMARK  status: ('A' for Active; 'I' for Inactive)
REMARK    1  A    between atoms: C1_2  and  C2_4 
REMARK    2  A    between atoms: C4_8  and  N3_9 
REMARK    3  A    between atoms: N3_9  and  N4_11 
ROOT
HETATM    1  C2  UNL     1      -4.228  36.581  -5.104  1.00  0.00     0.088 A 
HETATM    2  C3  UNL     1      -3.272  37.189  -4.328  1.00  0.00     0.114 A 
HETATM    3  N2  UNL     1      -3.360  37.057  -3.037  1.00  0.00    -0.344 N 
ATOM      4  H2  UNL     1      -2.672  37.492  -2.423  1.00  0.00     0.167 HD
HETATM    5  C4  UNL     1      -4.367  36.341  -2.528  1.00  0.00     0.168 A 
HETATM    6  S1  UNL     1      -5.219  35.839  -3.926  1.00  0.00    -0.046 SA
ENDROOT
BRANCH   5   7
HETATM    7  N3  UNL     1      -4.630  36.092  -1.264  1.00  0.00    -0.219 N 
ATOM      8  H3  UNL     1      -5.268  35.345  -0.989  1.00  0.00     0.195 HD
BRANCH   7   9
HETATM    9  N4  UNL     1      -4.004  36.886  -0.328  1.00  0.00    -0.037 N 
HETATM   10  O2  UNL     1      -4.661  37.677   0.348  1.00  0.00    -0.516 OA
HETATM   11  O3  UNL     1      -2.660  36.784  -0.163  1.00  0.00    -0.516 OA
ENDBRANCH   7   9
ENDBRANCH   5   7
BRANCH   1  12
HETATM   12  C1  UNL     1      -4.344  36.583  -6.560  1.00  0.00     0.273 C 
HETATM   13  N1  UNL     1      -4.921  37.687  -7.204  1.00  0.00    -0.057 NA
HETATM   14  O1  UNL     1      -3.923  35.598  -7.198  1.00  0.00    -0.270 OA
ENDBRANCH   1  12
TORSDOF 3
ENDMDL
MODEL 4
REMARK VINA RESULT: -4.974470320      1.866      2.265
REMARK  3 active torsions:
REMARK  status: ('A' for Active; 'I' for Inactive)
REMARK    1  A    between atoms: C1_2  and  C2_4 
REMARK    2  A    between atoms: C4_8  and  N3_9 
REMARK    3  A    between atoms: N3_9  and  N4_11 
ROOT
HETATM    1  C2  UNL     1      -4.309  36.357  -3.098  1.00  0.00     0.088 A 
HETATM    2  C3  UNL     1      -5.192  35.832  -4.009  1.00  0.00     0.114 A 
HETATM    3  N2  UNL     1      -4.980  36.070  -5.270  1.00  0.00    -0.344 N 
ATOM      4  H2  UNL     1      -5.611  35.700  -5.981  1.00  0.00     0.167 HD
HETATM    5  C4  UNL     1      -3.923  36.809  -5.619  1.00  0.00     0.168 A 
HETATM    6  S1  UNL     1      -3.205  37.179  -4.110  1.00  0.00    -0.046 SA
ENDROOT
BRANCH   5   7
HETATM    7  N3  UNL     1      -3.539  37.159  -6.827  1.00  0.00    -0.219 N 
ATOM      8  H3  UNL     1      -2.554  37.283  -7.060  1.00  0.00     0.195 HD
BRANCH   7   9
HETATM    9  N4  UNL     1      -4.530  37.353  -7.765  1.00  0.00    -0.037 N 
HETATM   10  O2  UNL     1      -5.467  38.114  -7.525  1.00  0.00    -0.516 OA
HETATM   11  O3  UNL     1      -4.460  36.694  -8.951  1.00  0.00    -0.516 OA
ENDBRANCH   7   9
ENDBRANCH   5   7
BRANCH   1  12
HETATM   12  C1  UNL     1      -4.332  36.231  -1.643  1.00  0.00     0.273 C 
HETATM   13  N1  UNL     1      -5.275  36.959  -0.902  1.00  0.00    -0.057 NA
HETATM   14  O1  UNL     1      -3.509  35.474  -1.092  1.00  0.00    -0.270 OA
ENDBRANCH   1  12
TORSDOF 3
ENDMDL
MODEL 5
REMARK VINA RESULT: -4.940830273      1.799      2.238
REMARK  3 active torsions:
REMARK  status: ('A' for Active; 'I' for Inactive)
REMARK    1  A    between atoms: C1_2  and  C2_4 
REMARK    2  A    between atoms: C4_8  and  N3_9 
REMARK    3  A    between atoms: N3_9  and  N4_11 
ROOT
HETATM    1  C2  UNL     1      -4.421  36.270  -3.017  1.00  0.00     0.088 A 
HETATM    2  C3  UNL     1      -5.356  35.634  -3.796  1.00  0.00     0.114 A 
HETATM    3  N2  UNL     1      -5.268  35.768  -5.087  1.00  0.00    -0.344 N 
ATOM      4  H2  UNL     1      -5.942  35.314  -5.703  1.00  0.00     0.167 HD
HETATM    5  C4  UNL     1      -4.280  36.511  -5.592  1.00  0.00     0.168 A 
HETATM    6  S1  UNL     1      -3.448  37.039  -4.192  1.00  0.00    -0.046 SA
ENDROOT
BRANCH   5   7
HETATM    7  N3  UNL     1      -4.020  36.768  -6.856  1.00  0.00    -0.219 N 
ATOM      8  H3  UNL     1      -4.112  37.709  -7.239  1.00  0.00     0.195 HD
BRANCH   7   9
HETATM    9  N4  UNL     1      -3.620  35.707  -7.639  1.00  0.00    -0.037 N 
HETATM   10  O2  UNL     1      -2.862  34.854  -7.180  1.00  0.00    -0.516 OA
HETATM   11  O3  UNL     1      -4.071  35.618  -8.917  1.00  0.00    -0.516 OA
ENDBRANCH   7   9
ENDBRANCH   5   7
BRANCH   1  12
HETATM   12  C1  UNL     1      -4.309  36.271  -1.561  1.00  0.00     0.273 C 
HETATM   13  N1  UNL     1      -5.194  37.053  -0.803  1.00  0.00    -0.057 NA
HETATM   14  O1  UNL     1      -3.427  35.573  -1.024  1.00  0.00    -0.270 OA
ENDBRANCH   1  12
TORSDOF 3
ENDMDL
