MODEL 1
REMARK VINA RESULT: -5.325152327      0.000      0.000
REMARK  2 active torsions:
REMARK  status: ('A' for Active; 'I' for Inactive)
REMARK    1  A    between atoms: N1_1  and  C1_4 
REMARK    2  A    between atoms: C3_6  and  N2_7 
ROOT
HETATM    1  C1  UNL     1      -3.980  36.602  -1.079  1.00  0.00     0.118 A 
HETATM    2  C2  UNL     1      -3.543  36.834  -2.369  1.00  0.00     0.099 A 
HETATM    3  C3  UNL     1      -4.324  36.516  -3.464  1.00  0.00     0.123 A 
HETATM    4  N4  UNL     1      -5.527  35.971  -3.195  1.00  0.00    -0.271 N 
ATOM      5  H4  UNL     1      -6.141  35.719  -3.969  1.00  0.00     0.190 HD
HETATM    6  N5  UNL     1      -5.935  35.753  -1.953  1.00  0.00    -0.240 N 
ATOM      7  H5  UNL     1      -6.855  35.338  -1.806  1.00  0.00     0.208 HD
HETATM    8  N6  UNL     1      -5.196  36.053  -0.895  1.00  0.00    -0.271 N 
ATOM      9  H6  UNL     1      -5.543  35.871   0.047  1.00  0.00     0.190 HD
ENDROOT
BRANCH   3  10
HETATM   10  N2  UNL     1      -3.886  36.750  -4.806  1.00  0.00    -0.360 N 
HETATM   11  C4  UNL     1      -2.780  37.626  -5.041  1.00  0.00     0.168 C 
HETATM   12  C5  UNL     1      -2.009  37.365  -6.283  1.00  0.00     0.075 C 
HETATM   13  N3  UNL     1      -2.550  36.427  -7.185  1.00  0.00    -0.399 N 
HETATM   14  C6  UNL     1      -3.971  36.316  -7.213  1.00  0.00     0.138 C 
ATOM     15  H3  UNL     1      -1.956  35.856  -7.786  1.00  0.00     0.158 HD
HETATM   16  C7  UNL     1      -4.598  36.077  -5.868  1.00  0.00     0.144 C 
ENDBRANCH   3  10
BRANCH   1  17
HETATM   17  N1  UNL     1      -3.267  36.891  -0.038  1.00  0.00    -0.384 N 
ATOM     18  H12 UNL     1      -3.557  37.672   0.551  1.00  0.00     0.157 HD
ATOM     19  H11 UNL     1      -2.427  36.370   0.214  1.00  0.00     0.157 HD
ENDBRANCH   1  17
TORSDOF 2
ENDMDL
MODEL 2
REMARK VINA RESULT: -5.281584943      0.663      1.518
REMARK  2 active torsions:
REMARK  status: ('A' for Active; 'I' for Inactive)
REMARK    1  A    between atoms: N1_1  and  C1_4 
REMARK    2  A    between atoms: C3_6  and  N2_7 
ROOT
HETATM    1  C1  UNL     1      -3.923  36.420  -1.173  1.00  0.00     0.118 A 
HETATM    2  C2  UNL     1      -3.455  36.715  -2.439  1.00  0.00     0.099 A 
HETATM    3  C3  UNL     1      -4.252  36.557  -3.558  1.00  0.00     0.123 A 
HETATM    4  N4  UNL     1      -5.501  36.101  -3.336  1.00  0.00    -0.271 N 
ATOM      5  H4  UNL     1      -6.128  35.968  -4.129  1.00  0.00     0.190 HD
HETATM    6  N5  UNL     1      -5.938  35.821  -2.116  1.00  0.00    -0.240 N 
ATOM      7  H5  UNL     1      -6.892  35.480  -2.004  1.00  0.00     0.208 HD
HETATM    8  N6  UNL     1      -5.185  35.969  -1.036  1.00  0.00    -0.271 N 
ATOM      9  H6  UNL     1      -5.555  35.744  -0.112  1.00  0.00     0.190 HD
ENDROOT
BRANCH   3  10
HETATM   10  N2  UNL     1      -3.783  36.857  -4.875  1.00  0.00    -0.360 N 
HETATM   11  C4  UNL     1      -4.500  36.357  -6.006  1.00  0.00     0.168 C 
HETATM   12  C5  UNL     1      -4.369  37.155  -7.253  1.00  0.00     0.075 C 
HETATM   13  N3  UNL     1      -3.415  38.193  -7.248  1.00  0.00    -0.399 N 
HETATM   14  C6  UNL     1      -2.269  38.002  -6.421  1.00  0.00     0.138 C 
ATOM     15  H3  UNL     1      -3.539  39.037  -7.807  1.00  0.00     0.158 HD
HETATM   16  C7  UNL     1      -2.590  37.665  -4.992  1.00  0.00     0.144 C 
ENDBRANCH   3  10
BRANCH   1  17
HETATM   17  N1  UNL     1      -3.196  36.560  -0.111  1.00  0.00    -0.384 N 
ATOM     18  H12 UNL     1      -3.327  37.393   0.464  1.00  0.00     0.157 HD
ATOM     19  H11 UNL     1      -2.499  35.871   0.172  1.00  0.00     0.157 HD
ENDBRANCH   1  17
TORSDOF 2
ENDMDL
MODEL 3
REMARK VINA RESULT: -5.141007964      2.568      4.922
REMARK  2 active torsions:
REMARK  status: ('A' for Active; 'I' for Inactive)
REMARK    1  A    between atoms: N1_1  and  C1_4 
REMARK    2  A    between atoms: C3_6  and  N2_7 
ROOT
HETATM    1  C1  UNL     1      -4.836  36.289  -2.861  1.00  0.00     0.118 A 
HETATM    2  C2  UNL     1      -3.699  37.027  -2.593  1.00  0.00     0.099 A 
HETATM    3  C3  UNL     1      -3.346  37.364  -1.301  1.00  0.00     0.123 A 
HETATM    4  N4  UNL     1      -4.174  36.932  -0.329  1.00  0.00    -0.271 N 
ATOM      5  H4  UNL     1      -3.957  37.155   0.642  1.00  0.00     0.190 HD
HETATM    6  N5  UNL     1      -5.262  36.225  -0.599  1.00  0.00    -0.240 N 
ATOM      7  H5  UNL     1      -5.854  35.922   0.175  1.00  0.00     0.208 HD
HETATM    8  N6  UNL     1      -5.611  35.894  -1.834  1.00  0.00    -0.271 N 
ATOM      9  H6  UNL     1      -6.456  35.348  -2.003  1.00  0.00     0.190 HD
ENDROOT
BRANCH   3  10
HETATM   10  N2  UNL     1      -2.173  38.127  -1.006  1.00  0.00    -0.360 N 
HETATM   11  C4  UNL     1      -2.168  39.534  -1.261  1.00  0.00     0.168 C 
HETATM   12  C5  UNL     1      -1.245  40.335  -0.416  1.00  0.00     0.075 C 
HETATM   13  N3  UNL     1      -0.343  39.621   0.398  1.00  0.00    -0.399 N 
HETATM   14  C6  UNL     1       0.086  38.350  -0.088  1.00  0.00     0.138 C 
ATOM     15  H3  UNL     1      -0.014  39.993   1.289  1.00  0.00     0.158 HD
HETATM   16  C7  UNL     1      -1.037  37.421  -0.458  1.00  0.00     0.144 C 
ENDBRANCH   3  10
BRANCH   1  17
HETATM   17  N1  UNL     1      -5.187  35.960  -4.064  1.00  0.00    -0.384 N 
ATOM     18  H12 UNL     1      -6.180  35.864  -4.273  1.00  0.00     0.157 HD
ATOM     19  H11 UNL     1      -4.509  35.794  -4.808  1.00  0.00     0.157 HD
ENDBRANCH   1  17
TORSDOF 2
ENDMDL
MODEL 4
REMARK VINA RESULT: -5.056547937      2.503      4.258
REMARK  2 active torsions:
REMARK  status: ('A' for Active; 'I' for Inactive)
REMARK    1  A    between atoms: N1_1  and  C1_4 
REMARK    2  A    between atoms: C3_6  and  N2_7 
ROOT
HETATM    1  C1  UNL     1      -5.027  36.134  -2.929  1.00  0.00     0.118 A 
HETATM    2  C2  UNL     1      -3.868  36.884  -2.866  1.00  0.00     0.099 A 
HETATM    3  C3  UNL     1      -3.345  37.302  -1.657  1.00  0.00     0.123 A 
HETATM    4  N4  UNL     1      -4.030  36.934  -0.556  1.00  0.00    -0.271 N 
ATOM      5  H4  UNL     1      -3.684  37.217   0.361  1.00  0.00     0.190 HD
HETATM    6  N5  UNL     1      -5.140  36.214  -0.630  1.00  0.00    -0.240 N 
ATOM      7  H5  UNL     1      -5.619  35.963   0.235  1.00  0.00     0.208 HD
HETATM    8  N6  UNL     1      -5.653  35.808  -1.783  1.00  0.00    -0.271 N 
ATOM      9  H6  UNL     1      -6.510  35.254  -1.801  1.00  0.00     0.190 HD
ENDROOT
BRANCH   3  10
HETATM   10  N2  UNL     1      -2.146  38.078  -1.573  1.00  0.00    -0.360 N 
HETATM   11  C4  UNL     1      -1.265  37.892  -0.464  1.00  0.00     0.168 C 
HETATM   12  C5  UNL     1       0.162  38.219  -0.716  1.00  0.00     0.075 C 
HETATM   13  N3  UNL     1       0.464  38.854  -1.938  1.00  0.00    -0.399 N 
HETATM   14  C6  UNL     1      -0.549  39.693  -2.488  1.00  0.00     0.138 C 
ATOM     15  H3  UNL     1       1.362  38.721  -2.404  1.00  0.00     0.158 HD
HETATM   16  C7  UNL     1      -1.889  39.025  -2.634  1.00  0.00     0.144 C 
ENDBRANCH   3  10
BRANCH   1  17
HETATM   17  N1  UNL     1      -5.537  35.732  -4.049  1.00  0.00    -0.384 N 
ATOM     18  H12 UNL     1      -5.446  36.330  -4.870  1.00  0.00     0.157 HD
ATOM     19  H11 UNL     1      -6.025  34.841  -4.142  1.00  0.00     0.157 HD
ENDBRANCH   1  17
TORSDOF 2
ENDMDL
MODEL 5
REMARK VINA RESULT: -4.998678167      2.514      4.366
REMARK  2 active torsions:
REMARK  status: ('A' for Active; 'I' for Inactive)
REMARK    1  A    between atoms: N1_1  and  C1_4 
REMARK    2  A    between atoms: C3_6  and  N2_7 
ROOT
HETATM    1  C1  UNL     1      -4.971  36.120  -2.831  1.00  0.00     0.118 A 
HETATM    2  C2  UNL     1      -3.667  36.577  -2.833  1.00  0.00     0.099 A 
HETATM    3  C3  UNL     1      -3.019  36.914  -1.659  1.00  0.00     0.123 A 
HETATM    4  N4  UNL     1      -3.733  36.768  -0.525  1.00  0.00    -0.271 N 
ATOM      5  H4  UNL     1      -3.299  37.003   0.367  1.00  0.00     0.190 HD
HETATM    6  N5  UNL     1      -4.983  36.328  -0.537  1.00  0.00    -0.240 N 
ATOM      7  H5  UNL     1      -5.478  36.237   0.350  1.00  0.00     0.208 HD
HETATM    8  N6  UNL     1      -5.616  36.003  -1.655  1.00  0.00    -0.271 N 
ATOM      9  H6  UNL     1      -6.579  35.667  -1.625  1.00  0.00     0.190 HD
ENDROOT
BRANCH   3  10
HETATM   10  N2  UNL     1      -1.669  37.388  -1.643  1.00  0.00    -0.360 N 
HETATM   11  C4  UNL     1      -0.989  37.609  -2.881  1.00  0.00     0.168 C 
HETATM   12  C5  UNL     1       0.093  38.627  -2.844  1.00  0.00     0.075 C 
HETATM   13  N3  UNL     1       0.464  39.119  -1.577  1.00  0.00    -0.399 N 
HETATM   14  C6  UNL     1       0.314  38.224  -0.477  1.00  0.00     0.138 C 
ATOM     15  H3  UNL     1       0.820  40.066  -1.452  1.00  0.00     0.158 HD
HETATM   16  C7  UNL     1      -1.059  37.622  -0.355  1.00  0.00     0.144 C 
ENDBRANCH   3  10
BRANCH   1  17
HETATM   17  N1  UNL     1      -5.598  35.799  -3.917  1.00  0.00    -0.384 N 
ATOM     18  H12 UNL     1      -6.348  36.407  -4.246  1.00  0.00     0.157 HD
ATOM     19  H11 UNL     1      -5.372  34.962  -4.455  1.00  0.00     0.157 HD
ENDBRANCH   1  17
TORSDOF 2
ENDMDL
