MODEL 1
REMARK VINA RESULT: -5.268840562      0.000      0.000
REMARK  2 active torsions:
REMARK  status: ('A' for Active; 'I' for Inactive)
REMARK    1  A    between atoms: N1_1  and  C1_4 
REMARK    2  A    between atoms: C2_7  and  N3_8 
ROOT
HETATM    1  C1  UNL     1      -3.780  36.373  -1.236  1.00  0.00     0.692 A 
HETATM    2  N2  UNL     1      -3.426  36.665  -2.499  1.00  0.00    -0.174 N 
ATOM      3  H2  UNL     1      -2.497  37.047  -2.677  1.00  0.00     0.186 HD
HETATM    4  C2  UNL     1      -4.273  36.466  -3.553  1.00  0.00     0.136 A 
HETATM    5  C7  UNL     1      -5.508  35.945  -3.223  1.00  0.00     0.156 A 
HETATM    6  N5  UNL     1      -5.830  35.664  -1.948  1.00  0.00    -0.294 N 
ATOM      7  H5  UNL     1      -6.754  35.280  -1.743  1.00  0.00     0.186 HD
HETATM    8  N6  UNL     1      -4.987  35.869  -0.953  1.00  0.00    -0.133 N 
ATOM      9  H6  UNL     1      -5.250  35.649   0.008  1.00  0.00     0.205 HD
ENDROOT
BRANCH   4  10
HETATM   10  N3  UNL     1      -3.902  36.773  -4.875  1.00  0.00    -0.362 N 
HETATM   11  C3  UNL     1      -2.825  37.686  -5.162  1.00  0.00     0.152 C 
HETATM   12  C4  UNL     1      -2.697  38.097  -6.583  1.00  0.00     0.252 C 
HETATM   13  N4  UNL     1      -3.176  37.184  -7.564  1.00  0.00    -0.072 N 
HETATM   14  C5  UNL     1      -3.558  35.889  -7.051  1.00  0.00     0.252 C 
ATOM     15  H42 UNL     1      -3.948  37.599  -8.086  1.00  0.00     0.277 HD
ATOM     16  H41 UNL     1      -2.491  37.079  -8.314  1.00  0.00     0.277 HD
HETATM   17  C6  UNL     1      -4.607  36.165  -5.979  1.00  0.00     0.152 C 
ENDBRANCH   4  10
BRANCH   1  18
HETATM   18  N1  UNL     1      -2.965  36.568  -0.253  1.00  0.00    -0.233 N 
ATOM     19  H12 UNL     1      -1.983  36.730  -0.476  1.00  0.00     0.174 HD
ATOM     20  H11 UNL     1      -3.294  36.562   0.712  1.00  0.00     0.174 HD
ENDBRANCH   1  18
TORSDOF 2
ENDMDL
MODEL 2
REMARK VINA RESULT: -5.244135162      0.250      1.374
REMARK  2 active torsions:
REMARK  status: ('A' for Active; 'I' for Inactive)
REMARK    1  A    between atoms: N1_1  and  C1_4 
REMARK    2  A    between atoms: C2_7  and  N3_8 
ROOT
HETATM    1  C1  UNL     1      -3.833  36.464  -1.183  1.00  0.00     0.692 A 
HETATM    2  N2  UNL     1      -3.451  36.702  -2.449  1.00  0.00    -0.174 N 
ATOM      3  H2  UNL     1      -2.516  37.071  -2.623  1.00  0.00     0.186 HD
HETATM    4  C2  UNL     1      -4.277  36.465  -3.512  1.00  0.00     0.136 A 
HETATM    5  C7  UNL     1      -5.522  35.965  -3.188  1.00  0.00     0.156 A 
HETATM    6  N5  UNL     1      -5.873  35.738  -1.909  1.00  0.00    -0.294 N 
ATOM      7  H5  UNL     1      -6.803  35.369  -1.709  1.00  0.00     0.186 HD
HETATM    8  N6  UNL     1      -5.050  35.980  -0.906  1.00  0.00    -0.133 N 
ATOM      9  H6  UNL     1      -5.334  35.801   0.057  1.00  0.00     0.205 HD
ENDROOT
BRANCH   4  10
HETATM   10  N3  UNL     1      -3.876  36.716  -4.837  1.00  0.00    -0.362 N 
HETATM   11  C3  UNL     1      -4.574  36.139  -5.957  1.00  0.00     0.152 C 
HETATM   12  C4  UNL     1      -3.907  36.294  -7.275  1.00  0.00     0.252 C 
HETATM   13  N4  UNL     1      -3.049  37.419  -7.435  1.00  0.00    -0.072 N 
HETATM   14  C5  UNL     1      -3.086  38.368  -6.348  1.00  0.00     0.252 C 
ATOM     15  H42 UNL     1      -2.091  37.111  -7.604  1.00  0.00     0.277 HD
ATOM     16  H41 UNL     1      -3.243  37.888  -8.321  1.00  0.00     0.277 HD
HETATM   17  C6  UNL     1      -2.740  37.571  -5.094  1.00  0.00     0.152 C 
ENDBRANCH   4  10
BRANCH   1  18
HETATM   18  N1  UNL     1      -3.039  36.695  -0.192  1.00  0.00    -0.233 N 
ATOM     19  H12 UNL     1      -3.194  36.176   0.672  1.00  0.00     0.174 HD
ATOM     20  H11 UNL     1      -2.281  37.373  -0.272  1.00  0.00     0.174 HD
ENDBRANCH   1  18
TORSDOF 2
ENDMDL
MODEL 3
REMARK VINA RESULT: -4.868480305      2.351      4.342
REMARK  2 active torsions:
REMARK  status: ('A' for Active; 'I' for Inactive)
REMARK    1  A    between atoms: N1_1  and  C1_4 
REMARK    2  A    between atoms: C2_7  and  N3_8 
ROOT
HETATM    1  C1  UNL     1      -5.102  36.005  -3.413  1.00  0.00     0.692 A 
HETATM    2  N2  UNL     1      -3.833  36.421  -3.254  1.00  0.00    -0.174 N 
ATOM      3  H2  UNL     1      -3.221  36.462  -4.069  1.00  0.00     0.186 HD
HETATM    4  C2  UNL     1      -3.339  36.789  -2.034  1.00  0.00     0.136 A 
HETATM    5  C7  UNL     1      -4.235  36.704  -0.987  1.00  0.00     0.156 A 
HETATM    6  N5  UNL     1      -5.499  36.284  -1.181  1.00  0.00    -0.294 N 
ATOM      7  H5  UNL     1      -6.132  36.234  -0.382  1.00  0.00     0.186 HD
HETATM    8  N6  UNL     1      -5.943  35.935  -2.374  1.00  0.00    -0.133 N 
ATOM      9  H6  UNL     1      -6.905  35.619  -2.501  1.00  0.00     0.205 HD
ENDROOT
BRANCH   4  10
HETATM   10  N3  UNL     1      -2.011  37.223  -1.869  1.00  0.00    -0.362 N 
HETATM   11  C3  UNL     1      -1.299  37.888  -2.930  1.00  0.00     0.152 C 
HETATM   12  C4  UNL     1       0.157  38.077  -2.702  1.00  0.00     0.252 C 
HETATM   13  N4  UNL     1       0.592  38.163  -1.350  1.00  0.00    -0.072 N 
HETATM   14  C5  UNL     1      -0.471  38.239  -0.375  1.00  0.00     0.252 C 
ATOM     15  H42 UNL     1       1.218  37.387  -1.131  1.00  0.00     0.277 HD
ATOM     16  H41 UNL     1       1.235  38.947  -1.234  1.00  0.00     0.277 HD
HETATM   17  C6  UNL     1      -1.334  37.004  -0.611  1.00  0.00     0.152 C 
ENDBRANCH   4  10
BRANCH   1  18
HETATM   18  N1  UNL     1      -5.550  35.661  -4.573  1.00  0.00    -0.233 N 
ATOM     19  H12 UNL     1      -5.329  34.723  -4.909  1.00  0.00     0.174 HD
ATOM     20  H11 UNL     1      -6.107  36.305  -5.135  1.00  0.00     0.174 HD
ENDBRANCH   1  18
TORSDOF 2
ENDMDL
MODEL 4
REMARK VINA RESULT: -4.868450899      2.541      4.173
REMARK  2 active torsions:
REMARK  status: ('A' for Active; 'I' for Inactive)
REMARK    1  A    between atoms: N1_1  and  C1_4 
REMARK    2  A    between atoms: C2_7  and  N3_8 
ROOT
HETATM    1  C1  UNL     1      -5.135  36.005  -3.096  1.00  0.00     0.692 A 
HETATM    2  N2  UNL     1      -4.135  36.901  -3.151  1.00  0.00    -0.174 N 
ATOM      3  H2  UNL     1      -3.753  37.161  -4.060  1.00  0.00     0.186 HD
HETATM    4  C2  UNL     1      -3.614  37.474  -2.025  1.00  0.00     0.136 A 
HETATM    5  C7  UNL     1      -4.190  37.068  -0.838  1.00  0.00     0.156 A 
HETATM    6  N5  UNL     1      -5.190  36.169  -0.819  1.00  0.00    -0.294 N 
ATOM      7  H5  UNL     1      -5.591  35.893   0.079  1.00  0.00     0.186 HD
HETATM    8  N6  UNL     1      -5.670  35.634  -1.926  1.00  0.00    -0.133 N 
ATOM      9  H6  UNL     1      -6.429  34.953  -1.891  1.00  0.00     0.205 HD
ENDROOT
BRANCH   4  10
HETATM   10  N3  UNL     1      -2.566  38.411  -2.083  1.00  0.00    -0.362 N 
HETATM   11  C3  UNL     1      -1.882  38.701  -3.318  1.00  0.00     0.152 C 
HETATM   12  C4  UNL     1      -0.654  39.525  -3.191  1.00  0.00     0.252 C 
HETATM   13  N4  UNL     1      -0.585  40.413  -2.080  1.00  0.00    -0.072 N 
HETATM   14  C5  UNL     1      -1.808  40.528  -1.321  1.00  0.00     0.252 C 
ATOM     15  H42 UNL     1       0.188  40.153  -1.468  1.00  0.00     0.277 HD
ATOM     16  H41 UNL     1      -0.269  41.334  -2.383  1.00  0.00     0.277 HD
HETATM   17  C6  UNL     1      -2.157  39.109  -0.885  1.00  0.00     0.152 C 
ENDBRANCH   4  10
BRANCH   1  18
HETATM   18  N1  UNL     1      -5.614  35.474  -4.171  1.00  0.00    -0.233 N 
ATOM     19  H12 UNL     1      -5.354  34.510  -4.381  1.00  0.00     0.174 HD
ATOM     20  H11 UNL     1      -6.232  36.000  -4.788  1.00  0.00     0.174 HD
ENDBRANCH   1  18
TORSDOF 2
ENDMDL
MODEL 5
REMARK VINA RESULT: -4.829411836      2.353      4.301
REMARK  2 active torsions:
REMARK  status: ('A' for Active; 'I' for Inactive)
REMARK    1  A    between atoms: N1_1  and  C1_4 
REMARK    2  A    between atoms: C2_7  and  N3_8 
ROOT
HETATM    1  C1  UNL     1      -5.046  36.045  -3.463  1.00  0.00     0.692 A 
HETATM    2  N2  UNL     1      -3.819  36.550  -3.249  1.00  0.00    -0.174 N 
ATOM      3  H2  UNL     1      -3.177  36.640  -4.036  1.00  0.00     0.186 HD
HETATM    4  C2  UNL     1      -3.406  36.947  -2.008  1.00  0.00     0.136 A 
HETATM    5  C7  UNL     1      -4.337  36.793  -1.001  1.00  0.00     0.156 A 
HETATM    6  N5  UNL     1      -5.557  36.284  -1.249  1.00  0.00    -0.294 N 
ATOM      7  H5  UNL     1      -6.219  36.184  -0.479  1.00  0.00     0.186 HD
HETATM    8  N6  UNL     1      -5.924  35.909  -2.461  1.00  0.00    -0.133 N 
ATOM      9  H6  UNL     1      -6.854  35.526  -2.630  1.00  0.00     0.205 HD
ENDROOT
BRANCH   4  10
HETATM   10  N3  UNL     1      -2.120  37.474  -1.785  1.00  0.00    -0.362 N 
HETATM   11  C3  UNL     1      -1.400  37.213  -0.566  1.00  0.00     0.152 C 
HETATM   12  C4  UNL     1      -0.167  38.018  -0.366  1.00  0.00     0.252 C 
HETATM   13  N4  UNL     1       0.500  38.477  -1.537  1.00  0.00    -0.072 N 
HETATM   14  C5  UNL     1      -0.013  37.939  -2.776  1.00  0.00     0.252 C 
ATOM     15  H42 UNL     1       0.499  39.496  -1.567  1.00  0.00     0.277 HD
ATOM     16  H41 UNL     1       1.502  38.302  -1.465  1.00  0.00     0.277 HD
HETATM   17  C6  UNL     1      -1.496  38.297  -2.797  1.00  0.00     0.152 C 
ENDBRANCH   4  10
BRANCH   1  18
HETATM   18  N1  UNL     1      -5.419  35.675  -4.642  1.00  0.00    -0.233 N 
ATOM     19  H12 UNL     1      -5.947  34.806  -4.723  1.00  0.00     0.174 HD
ATOM     20  H11 UNL     1      -5.193  36.234  -5.465  1.00  0.00     0.174 HD
ENDBRANCH   1  18
TORSDOF 2
ENDMDL
