MODEL 1
REMARK VINA RESULT: -7.128576153      0.000      0.000
REMARK  6 active torsions:
REMARK  status: ('A' for Active; 'I' for Inactive)
REMARK    1  A    between atoms: N1_2  and  C3_4 
REMARK    2  A    between atoms: C3_4  and  O1_5 
REMARK    3  A    between atoms: C4_7  and  N2_8 
REMARK       I    between atoms: N2_8  and  C5_10 
REMARK    4  A    between atoms: C5_10  and  C6_12 
REMARK    5  A    between atoms: C10_16  and  C11_17 
REMARK       I    between atoms: C11_17  and  N3_19 
REMARK    6  A    between atoms: N3_19  and  C12_21 
ROOT
HETATM    1  C6  UNL     1      -5.189  22.242   0.716  1.00  0.00     0.091 C 
HETATM    2  C7  UNL     1      -4.109  22.906  -0.071  1.00  0.00     0.015 C 
HETATM    3  C8  UNL     1      -4.545  24.337  -0.206  1.00  0.00     0.002 C 
HETATM    4  C9  UNL     1      -5.810  24.506   0.579  1.00  0.00     0.015 C 
HETATM    5  C10 UNL     1      -5.888  23.309   1.476  1.00  0.00     0.091 C 
ENDROOT
BRANCH   1   6
HETATM    6  C5  UNL     1      -4.790  21.072   1.452  1.00  0.00     0.226 C 
HETATM    7  N2  UNL     1      -5.814  20.243   2.054  1.00  0.00    -0.333 N 
ATOM      8  H2  UNL     1      -6.795  20.502   1.945  1.00  0.00     0.168 HD
HETATM    9  O2  UNL     1      -3.629  20.720   1.610  1.00  0.00    -0.273 OA
BRANCH   7  10
HETATM   10  C4  UNL     1      -5.482  19.087   2.786  1.00  0.00     0.146 C 
HETATM   11  C3  UNL     1      -6.523  18.403   3.498  1.00  0.00     0.153 C 
BRANCH  11  12
HETATM   12  N1  UNL     1      -7.884  18.588   3.673  1.00  0.00    -0.370 N 
HETATM   13  C1  UNL     1      -8.318  19.549   4.747  1.00  0.00     0.151 C 
HETATM   14  C2  UNL     1      -8.981  17.996   2.980  1.00  0.00     0.151 C 
ENDBRANCH  11  12
BRANCH  11  15
HETATM   15  O1  UNL     1      -6.084  17.319   4.156  1.00  0.00    -0.345 OA
ATOM     16  H1  UNL     1      -5.544  17.558   4.901  1.00  0.00     0.219 HD
ENDBRANCH  11  15
ENDBRANCH   7  10
ENDBRANCH   1   6
BRANCH   5  17
HETATM   17  C11 UNL     1      -5.379  23.636   2.797  1.00  0.00     0.223 C 
HETATM   18  O3  UNL     1      -4.185  23.971   2.967  1.00  0.00    -0.273 OA
HETATM   19  N3  UNL     1      -6.205  23.588   3.937  1.00  0.00    -0.355 N 
ATOM     20  H3  UNL     1      -7.183  23.318   3.830  1.00  0.00     0.162 HD
BRANCH  19  21
HETATM   21  C12 UNL     1      -5.696  23.917   5.281  1.00  0.00     0.102 C 
HETATM   22  C13 UNL     1      -6.630  24.834   5.998  1.00  0.00     0.027 C 
HETATM   23  C14 UNL     1      -6.617  24.633   7.501  1.00  0.00     0.002 C 
HETATM   24  C15 UNL     1      -7.114  23.248   7.783  1.00  0.00     0.002 C 
HETATM   25  C16 UNL     1      -6.540  22.196   6.898  1.00  0.00     0.022 C 
HETATM   26  C17 UNL     1      -5.391  22.657   6.056  1.00  0.00     0.105 C 
HETATM   27 CL1  UNL     1      -3.887  22.844   7.001  1.00  0.00    -0.123 Cl
ENDBRANCH  19  21
ENDBRANCH   5  17
TORSDOF 6
ENDMDL
MODEL 2
REMARK VINA RESULT: -6.814835503      1.659      4.632
REMARK  6 active torsions:
REMARK  status: ('A' for Active; 'I' for Inactive)
REMARK    1  A    between atoms: N1_2  and  C3_4 
REMARK    2  A    between atoms: C3_4  and  O1_5 
REMARK    3  A    between atoms: C4_7  and  N2_8 
REMARK       I    between atoms: N2_8  and  C5_10 
REMARK    4  A    between atoms: C5_10  and  C6_12 
REMARK    5  A    between atoms: C10_16  and  C11_17 
REMARK       I    between atoms: C11_17  and  N3_19 
REMARK    6  A    between atoms: N3_19  and  C12_21 
ROOT
HETATM    1  C6  UNL     1      -7.318  18.388   3.674  1.00  0.00     0.091 C 
HETATM    2  C7  UNL     1      -8.378  18.402   2.625  1.00  0.00     0.015 C 
HETATM    3  C8  UNL     1      -9.667  18.597   3.371  1.00  0.00     0.002 C 
HETATM    4  C9  UNL     1      -9.332  18.790   4.819  1.00  0.00     0.015 C 
HETATM    5  C10 UNL     1      -7.868  19.104   4.854  1.00  0.00     0.091 C 
ENDROOT
BRANCH   1   6
HETATM    6  C5  UNL     1      -6.004  18.773   3.234  1.00  0.00     0.226 C 
HETATM    7  N2  UNL     1      -5.881  19.745   2.167  1.00  0.00    -0.333 N 
ATOM      8  H2  UNL     1      -6.724  20.138   1.749  1.00  0.00     0.168 HD
HETATM    9  O2  UNL     1      -4.963  18.330   3.702  1.00  0.00    -0.273 OA
BRANCH   7  10
HETATM   10  C4  UNL     1      -4.620  20.157   1.695  1.00  0.00     0.146 C 
HETATM   11  C3  UNL     1      -4.460  21.514   1.258  1.00  0.00     0.153 C 
BRANCH  11  12
HETATM   12  N1  UNL     1      -5.283  22.624   1.168  1.00  0.00    -0.370 N 
HETATM   13  C1  UNL     1      -5.475  23.234  -0.196  1.00  0.00     0.151 C 
HETATM   14  C2  UNL     1      -6.003  23.310   2.190  1.00  0.00     0.151 C 
ENDBRANCH  11  12
BRANCH  11  15
HETATM   15  O1  UNL     1      -3.217  21.786   0.831  1.00  0.00    -0.345 OA
ATOM     16  H1  UNL     1      -2.594  21.779   1.548  1.00  0.00     0.219 HD
ENDBRANCH  11  15
ENDBRANCH   7  10
ENDBRANCH   1   6
BRANCH   5  17
HETATM   17  C11 UNL     1      -7.662  20.540   4.925  1.00  0.00     0.223 C 
HETATM   18  O3  UNL     1      -8.442  21.335   4.353  1.00  0.00    -0.273 OA
HETATM   19  N3  UNL     1      -6.581  21.094   5.636  1.00  0.00    -0.355 N 
ATOM     20  H3  UNL     1      -5.929  20.472   6.112  1.00  0.00     0.162 HD
BRANCH  19  21
HETATM   21  C12 UNL     1      -6.364  22.551   5.711  1.00  0.00     0.102 C 
HETATM   22  C13 UNL     1      -7.276  23.178   6.713  1.00  0.00     0.027 C 
HETATM   23  C14 UNL     1      -6.673  24.400   7.376  1.00  0.00     0.002 C 
HETATM   24  C15 UNL     1      -5.467  23.955   8.149  1.00  0.00     0.002 C 
HETATM   25  C16 UNL     1      -4.583  23.007   7.415  1.00  0.00     0.022 C 
HETATM   26  C17 UNL     1      -4.907  22.859   5.962  1.00  0.00     0.105 C 
HETATM   27 CL1  UNL     1      -4.384  24.270   5.000  1.00  0.00    -0.123 Cl
ENDBRANCH  19  21
ENDBRANCH   5  17
TORSDOF 6
ENDMDL
MODEL 3
REMARK VINA RESULT: -6.350451747      1.563      1.995
REMARK  6 active torsions:
REMARK  status: ('A' for Active; 'I' for Inactive)
REMARK    1  A    between atoms: N1_2  and  C3_4 
REMARK    2  A    between atoms: C3_4  and  O1_5 
REMARK    3  A    between atoms: C4_7  and  N2_8 
REMARK       I    between atoms: N2_8  and  C5_10 
REMARK    4  A    between atoms: C5_10  and  C6_12 
REMARK    5  A    between atoms: C10_16  and  C11_17 
REMARK       I    between atoms: C11_17  and  N3_19 
REMARK    6  A    between atoms: N3_19  and  C12_21 
ROOT
HETATM    1  C6  UNL     1      -4.979  22.786   1.433  1.00  0.00     0.091 C 
HETATM    2  C7  UNL     1      -3.813  23.709   1.545  1.00  0.00     0.015 C 
HETATM    3  C8  UNL     1      -4.409  25.071   1.759  1.00  0.00     0.002 C 
HETATM    4  C9  UNL     1      -5.894  24.909   1.864  1.00  0.00     0.015 C 
HETATM    5  C10 UNL     1      -6.122  23.449   2.111  1.00  0.00     0.091 C 
ENDROOT
BRANCH   1   6
HETATM    6  C5  UNL     1      -4.722  21.415   1.783  1.00  0.00     0.226 C 
HETATM    7  N2  UNL     1      -5.803  20.616   2.322  1.00  0.00    -0.333 N 
ATOM      8  H2  UNL     1      -6.724  21.037   2.443  1.00  0.00     0.168 HD
HETATM    9  O2  UNL     1      -3.636  20.864   1.657  1.00  0.00    -0.273 OA
BRANCH   7  10
HETATM   10  C4  UNL     1      -5.607  19.269   2.682  1.00  0.00     0.146 C 
HETATM   11  C3  UNL     1      -6.322  18.750   3.813  1.00  0.00     0.153 C 
BRANCH  11  12
HETATM   12  N1  UNL     1      -7.231  19.261   4.724  1.00  0.00    -0.370 N 
HETATM   13  C1  UNL     1      -8.693  19.127   4.390  1.00  0.00     0.151 C 
HETATM   14  C2  UNL     1      -7.003  19.917   5.969  1.00  0.00     0.151 C 
ENDBRANCH  11  12
BRANCH  11  15
HETATM   15  O1  UNL     1      -6.053  17.458   4.056  1.00  0.00    -0.345 OA
ATOM     16  H1  UNL     1      -6.445  16.891   3.402  1.00  0.00     0.219 HD
ENDBRANCH  11  15
ENDBRANCH   7  10
ENDBRANCH   1   6
BRANCH   5  17
HETATM   17  C11 UNL     1      -6.297  23.201   3.532  1.00  0.00     0.223 C 
HETATM   18  O3  UNL     1      -7.259  22.523   3.958  1.00  0.00    -0.273 OA
HETATM   19  N3  UNL     1      -5.395  23.713   4.485  1.00  0.00    -0.355 N 
ATOM     20  H3  UNL     1      -4.601  24.269   4.168  1.00  0.00     0.162 HD
BRANCH  19  21
HETATM   21  C12 UNL     1      -5.567  23.467   5.929  1.00  0.00     0.102 C 
HETATM   22  C13 UNL     1      -4.346  23.868   6.689  1.00  0.00     0.027 C 
HETATM   23  C14 UNL     1      -4.658  24.350   8.092  1.00  0.00     0.002 C 
HETATM   24  C15 UNL     1      -5.489  25.592   7.977  1.00  0.00     0.002 C 
HETATM   25  C16 UNL     1      -6.585  25.507   6.971  1.00  0.00     0.022 C 
HETATM   26  C17 UNL     1      -6.825  24.130   6.435  1.00  0.00     0.105 C 
HETATM   27 CL1  UNL     1      -7.666  23.080   7.609  1.00  0.00    -0.123 Cl
ENDBRANCH  19  21
ENDBRANCH   5  17
TORSDOF 6
ENDMDL
MODEL 4
REMARK VINA RESULT: -6.300116645      2.551      4.926
REMARK  6 active torsions:
REMARK  status: ('A' for Active; 'I' for Inactive)
REMARK    1  A    between atoms: N1_2  and  C3_4 
REMARK    2  A    between atoms: C3_4  and  O1_5 
REMARK    3  A    between atoms: C4_7  and  N2_8 
REMARK       I    between atoms: N2_8  and  C5_10 
REMARK    4  A    between atoms: C5_10  and  C6_12 
REMARK    5  A    between atoms: C10_16  and  C11_17 
REMARK       I    between atoms: C11_17  and  N3_19 
REMARK    6  A    between atoms: N3_19  and  C12_21 
ROOT
HETATM    1  C6  UNL     1      -6.253  21.696   5.916  1.00  0.00     0.091 C 
HETATM    2  C7  UNL     1      -7.486  21.454   6.720  1.00  0.00     0.015 C 
HETATM    3  C8  UNL     1      -7.864  22.798   7.273  1.00  0.00     0.002 C 
HETATM    4  C9  UNL     1      -6.912  23.809   6.709  1.00  0.00     0.015 C 
HETATM    5  C10 UNL     1      -6.253  23.133   5.546  1.00  0.00     0.091 C 
ENDROOT
BRANCH   1   6
HETATM    6  C5  UNL     1      -6.007  20.751   4.860  1.00  0.00     0.226 C 
HETATM    7  N2  UNL     1      -6.307  19.353   5.088  1.00  0.00    -0.333 N 
ATOM      8  H2  UNL     1      -6.688  19.064   5.989  1.00  0.00     0.168 HD
HETATM    9  O2  UNL     1      -5.551  21.048   3.762  1.00  0.00    -0.273 OA
BRANCH   7  10
HETATM   10  C4  UNL     1      -6.084  18.385   4.090  1.00  0.00     0.146 C 
HETATM   11  C3  UNL     1      -7.219  17.769   3.465  1.00  0.00     0.153 C 
BRANCH  11  12
HETATM   12  N1  UNL     1      -8.594  17.880   3.588  1.00  0.00    -0.370 N 
HETATM   13  C1  UNL     1      -9.389  16.602   3.636  1.00  0.00     0.151 C 
HETATM   14  C2  UNL     1      -9.409  19.047   3.680  1.00  0.00     0.151 C 
ENDBRANCH  11  12
BRANCH  11  15
HETATM   15  O1  UNL     1      -6.880  16.866   2.532  1.00  0.00    -0.345 OA
ATOM     16  H1  UNL     1      -7.616  16.650   1.972  1.00  0.00     0.219 HD
ENDBRANCH  11  15
ENDBRANCH   7  10
ENDBRANCH   1   6
BRANCH   5  17
HETATM   17  C11 UNL     1      -6.913  23.509   4.307  1.00  0.00     0.223 C 
HETATM   18  O3  UNL     1      -8.089  23.153   4.066  1.00  0.00    -0.273 OA
HETATM   19  N3  UNL     1      -6.259  24.283   3.330  1.00  0.00    -0.355 N 
ATOM     20  H3  UNL     1      -5.301  24.588   3.498  1.00  0.00     0.162 HD
BRANCH  19  21
HETATM   21  C12 UNL     1      -6.921  24.667   2.069  1.00  0.00     0.102 C 
HETATM   22  C13 UNL     1      -7.840  25.824   2.277  1.00  0.00     0.027 C 
HETATM   23  C14 UNL     1      -7.957  26.711   1.052  1.00  0.00     0.002 C 
HETATM   24  C15 UNL     1      -6.608  27.307   0.786  1.00  0.00     0.002 C 
HETATM   25  C16 UNL     1      -5.479  26.341   0.886  1.00  0.00     0.022 C 
HETATM   26  C17 UNL     1      -5.899  24.908   0.984  1.00  0.00     0.105 C 
HETATM   27 CL1  UNL     1      -6.468  24.256  -0.578  1.00  0.00    -0.123 Cl
ENDBRANCH  19  21
ENDBRANCH   5  17
TORSDOF 6
ENDMDL
MODEL 5
REMARK VINA RESULT: -6.276708251      3.292      6.730
REMARK  6 active torsions:
REMARK  status: ('A' for Active; 'I' for Inactive)
REMARK    1  A    between atoms: N1_2  and  C3_4 
REMARK    2  A    between atoms: C3_4  and  O1_5 
REMARK    3  A    between atoms: C4_7  and  N2_8 
REMARK       I    between atoms: N2_8  and  C5_10 
REMARK    4  A    between atoms: C5_10  and  C6_12 
REMARK    5  A    between atoms: C10_16  and  C11_17 
REMARK       I    between atoms: C11_17  and  N3_19 
REMARK    6  A    between atoms: N3_19  and  C12_21 
ROOT
HETATM    1  C6  UNL     1      -5.547  24.501   5.156  1.00  0.00     0.091 C 
HETATM    2  C7  UNL     1      -6.912  25.048   4.904  1.00  0.00     0.015 C 
HETATM    3  C8  UNL     1      -7.265  24.598   3.516  1.00  0.00     0.002 C 
HETATM    4  C9  UNL     1      -6.154  23.723   3.022  1.00  0.00     0.015 C 
HETATM    5  C10 UNL     1      -5.368  23.346   4.240  1.00  0.00     0.091 C 
ENDROOT
BRANCH   1   6
HETATM    6  C5  UNL     1      -5.206  24.295   6.538  1.00  0.00     0.226 C 
HETATM    7  N2  UNL     1      -6.267  24.280   7.525  1.00  0.00    -0.333 N 
ATOM      8  H2  UNL     1      -7.232  24.414   7.224  1.00  0.00     0.168 HD
HETATM    9  O2  UNL     1      -4.065  24.130   6.949  1.00  0.00    -0.273 OA
BRANCH   7  10
HETATM   10  C4  UNL     1      -5.991  24.084   8.892  1.00  0.00     0.146 C 
HETATM   11  C3  UNL     1      -5.792  25.235   9.724  1.00  0.00     0.153 C 
BRANCH  11  12
HETATM   12  N1  UNL     1      -5.799  26.606   9.528  1.00  0.00    -0.370 N 
HETATM   13  C1  UNL     1      -6.208  27.468  10.693  1.00  0.00     0.151 C 
HETATM   14  C2  UNL     1      -5.472  27.362   8.364  1.00  0.00     0.151 C 
ENDBRANCH  11  12
BRANCH  11  15
HETATM   15  O1  UNL     1      -5.537  24.921  11.003  1.00  0.00    -0.345 OA
ATOM     16  H1  UNL     1      -6.295  24.533  11.424  1.00  0.00     0.219 HD
ENDBRANCH  11  15
ENDBRANCH   7  10
ENDBRANCH   1   6
BRANCH   5  17
HETATM   17  C11 UNL     1      -5.781  22.038   4.720  1.00  0.00     0.223 C 
HETATM   18  O3  UNL     1      -5.527  21.666   5.888  1.00  0.00    -0.273 OA
HETATM   19  N3  UNL     1      -6.479  21.138   3.893  1.00  0.00    -0.355 N 
ATOM     20  H3  UNL     1      -6.701  21.413   2.936  1.00  0.00     0.162 HD
BRANCH  19  21
HETATM   21  C12 UNL     1      -6.900  19.807   4.371  1.00  0.00     0.102 C 
HETATM   22  C13 UNL     1      -8.232  19.875   5.042  1.00  0.00     0.027 C 
HETATM   23  C14 UNL     1      -9.035  18.599   4.887  1.00  0.00     0.002 C 
HETATM   24  C15 UNL     1      -9.325  18.413   3.428  1.00  0.00     0.002 C 
HETATM   25  C16 UNL     1      -8.160  18.659   2.533  1.00  0.00     0.022 C 
HETATM   26  C17 UNL     1      -6.852  18.800   3.248  1.00  0.00     0.105 C 
HETATM   27 CL1  UNL     1      -6.222  17.233   3.829  1.00  0.00    -0.123 Cl
ENDBRANCH  19  21
ENDBRANCH   5  17
TORSDOF 6
ENDMDL
