MODEL 1
REMARK VINA RESULT: -7.124290067      0.000      0.000
REMARK  5 active torsions:
REMARK  status: ('A' for Active; 'I' for Inactive)
REMARK       I    between atoms: C2_3  and  N2_4 
REMARK       I    between atoms: C2_3  and  N5_20 
REMARK    1  A    between atoms: N2_4  and  C3_6 
REMARK    2  A    between atoms: C3_6  and  C4_7 
REMARK    3  A    between atoms: C4_7  and  C5_8 
REMARK    4  A    between atoms: C5_8  and  N3_9 
REMARK    5  A    between atoms: C8_12  and  C9_13 
REMARK       I    between atoms: C9_13  and  N4_15 
ROOT
HETATM    1  C1  UNL     1      -5.767  26.325  11.176  1.00  0.00     0.233 C 
HETATM    2  N1  UNL     1      -6.017  27.052  10.111  1.00  0.00    -0.396 NA
HETATM    3  C2  UNL     1      -6.246  27.718   9.146  1.00  0.00     0.251 C 
HETATM    4  N2  UNL     1      -5.960  27.209   7.787  1.00  0.00    -0.350 N 
ATOM      5  H2  UNL     1      -5.551  27.790   7.054  1.00  0.00     0.163 HD
HETATM    6  N5  UNL     1      -6.809  29.025   9.304  1.00  0.00    -0.342 N 
HETATM    7  C13 UNL     1      -7.780  29.204  10.362  1.00  0.00     0.128 C 
HETATM    8  C14 UNL     1      -7.949  30.695  10.610  1.00  0.00     0.040 C 
HETATM    9  C15 UNL     1      -8.432  31.350   9.360  1.00  0.00     0.085 C 
HETATM   10 CL1  UNL     1      -8.011  33.094   9.386  1.00  0.00    -0.125 Cl
HETATM   11  C16 UNL     1      -7.812  30.802   8.104  1.00  0.00     0.040 C 
HETATM   12  C17 UNL     1      -6.473  30.166   8.514  1.00  0.00     0.128 C 
ENDROOT
BRANCH   4  13
HETATM   13  C3  UNL     1      -6.305  25.829   7.583  1.00  0.00     0.125 C 
BRANCH  13  14
HETATM   14  C4  UNL     1      -6.399  25.417   6.162  1.00  0.00     0.050 C 
BRANCH  14  15
HETATM   15  C5  UNL     1      -7.145  24.158   5.842  1.00  0.00     0.274 C 
BRANCH  15  16
HETATM   16  N3  UNL     1      -6.425  23.114   6.640  1.00  0.00     0.088 N 
HETATM   17  C6  UNL     1      -7.447  22.164   7.023  1.00  0.00     0.273 C 
HETATM   18  C7  UNL     1      -6.899  20.742   6.984  1.00  0.00     0.044 C 
HETATM   19  C8  UNL     1      -6.612  20.396   5.527  1.00  0.00     0.081 C 
HETATM   20  C11 UNL     1      -5.927  21.536   4.845  1.00  0.00     0.044 C 
HETATM   21  C12 UNL     1      -5.398  22.546   5.839  1.00  0.00     0.273 C 
BRANCH  19  22
HETATM   22  C9  UNL     1      -7.881  20.107   4.804  1.00  0.00     0.221 C 
HETATM   23  O1  UNL     1      -8.630  21.018   4.326  1.00  0.00    -0.273 OA
HETATM   24  N4  UNL     1      -8.289  18.760   4.634  1.00  0.00    -0.365 N 
HETATM   25  C10 UNL     1      -9.523  18.475   3.929  1.00  0.00     0.149 C 
ATOM     26  H4  UNL     1      -7.720  18.000   5.005  1.00  0.00     0.161 HD
ENDBRANCH  19  22
ENDBRANCH  15  16
ENDBRANCH  14  15
ENDBRANCH  13  14
ENDBRANCH   4  13
TORSDOF 4
ENDMDL
MODEL 2
REMARK VINA RESULT: -7.100066220      1.429      1.727
REMARK  5 active torsions:
REMARK  status: ('A' for Active; 'I' for Inactive)
REMARK       I    between atoms: C2_3  and  N2_4 
REMARK       I    between atoms: C2_3  and  N5_20 
REMARK    1  A    between atoms: N2_4  and  C3_6 
REMARK    2  A    between atoms: C3_6  and  C4_7 
REMARK    3  A    between atoms: C4_7  and  C5_8 
REMARK    4  A    between atoms: C5_8  and  N3_9 
REMARK    5  A    between atoms: C8_12  and  C9_13 
REMARK       I    between atoms: C9_13  and  N4_15 
ROOT
HETATM    1  C1  UNL     1      -6.106  26.476  11.689  1.00  0.00     0.233 C 
HETATM    2  N1  UNL     1      -6.047  27.289  10.661  1.00  0.00    -0.396 NA
HETATM    3  C2  UNL     1      -5.996  28.034   9.727  1.00  0.00     0.251 C 
HETATM    4  N2  UNL     1      -5.209  27.689   8.523  1.00  0.00    -0.350 N 
ATOM      5  H2  UNL     1      -4.634  28.369   8.026  1.00  0.00     0.163 HD
HETATM    6  N5  UNL     1      -6.709  29.274   9.771  1.00  0.00    -0.342 N 
HETATM    7  C13 UNL     1      -7.998  29.274  10.429  1.00  0.00     0.128 C 
HETATM    8  C14 UNL     1      -8.393  30.716  10.708  1.00  0.00     0.040 C 
HETATM    9  C15 UNL     1      -8.480  31.460   9.420  1.00  0.00     0.085 C 
HETATM   10 CL1  UNL     1      -8.274  33.218   9.717  1.00  0.00    -0.125 Cl
HETATM   11  C16 UNL     1      -7.413  31.090   8.426  1.00  0.00     0.040 C 
HETATM   12  C17 UNL     1      -6.239  30.511   9.235  1.00  0.00     0.128 C 
ENDROOT
BRANCH   4  13
HETATM   13  C3  UNL     1      -5.320  26.316   8.112  1.00  0.00     0.125 C 
BRANCH  13  14
HETATM   14  C4  UNL     1      -5.855  26.121   6.743  1.00  0.00     0.050 C 
BRANCH  14  15
HETATM   15  C5  UNL     1      -5.763  24.752   6.141  1.00  0.00     0.274 C 
BRANCH  15  16
HETATM   16  N3  UNL     1      -7.163  24.231   6.244  1.00  0.00     0.088 N 
HETATM   17  C6  UNL     1      -7.465  23.702   4.931  1.00  0.00     0.273 C 
HETATM   18  C7  UNL     1      -8.304  22.434   5.043  1.00  0.00     0.044 C 
HETATM   19  C8  UNL     1      -7.431  21.355   5.676  1.00  0.00     0.081 C 
HETATM   20  C11 UNL     1      -6.667  21.914   6.833  1.00  0.00     0.044 C 
HETATM   21  C12 UNL     1      -7.218  23.252   7.274  1.00  0.00     0.273 C 
BRANCH  19  22
HETATM   22  C9  UNL     1      -6.459  20.826   4.679  1.00  0.00     0.221 C 
HETATM   23  O1  UNL     1      -5.254  21.230   4.604  1.00  0.00    -0.273 OA
HETATM   24  N4  UNL     1      -6.880  19.830   3.764  1.00  0.00    -0.365 N 
HETATM   25  C10 UNL     1      -5.937  19.310   2.794  1.00  0.00     0.149 C 
ATOM     26  H4  UNL     1      -7.838  19.481   3.788  1.00  0.00     0.161 HD
ENDBRANCH  19  22
ENDBRANCH  15  16
ENDBRANCH  14  15
ENDBRANCH  13  14
ENDBRANCH   4  13
TORSDOF 4
ENDMDL
MODEL 3
REMARK VINA RESULT: -6.711876935      5.339      9.449
REMARK  5 active torsions:
REMARK  status: ('A' for Active; 'I' for Inactive)
REMARK       I    between atoms: C2_3  and  N2_4 
REMARK       I    between atoms: C2_3  and  N5_20 
REMARK    1  A    between atoms: N2_4  and  C3_6 
REMARK    2  A    between atoms: C3_6  and  C4_7 
REMARK    3  A    between atoms: C4_7  and  C5_8 
REMARK    4  A    between atoms: C5_8  and  N3_9 
REMARK    5  A    between atoms: C8_12  and  C9_13 
REMARK       I    between atoms: C9_13  and  N4_15 
ROOT
HETATM    1  C1  UNL     1      -6.021  18.919   3.095  1.00  0.00     0.233 C 
HETATM    2  N1  UNL     1      -5.572  19.957   2.428  1.00  0.00    -0.396 NA
HETATM    3  C2  UNL     1      -5.161  20.898   1.817  1.00  0.00     0.251 C 
HETATM    4  N2  UNL     1      -5.591  22.271   2.159  1.00  0.00    -0.350 N 
ATOM      5  H2  UNL     1      -5.813  22.972   1.451  1.00  0.00     0.163 HD
HETATM    6  N5  UNL     1      -4.236  20.697   0.744  1.00  0.00    -0.342 N 
HETATM    7  C13 UNL     1      -3.250  19.650   0.906  1.00  0.00     0.128 C 
HETATM    8  C14 UNL     1      -2.647  19.344  -0.456  1.00  0.00     0.040 C 
HETATM    9  C15 UNL     1      -1.998  20.574  -0.994  1.00  0.00     0.085 C 
HETATM   10 CL1  UNL     1      -1.884  20.470  -2.781  1.00  0.00    -0.125 Cl
HETATM   11  C16 UNL     1      -2.758  21.841  -0.709  1.00  0.00     0.040 C 
HETATM   12  C17 UNL     1      -4.223  21.433  -0.479  1.00  0.00     0.128 C 
ENDROOT
BRANCH   4  13
HETATM   13  C3  UNL     1      -5.670  22.537   3.570  1.00  0.00     0.125 C 
BRANCH  13  14
HETATM   14  C4  UNL     1      -5.588  23.972   3.935  1.00  0.00     0.050 C 
BRANCH  14  15
HETATM   15  C5  UNL     1      -4.298  24.479   4.504  1.00  0.00     0.274 C 
BRANCH  15  16
HETATM   16  N3  UNL     1      -4.729  25.248   5.714  1.00  0.00     0.088 N 
HETATM   17  C6  UNL     1      -6.169  25.101   5.759  1.00  0.00     0.273 C 
HETATM   18  C7  UNL     1      -6.649  24.966   7.200  1.00  0.00     0.044 C 
HETATM   19  C8  UNL     1      -6.132  23.637   7.738  1.00  0.00     0.081 C 
HETATM   20  C11 UNL     1      -4.702  23.436   7.350  1.00  0.00     0.044 C 
HETATM   21  C12 UNL     1      -4.071  24.720   6.857  1.00  0.00     0.273 C 
BRANCH  19  22
HETATM   22  C9  UNL     1      -6.934  22.509   7.187  1.00  0.00     0.221 C 
HETATM   23  O1  UNL     1      -8.157  22.625   6.856  1.00  0.00    -0.273 OA
HETATM   24  N4  UNL     1      -6.322  21.242   7.021  1.00  0.00    -0.365 N 
HETATM   25  C10 UNL     1      -7.098  20.142   6.483  1.00  0.00     0.149 C 
ATOM     26  H4  UNL     1      -5.344  21.105   7.277  1.00  0.00     0.161 HD
ENDBRANCH  19  22
ENDBRANCH  15  16
ENDBRANCH  14  15
ENDBRANCH  13  14
ENDBRANCH   4  13
TORSDOF 4
ENDMDL
MODEL 4
REMARK VINA RESULT: -6.682095508      5.595     10.106
REMARK  5 active torsions:
REMARK  status: ('A' for Active; 'I' for Inactive)
REMARK       I    between atoms: C2_3  and  N2_4 
REMARK       I    between atoms: C2_3  and  N5_20 
REMARK    1  A    between atoms: N2_4  and  C3_6 
REMARK    2  A    between atoms: C3_6  and  C4_7 
REMARK    3  A    between atoms: C4_7  and  C5_8 
REMARK    4  A    between atoms: C5_8  and  N3_9 
REMARK    5  A    between atoms: C8_12  and  C9_13 
REMARK       I    between atoms: C9_13  and  N4_15 
ROOT
HETATM    1  C1  UNL     1      -5.990  19.028   2.849  1.00  0.00     0.233 C 
HETATM    2  N1  UNL     1      -5.484  20.009   2.139  1.00  0.00    -0.396 NA
HETATM    3  C2  UNL     1      -5.021  20.898   1.488  1.00  0.00     0.251 C 
HETATM    4  N2  UNL     1      -5.470  22.294   1.681  1.00  0.00    -0.350 N 
ATOM      5  H2  UNL     1      -5.632  22.935   0.904  1.00  0.00     0.163 HD
HETATM    6  N5  UNL     1      -4.014  20.612   0.512  1.00  0.00    -0.342 N 
HETATM    7  C13 UNL     1      -3.050  19.583   0.837  1.00  0.00     0.128 C 
HETATM    8  C14 UNL     1      -2.341  19.168  -0.443  1.00  0.00     0.040 C 
HETATM    9  C15 UNL     1      -1.645  20.351  -1.025  1.00  0.00     0.085 C 
HETATM   10 CL1  UNL     1      -1.389  20.103  -2.783  1.00  0.00    -0.125 Cl
HETATM   11  C16 UNL     1      -2.419  21.636  -0.906  1.00  0.00     0.040 C 
HETATM   12  C17 UNL     1      -3.900  21.246  -0.762  1.00  0.00     0.128 C 
ENDROOT
BRANCH   4  13
HETATM   13  C3  UNL     1      -5.661  22.674   3.055  1.00  0.00     0.125 C 
BRANCH  13  14
HETATM   14  C4  UNL     1      -4.456  23.229   3.717  1.00  0.00     0.050 C 
BRANCH  14  15
HETATM   15  C5  UNL     1      -4.588  23.710   5.130  1.00  0.00     0.274 C 
BRANCH  15  16
HETATM   16  N3  UNL     1      -5.967  23.275   5.518  1.00  0.00     0.088 N 
HETATM   17  C6  UNL     1      -5.809  22.626   6.802  1.00  0.00     0.273 C 
HETATM   18  C7  UNL     1      -6.991  22.941   7.712  1.00  0.00     0.044 C 
HETATM   19  C8  UNL     1      -6.934  24.427   8.048  1.00  0.00     0.081 C 
HETATM   20  C11 UNL     1      -6.632  25.229   6.822  1.00  0.00     0.044 C 
HETATM   21  C12 UNL     1      -6.817  24.413   5.561  1.00  0.00     0.273 C 
BRANCH  19  22
HETATM   22  C9  UNL     1      -5.872  24.689   9.057  1.00  0.00     0.221 C 
HETATM   23  O1  UNL     1      -4.631  24.685   8.774  1.00  0.00    -0.273 OA
HETATM   24  N4  UNL     1      -6.242  24.955  10.399  1.00  0.00    -0.365 N 
HETATM   25  C10 UNL     1      -5.211  25.213  11.384  1.00  0.00     0.149 C 
ATOM     26  H4  UNL     1      -7.226  24.965  10.668  1.00  0.00     0.161 HD
ENDBRANCH  19  22
ENDBRANCH  15  16
ENDBRANCH  14  15
ENDBRANCH  13  14
ENDBRANCH   4  13
TORSDOF 4
ENDMDL
MODEL 5
REMARK VINA RESULT: -6.639199368      2.172      2.570
REMARK  5 active torsions:
REMARK  status: ('A' for Active; 'I' for Inactive)
REMARK       I    between atoms: C2_3  and  N2_4 
REMARK       I    between atoms: C2_3  and  N5_20 
REMARK    1  A    between atoms: N2_4  and  C3_6 
REMARK    2  A    between atoms: C3_6  and  C4_7 
REMARK    3  A    between atoms: C4_7  and  C5_8 
REMARK    4  A    between atoms: C5_8  and  N3_9 
REMARK    5  A    between atoms: C8_12  and  C9_13 
REMARK       I    between atoms: C9_13  and  N4_15 
ROOT
HETATM    1  C1  UNL     1      -6.864  24.095   8.502  1.00  0.00     0.233 C 
HETATM    2  N1  UNL     1      -6.319  25.118   7.886  1.00  0.00    -0.396 NA
HETATM    3  C2  UNL     1      -5.821  26.052   7.331  1.00  0.00     0.251 C 
HETATM    4  N2  UNL     1      -5.685  26.076   5.859  1.00  0.00    -0.350 N 
ATOM      5  H2  UNL     1      -4.849  26.421   5.387  1.00  0.00     0.163 HD
HETATM    6  N5  UNL     1      -5.355  27.167   8.099  1.00  0.00    -0.342 N 
HETATM    7  C13 UNL     1      -6.133  27.543   9.260  1.00  0.00     0.128 C 
HETATM    8  C14 UNL     1      -5.283  28.456  10.131  1.00  0.00     0.040 C 
HETATM    9  C15 UNL     1      -4.911  29.672   9.351  1.00  0.00     0.085 C 
HETATM   10 CL1  UNL     1      -3.430  30.409  10.045  1.00  0.00    -0.125 Cl
HETATM   11  C16 UNL     1      -4.590  29.398   7.907  1.00  0.00     0.040 C 
HETATM   12  C17 UNL     1      -4.174  27.920   7.821  1.00  0.00     0.128 C 
ENDROOT
BRANCH   4  13
HETATM   13  C3  UNL     1      -6.828  25.572   5.146  1.00  0.00     0.125 C 
BRANCH  13  14
HETATM   14  C4  UNL     1      -6.602  24.286   4.443  1.00  0.00     0.050 C 
BRANCH  14  15
HETATM   15  C5  UNL     1      -7.554  23.161   4.713  1.00  0.00     0.274 C 
BRANCH  15  16
HETATM   16  N3  UNL     1      -6.741  22.204   5.528  1.00  0.00     0.088 N 
HETATM   17  C6  UNL     1      -7.709  21.327   6.152  1.00  0.00     0.273 C 
HETATM   18  C7  UNL     1      -7.179  19.899   6.212  1.00  0.00     0.044 C 
HETATM   19  C8  UNL     1      -7.088  19.378   4.782  1.00  0.00     0.081 C 
HETATM   20  C11 UNL     1      -6.492  20.416   3.885  1.00  0.00     0.044 C 
HETATM   21  C12 UNL     1      -5.831  21.524   4.674  1.00  0.00     0.273 C 
BRANCH  19  22
HETATM   22  C9  UNL     1      -8.443  19.033   4.270  1.00  0.00     0.221 C 
HETATM   23  O1  UNL     1      -9.234  19.893   3.768  1.00  0.00    -0.273 OA
HETATM   24  N4  UNL     1      -8.886  17.688   4.340  1.00  0.00    -0.365 N 
HETATM   25  C10 UNL     1     -10.204  17.348   3.840  1.00  0.00     0.149 C 
ATOM     26  H4  UNL     1      -8.284  16.968   4.737  1.00  0.00     0.161 HD
ENDBRANCH  19  22
ENDBRANCH  15  16
ENDBRANCH  14  15
ENDBRANCH  13  14
ENDBRANCH   4  13
TORSDOF 4
ENDMDL
