MODEL 1
REMARK VINA RESULT: -6.495263018      0.000      0.000
REMARK  7 active torsions:
REMARK  status: ('A' for Active; 'I' for Inactive)
REMARK    1  A    between atoms: C2_2  and  C3_3 
REMARK       I    between atoms: C3_3  and  N1_5 
REMARK    2  A    between atoms: N1_5  and  N2_6 
REMARK    3  A    between atoms: N2_6  and  C4_7 
REMARK    4  A    between atoms: N2_6  and  C8_15 
REMARK    5  A    between atoms: C4_7  and  C5_8 
REMARK       I    between atoms: C5_8  and  N3_10 
REMARK    6  A    between atoms: C6_12  and  C7_13 
REMARK    7  A    between atoms: C8_15  and  C11_18 
ROOT
HETATM    1  N2  UNL     1      -6.061  21.952   4.863  1.00  0.00    -0.220 N 
ENDROOT
BRANCH   1   2
HETATM    2  N1  UNL     1      -5.548  21.825   3.669  1.00  0.00    -0.284 NA
HETATM    3  C3  UNL     1      -5.006  21.685   2.418  1.00  0.00     0.312 C 
HETATM    4  O1  UNL     1      -4.280  20.694   2.044  1.00  0.00    -0.255 OA
BRANCH   3   5
HETATM    5  C2  UNL     1      -5.230  22.718   1.316  1.00  0.00     0.117 C 
HETATM    6  C1  UNL     1      -5.095  24.081   1.879  1.00  0.00     0.016 C 
ENDBRANCH   3   5
ENDBRANCH   1   2
BRANCH   1   7
HETATM    7  C4  UNL     1      -6.475  20.759   5.568  1.00  0.00     0.199 C 
BRANCH   7   8
HETATM    8  C5  UNL     1      -6.502  19.517   4.822  1.00  0.00     0.263 C 
HETATM    9  O2  UNL     1      -5.690  18.623   4.903  1.00  0.00    -0.267 OA
HETATM   10  N3  UNL     1      -7.595  19.307   3.898  1.00  0.00    -0.335 N 
HETATM   11  C6  UNL     1      -8.678  18.757   4.294  1.00  0.00     0.075 C 
ATOM     12  H3  UNL     1      -7.501  19.600   2.925  1.00  0.00     0.168 HD
BRANCH  11  13
HETATM   13  C7  UNL     1      -9.801  18.530   3.376  1.00  0.00     0.129 C 
HETATM   14 BR1  UNL     1     -10.222  16.663   3.106  1.00  0.00    -0.091 Br
ENDBRANCH  11  13
ENDBRANCH   7   8
ENDBRANCH   1   7
BRANCH   1  15
HETATM   15  C8  UNL     1      -6.877  23.027   5.304  1.00  0.00     0.065 C 
HETATM   16  C9  UNL     1      -7.682  22.432   6.497  1.00  0.00     0.042 C 
HETATM   17  C10 UNL     1      -7.905  23.535   4.327  1.00  0.00     0.042 C 
BRANCH  15  18
HETATM   18  C11 UNL     1      -6.155  24.164   5.978  1.00  0.00    -0.024 C 
HETATM   19  C12 UNL     1      -4.695  24.095   6.072  1.00  0.00     0.017 C 
HETATM   20  C13 UNL     1      -6.523  25.425   5.186  1.00  0.00     0.017 C 
HETATM   21  C14 UNL     1      -6.702  24.399   7.391  1.00  0.00     0.017 C 
ENDBRANCH  15  18
ENDBRANCH   1  15
TORSDOF 7
ENDMDL
MODEL 2
REMARK VINA RESULT: -6.207909490      1.417      1.834
REMARK  7 active torsions:
REMARK  status: ('A' for Active; 'I' for Inactive)
REMARK    1  A    between atoms: C2_2  and  C3_3 
REMARK       I    between atoms: C3_3  and  N1_5 
REMARK    2  A    between atoms: N1_5  and  N2_6 
REMARK    3  A    between atoms: N2_6  and  C4_7 
REMARK    4  A    between atoms: N2_6  and  C8_15 
REMARK    5  A    between atoms: C4_7  and  C5_8 
REMARK       I    between atoms: C5_8  and  N3_10 
REMARK    6  A    between atoms: C6_12  and  C7_13 
REMARK    7  A    between atoms: C8_15  and  C11_18 
ROOT
HETATM    1  N2  UNL     1      -6.271  21.543   4.529  1.00  0.00    -0.220 N 
ENDROOT
BRANCH   1   2
HETATM    2  N1  UNL     1      -6.023  22.119   3.383  1.00  0.00    -0.284 NA
HETATM    3  C3  UNL     1      -5.760  22.717   2.178  1.00  0.00     0.312 C 
HETATM    4  O1  UNL     1      -5.392  22.092   1.118  1.00  0.00    -0.255 OA
BRANCH   3   5
HETATM    5  C2  UNL     1      -5.897  24.224   1.972  1.00  0.00     0.117 C 
HETATM    6  C1  UNL     1      -7.239  24.665   2.417  1.00  0.00     0.016 C 
ENDBRANCH   3   5
ENDBRANCH   1   2
BRANCH   1   7
HETATM    7  C4  UNL     1      -6.187  20.102   4.610  1.00  0.00     0.199 C 
BRANCH   7   8
HETATM    8  C5  UNL     1      -6.142  19.364   3.364  1.00  0.00     0.263 C 
HETATM    9  O2  UNL     1      -5.183  19.268   2.630  1.00  0.00    -0.267 OA
HETATM   10  N3  UNL     1      -7.338  18.665   2.949  1.00  0.00    -0.335 N 
HETATM   11  C6  UNL     1      -7.543  17.461   3.322  1.00  0.00     0.075 C 
ATOM     12  H3  UNL     1      -8.021  19.137   2.356  1.00  0.00     0.168 HD
BRANCH  11  13
HETATM   13  C7  UNL     1      -8.748  16.728   2.912  1.00  0.00     0.129 C 
HETATM   14 BR1  UNL     1     -10.313  17.147   3.968  1.00  0.00    -0.091 Br
ENDBRANCH  11  13
ENDBRANCH   7   8
ENDBRANCH   1   7
BRANCH   1  15
HETATM   15  C8  UNL     1      -7.221  21.982   5.488  1.00  0.00     0.065 C 
HETATM   16  C9  UNL     1      -7.422  20.749   6.418  1.00  0.00     0.042 C 
HETATM   17  C10 UNL     1      -8.590  22.330   4.966  1.00  0.00     0.042 C 
BRANCH  15  18
HETATM   18  C11 UNL     1      -6.733  23.013   6.471  1.00  0.00    -0.024 C 
HETATM   19  C12 UNL     1      -6.764  24.421   6.067  1.00  0.00     0.017 C 
HETATM   20  C13 UNL     1      -7.613  22.855   7.717  1.00  0.00     0.017 C 
HETATM   21  C14 UNL     1      -5.308  22.694   6.938  1.00  0.00     0.017 C 
ENDBRANCH  15  18
ENDBRANCH   1  15
TORSDOF 7
ENDMDL
MODEL 3
REMARK VINA RESULT: -6.119738374      1.919      2.800
REMARK  7 active torsions:
REMARK  status: ('A' for Active; 'I' for Inactive)
REMARK    1  A    between atoms: C2_2  and  C3_3 
REMARK       I    between atoms: C3_3  and  N1_5 
REMARK    2  A    between atoms: N1_5  and  N2_6 
REMARK    3  A    between atoms: N2_6  and  C4_7 
REMARK    4  A    between atoms: N2_6  and  C8_15 
REMARK    5  A    between atoms: C4_7  and  C5_8 
REMARK       I    between atoms: C5_8  and  N3_10 
REMARK    6  A    between atoms: C6_12  and  C7_13 
REMARK    7  A    between atoms: C8_15  and  C11_18 
ROOT
HETATM    1  N2  UNL     1      -6.807  22.800   5.620  1.00  0.00    -0.220 N 
ENDROOT
BRANCH   1   2
HETATM    2  N1  UNL     1      -7.817  23.042   4.828  1.00  0.00    -0.284 NA
HETATM    3  C3  UNL     1      -8.880  23.289   3.999  1.00  0.00     0.312 C 
HETATM    4  O1  UNL     1      -9.931  22.555   3.922  1.00  0.00    -0.255 OA
BRANCH   3   5
HETATM    5  C2  UNL     1      -8.922  24.501   3.071  1.00  0.00     0.117 C 
HETATM    6  C1  UNL     1      -7.544  24.990   2.832  1.00  0.00     0.016 C 
ENDBRANCH   3   5
ENDBRANCH   1   2
BRANCH   1   7
HETATM    7  C4  UNL     1      -6.045  21.589   5.418  1.00  0.00     0.199 C 
BRANCH   7   8
HETATM    8  C5  UNL     1      -6.307  20.827   4.214  1.00  0.00     0.263 C 
HETATM    9  O2  UNL     1      -5.519  20.623   3.317  1.00  0.00    -0.267 OA
HETATM   10  N3  UNL     1      -7.621  20.244   4.055  1.00  0.00    -0.335 N 
HETATM   11  C6  UNL     1      -7.864  19.073   4.503  1.00  0.00     0.075 C 
ATOM     12  H3  UNL     1      -8.356  20.770   3.583  1.00  0.00     0.168 HD
BRANCH  11  13
HETATM   13  C7  UNL     1      -9.189  18.457   4.353  1.00  0.00     0.129 C 
HETATM   14 BR1  UNL     1      -9.185  16.850   3.277  1.00  0.00    -0.091 Br
ENDBRANCH  11  13
ENDBRANCH   7   8
ENDBRANCH   1   7
BRANCH   1  15
HETATM   15  C8  UNL     1      -6.735  23.140   6.997  1.00  0.00     0.065 C 
HETATM   16  C9  UNL     1      -5.628  22.202   7.564  1.00  0.00     0.042 C 
HETATM   17  C10 UNL     1      -7.965  22.867   7.821  1.00  0.00     0.042 C 
BRANCH  15  18
HETATM   18  C11 UNL     1      -6.157  24.495   7.310  1.00  0.00    -0.024 C 
HETATM   19  C12 UNL     1      -6.587  25.633   6.493  1.00  0.00     0.017 C 
HETATM   20  C13 UNL     1      -6.531  24.786   8.768  1.00  0.00     0.017 C 
HETATM   21  C14 UNL     1      -4.624  24.456   7.284  1.00  0.00     0.017 C 
ENDBRANCH  15  18
ENDBRANCH   1  15
TORSDOF 7
ENDMDL
MODEL 4
REMARK VINA RESULT: -6.116804608      1.345      1.645
REMARK  7 active torsions:
REMARK  status: ('A' for Active; 'I' for Inactive)
REMARK    1  A    between atoms: C2_2  and  C3_3 
REMARK       I    between atoms: C3_3  and  N1_5 
REMARK    2  A    between atoms: N1_5  and  N2_6 
REMARK    3  A    between atoms: N2_6  and  C4_7 
REMARK    4  A    between atoms: N2_6  and  C8_15 
REMARK    5  A    between atoms: C4_7  and  C5_8 
REMARK       I    between atoms: C5_8  and  N3_10 
REMARK    6  A    between atoms: C6_12  and  C7_13 
REMARK    7  A    between atoms: C8_15  and  C11_18 
ROOT
HETATM    1  N2  UNL     1      -6.051  21.871   4.504  1.00  0.00    -0.220 N 
ENDROOT
BRANCH   1   2
HETATM    2  N1  UNL     1      -5.716  21.130   3.482  1.00  0.00    -0.284 NA
HETATM    3  C3  UNL     1      -5.365  20.347   2.414  1.00  0.00     0.312 C 
HETATM    4  O1  UNL     1      -5.260  19.067   2.450  1.00  0.00    -0.255 OA
BRANCH   3   5
HETATM    5  C2  UNL     1      -5.069  20.936   1.036  1.00  0.00     0.117 C 
HETATM    6  C1  UNL     1      -4.131  22.074   1.176  1.00  0.00     0.016 C 
ENDBRANCH   3   5
ENDBRANCH   1   2
BRANCH   1   7
HETATM    7  C4  UNL     1      -7.181  21.467   5.309  1.00  0.00     0.199 C 
BRANCH   7   8
HETATM    8  C5  UNL     1      -7.332  20.054   5.591  1.00  0.00     0.263 C 
HETATM    9  O2  UNL     1      -7.201  19.528   6.673  1.00  0.00    -0.267 OA
HETATM   10  N3  UNL     1      -7.676  19.179   4.492  1.00  0.00    -0.335 N 
HETATM   11  C6  UNL     1      -8.901  18.957   4.204  1.00  0.00     0.075 C 
ATOM     12  H3  UNL     1      -6.937  18.737   3.944  1.00  0.00     0.168 HD
BRANCH  11  13
HETATM   13  C7  UNL     1      -9.277  18.071   3.094  1.00  0.00     0.129 C 
HETATM   14 BR1  UNL     1     -10.162  16.448   3.659  1.00  0.00    -0.091 Br
ENDBRANCH  11  13
ENDBRANCH   7   8
ENDBRANCH   1   7
BRANCH   1  15
HETATM   15  C8  UNL     1      -5.946  23.285   4.571  1.00  0.00     0.065 C 
HETATM   16  C9  UNL     1      -6.946  23.689   5.696  1.00  0.00     0.042 C 
HETATM   17  C10 UNL     1      -6.376  24.049   3.347  1.00  0.00     0.042 C 
BRANCH  15  18
HETATM   18  C11 UNL     1      -4.653  23.823   5.125  1.00  0.00    -0.024 C 
HETATM   19  C12 UNL     1      -3.555  24.077   4.188  1.00  0.00     0.017 C 
HETATM   20  C13 UNL     1      -5.008  25.146   5.813  1.00  0.00     0.017 C 
HETATM   21  C14 UNL     1      -4.115  22.918   6.239  1.00  0.00     0.017 C 
ENDBRANCH  15  18
ENDBRANCH   1  15
TORSDOF 7
ENDMDL
MODEL 5
REMARK VINA RESULT: -6.046170798      2.480      4.555
REMARK  7 active torsions:
REMARK  status: ('A' for Active; 'I' for Inactive)
REMARK    1  A    between atoms: C2_2  and  C3_3 
REMARK       I    between atoms: C3_3  and  N1_5 
REMARK    2  A    between atoms: N1_5  and  N2_6 
REMARK    3  A    between atoms: N2_6  and  C4_7 
REMARK    4  A    between atoms: N2_6  and  C8_15 
REMARK    5  A    between atoms: C4_7  and  C5_8 
REMARK       I    between atoms: C5_8  and  N3_10 
REMARK    6  A    between atoms: C6_12  and  C7_13 
REMARK    7  A    between atoms: C8_15  and  C11_18 
ROOT
HETATM    1  N2  UNL     1      -6.156  21.347   4.415  1.00  0.00    -0.220 N 
ENDROOT
BRANCH   1   2
HETATM    2  N1  UNL     1      -6.265  20.073   4.147  1.00  0.00    -0.284 NA
HETATM    3  C3  UNL     1      -6.371  18.736   3.867  1.00  0.00     0.312 C 
HETATM    4  O1  UNL     1      -5.385  17.913   3.851  1.00  0.00    -0.255 OA
BRANCH   3   5
HETATM    5  C2  UNL     1      -7.711  18.076   3.549  1.00  0.00     0.117 C 
HETATM    6  C1  UNL     1      -8.786  18.741   4.322  1.00  0.00     0.016 C 
ENDBRANCH   3   5
ENDBRANCH   1   2
BRANCH   1   7
HETATM    7  C4  UNL     1      -5.211  22.134   3.656  1.00  0.00     0.199 C 
BRANCH   7   8
HETATM    8  C5  UNL     1      -5.544  22.433   2.278  1.00  0.00     0.263 C 
HETATM    9  O2  UNL     1      -6.079  23.444   1.880  1.00  0.00    -0.267 OA
HETATM   10  N3  UNL     1      -5.207  21.449   1.272  1.00  0.00    -0.335 N 
HETATM   11  C6  UNL     1      -4.065  21.477   0.701  1.00  0.00     0.075 C 
ATOM     12  H3  UNL     1      -5.885  20.730   1.019  1.00  0.00     0.168 HD
BRANCH  11  13
HETATM   13  C7  UNL     1      -3.699  20.492  -0.325  1.00  0.00     0.129 C 
HETATM   14 BR1  UNL     1      -4.625  20.734  -2.005  1.00  0.00    -0.091 Br
ENDBRANCH  11  13
ENDBRANCH   7   8
ENDBRANCH   1   7
BRANCH   1  15
HETATM   15  C8  UNL     1      -6.288  21.937   5.699  1.00  0.00     0.065 C 
HETATM   16  C9  UNL     1      -5.040  22.860   5.825  1.00  0.00     0.042 C 
HETATM   17  C10 UNL     1      -6.227  21.001   6.878  1.00  0.00     0.042 C 
BRANCH  15  18
HETATM   18  C11 UNL     1      -7.405  22.936   5.852  1.00  0.00    -0.024 C 
HETATM   19  C12 UNL     1      -8.526  22.865   4.911  1.00  0.00     0.017 C 
HETATM   20  C13 UNL     1      -7.958  22.736   7.268  1.00  0.00     0.017 C 
HETATM   21  C14 UNL     1      -6.865  24.370   5.826  1.00  0.00     0.017 C 
ENDBRANCH  15  18
ENDBRANCH   1  15
TORSDOF 7
ENDMDL
