MODEL 1
REMARK VINA RESULT: -7.350856840      0.000      0.000
REMARK  5 active torsions:
REMARK  status: ('A' for Active; 'I' for Inactive)
REMARK    1  A    between atoms: N1_6  and  S1_7 
REMARK    2  A    between atoms: S1_7  and  N2_10 
REMARK    3  A    between atoms: N2_10  and  C6_12 
REMARK    4  A    between atoms: C9_15  and  C10_16 
REMARK    5  A    between atoms: C14_23  and  C15_24 
ROOT
HETATM    1  C6  UNL     1      -7.521  22.718   4.488  1.00  0.00     0.094 C 
HETATM    2  C7  UNL     1      -8.194  23.809   3.710  1.00  0.00     0.026 C 
HETATM    3  C8  UNL     1      -7.358  25.045   3.970  1.00  0.00     0.007 C 
HETATM    4  C9  UNL     1      -6.439  24.696   5.132  1.00  0.00    -0.006 C 
HETATM    5  C16 UNL     1      -7.001  23.402   5.715  1.00  0.00     0.031 C 
ENDROOT
BRANCH   1   6
HETATM    6  N2  UNL     1      -8.318  21.570   4.728  1.00  0.00    -0.302 N 
ATOM      7  H2  UNL     1      -9.335  21.619   4.798  1.00  0.00     0.173 HD
BRANCH   6   8
HETATM    8  S1  UNL     1      -7.466  20.108   4.893  1.00  0.00     0.299 S 
HETATM    9  O1  UNL     1      -5.968  20.306   4.862  1.00  0.00    -0.188 OA
HETATM   10  O2  UNL     1      -7.873  19.403   6.179  1.00  0.00    -0.188 OA
BRANCH   8  11
HETATM   11  N1  UNL     1      -7.847  19.015   3.610  1.00  0.00    -0.193 NA
HETATM   12  C5  UNL     1      -7.145  17.790   3.813  1.00  0.00     0.109 C 
HETATM   13  C4  UNL     1      -7.493  16.909   2.603  1.00  0.00     0.016 C 
HETATM   14  C3  UNL     1      -8.922  16.473   2.816  1.00  0.00     0.007 C 
HETATM   15  C2  UNL     1      -9.832  17.575   3.238  1.00  0.00    -0.004 C 
HETATM   16  C1  UNL     1     -10.482  17.164   4.548  1.00  0.00     0.011 C 
HETATM   17  C17 UNL     1      -9.243  18.910   3.396  1.00  0.00     0.113 C 
ENDBRANCH   8  11
ENDBRANCH   6   8
ENDBRANCH   1   6
BRANCH   4  18
HETATM   18  C10 UNL     1      -6.487  25.822   6.109  1.00  0.00     0.022 C 
HETATM   19  C11 UNL     1      -6.213  27.105   5.384  1.00  0.00     0.237 C 
HETATM   20  N3  UNL     1      -4.839  27.010   4.868  1.00  0.00    -0.075 N 
HETATM   21  C12 UNL     1      -3.978  27.156   6.029  1.00  0.00     0.232 C 
ATOM     22  H32 UNL     1      -4.660  26.163   4.328  1.00  0.00     0.277 HD
ATOM     23  H31 UNL     1      -4.635  27.674   4.120  1.00  0.00     0.277 HD
HETATM   24  C13 UNL     1      -4.166  26.078   7.037  1.00  0.00     0.034 C 
HETATM   25  C14 UNL     1      -5.575  25.671   7.276  1.00  0.00     0.022 C 
BRANCH  25  26
HETATM   26  C15 UNL     1      -6.171  26.360   8.505  1.00  0.00     0.227 C 
HETATM   27  F1  UNL     1      -6.597  25.455   9.432  1.00  0.00    -0.255 F 
ENDBRANCH  25  26
ENDBRANCH   4  18
TORSDOF 5
ENDMDL
MODEL 2
REMARK VINA RESULT: -7.216756770      4.752      9.092
REMARK  5 active torsions:
REMARK  status: ('A' for Active; 'I' for Inactive)
REMARK    1  A    between atoms: N1_6  and  S1_7 
REMARK    2  A    between atoms: S1_7  and  N2_10 
REMARK    3  A    between atoms: N2_10  and  C6_12 
REMARK    4  A    between atoms: C9_15  and  C10_16 
REMARK    5  A    between atoms: C14_23  and  C15_24 
ROOT
HETATM    1  C6  UNL     1      -5.994  25.792   8.767  1.00  0.00     0.094 C 
HETATM    2  C7  UNL     1      -6.549  24.692   9.620  1.00  0.00     0.026 C 
HETATM    3  C8  UNL     1      -6.522  23.463   8.737  1.00  0.00     0.007 C 
HETATM    4  C9  UNL     1      -6.261  23.963   7.324  1.00  0.00    -0.006 C 
HETATM    5  C16 UNL     1      -6.479  25.473   7.386  1.00  0.00     0.031 C 
ENDROOT
BRANCH   1   6
HETATM    6  N2  UNL     1      -6.278  27.106   9.218  1.00  0.00    -0.302 N 
ATOM      7  H2  UNL     1      -7.171  27.354   9.644  1.00  0.00     0.173 HD
BRANCH   6   8
HETATM    8  S1  UNL     1      -5.031  28.241   9.000  1.00  0.00     0.299 S 
HETATM    9  O1  UNL     1      -4.455  28.725  10.311  1.00  0.00    -0.188 OA
HETATM   10  O2  UNL     1      -3.929  27.653   8.131  1.00  0.00    -0.188 OA
BRANCH   8  11
HETATM   11  N1  UNL     1      -5.600  29.642   8.165  1.00  0.00    -0.193 NA
HETATM   12  C5  UNL     1      -6.430  29.237   7.077  1.00  0.00     0.109 C 
HETATM   13  C4  UNL     1      -6.837  30.534   6.361  1.00  0.00     0.016 C 
HETATM   14  C3  UNL     1      -7.840  31.201   7.269  1.00  0.00     0.007 C 
HETATM   15  C2  UNL     1      -7.436  31.221   8.704  1.00  0.00    -0.004 C 
HETATM   16  C1  UNL     1      -8.537  30.550   9.506  1.00  0.00     0.011 C 
HETATM   17  C17 UNL     1      -6.150  30.603   9.048  1.00  0.00     0.113 C 
ENDBRANCH   8  11
ENDBRANCH   6   8
ENDBRANCH   1   6
BRANCH   4  18
HETATM   18  C10 UNL     1      -7.232  23.291   6.412  1.00  0.00     0.022 C 
HETATM   19  C11 UNL     1      -7.137  21.809   6.612  1.00  0.00     0.237 C 
HETATM   20  N3  UNL     1      -5.780  21.415   6.200  1.00  0.00    -0.075 N 
HETATM   21  C12 UNL     1      -5.775  21.503   4.750  1.00  0.00     0.232 C 
ATOM     22  H32 UNL     1      -5.042  21.960   6.647  1.00  0.00     0.277 HD
ATOM     23  H31 UNL     1      -5.491  20.505   6.558  1.00  0.00     0.277 HD
HETATM   24  C13 UNL     1      -6.028  22.880   4.246  1.00  0.00     0.034 C 
HETATM   25  C14 UNL     1      -7.077  23.640   4.974  1.00  0.00     0.022 C 
BRANCH  25  26
HETATM   26  C15 UNL     1      -8.431  23.573   4.265  1.00  0.00     0.227 C 
HETATM   27  F1  UNL     1      -8.479  24.413   3.191  1.00  0.00    -0.255 F 
ENDBRANCH  25  26
ENDBRANCH   4  18
TORSDOF 5
ENDMDL
MODEL 3
REMARK VINA RESULT: -7.211832800      1.609      2.241
REMARK  5 active torsions:
REMARK  status: ('A' for Active; 'I' for Inactive)
REMARK    1  A    between atoms: N1_6  and  S1_7 
REMARK    2  A    between atoms: S1_7  and  N2_10 
REMARK    3  A    between atoms: N2_10  and  C6_12 
REMARK    4  A    between atoms: C9_15  and  C10_16 
REMARK    5  A    between atoms: C14_23  and  C15_24 
ROOT
HETATM    1  C6  UNL     1      -8.141  22.546   5.615  1.00  0.00     0.094 C 
HETATM    2  C7  UNL     1      -7.546  22.090   6.913  1.00  0.00     0.026 C 
HETATM    3  C8  UNL     1      -6.949  23.339   7.527  1.00  0.00     0.007 C 
HETATM    4  C9  UNL     1      -6.937  24.388   6.425  1.00  0.00    -0.006 C 
HETATM    5  C16 UNL     1      -7.212  23.618   5.135  1.00  0.00     0.031 C 
ENDROOT
BRANCH   1   6
HETATM    6  N2  UNL     1      -8.408  21.514   4.680  1.00  0.00    -0.302 N 
ATOM      7  H2  UNL     1      -9.109  21.613   3.946  1.00  0.00     0.173 HD
BRANCH   6   8
HETATM    8  S1  UNL     1      -7.481  20.101   4.864  1.00  0.00     0.299 S 
HETATM    9  O1  UNL     1      -5.994  20.376   4.827  1.00  0.00    -0.188 OA
HETATM   10  O2  UNL     1      -7.848  19.395   6.161  1.00  0.00    -0.188 OA
BRANCH   8  11
HETATM   11  N1  UNL     1      -7.805  18.971   3.598  1.00  0.00    -0.193 NA
HETATM   12  C5  UNL     1      -7.111  17.754   3.865  1.00  0.00     0.109 C 
HETATM   13  C4  UNL     1      -7.406  16.837   2.667  1.00  0.00     0.016 C 
HETATM   14  C3  UNL     1      -8.842  16.405   2.831  1.00  0.00     0.007 C 
HETATM   15  C2  UNL     1      -9.771  17.517   3.183  1.00  0.00    -0.004 C 
HETATM   16  C1  UNL     1     -10.476  17.142   4.475  1.00  0.00     0.011 C 
HETATM   17  C17 UNL     1      -9.190  18.857   3.327  1.00  0.00     0.113 C 
ENDBRANCH   8  11
ENDBRANCH   6   8
ENDBRANCH   1   6
BRANCH   4  18
HETATM   18  C10 UNL     1      -5.592  25.032   6.419  1.00  0.00     0.022 C 
HETATM   19  C11 UNL     1      -5.278  25.508   7.806  1.00  0.00     0.237 C 
HETATM   20  N3  UNL     1      -6.275  26.539   8.132  1.00  0.00    -0.075 N 
HETATM   21  C12 UNL     1      -5.900  27.702   7.347  1.00  0.00     0.232 C 
ATOM     22  H32 UNL     1      -7.239  26.239   7.987  1.00  0.00     0.277 HD
ATOM     23  H31 UNL     1      -6.357  26.728   9.132  1.00  0.00     0.277 HD
HETATM   24  C13 UNL     1      -5.953  27.460   5.879  1.00  0.00     0.034 C 
HETATM   25  C14 UNL     1      -5.437  26.139   5.436  1.00  0.00     0.022 C 
BRANCH  25  26
HETATM   26  C15 UNL     1      -3.987  26.220   4.955  1.00  0.00     0.227 C 
HETATM   27  F1  UNL     1      -3.363  25.010   5.031  1.00  0.00    -0.255 F 
ENDBRANCH  25  26
ENDBRANCH   4  18
TORSDOF 5
ENDMDL
MODEL 4
REMARK VINA RESULT: -7.143108531      4.863      9.510
REMARK  5 active torsions:
REMARK  status: ('A' for Active; 'I' for Inactive)
REMARK    1  A    between atoms: N1_6  and  S1_7 
REMARK    2  A    between atoms: S1_7  and  N2_10 
REMARK    3  A    between atoms: N2_10  and  C6_12 
REMARK    4  A    between atoms: C9_15  and  C10_16 
REMARK    5  A    between atoms: C14_23  and  C15_24 
ROOT
HETATM    1  C6  UNL     1      -6.056  25.983   8.294  1.00  0.00     0.094 C 
HETATM    2  C7  UNL     1      -6.581  24.993   9.290  1.00  0.00     0.026 C 
HETATM    3  C8  UNL     1      -6.524  23.657   8.579  1.00  0.00     0.007 C 
HETATM    4  C9  UNL     1      -6.280  23.970   7.110  1.00  0.00    -0.006 C 
HETATM    5  C16 UNL     1      -6.536  25.469   6.971  1.00  0.00     0.031 C 
ENDROOT
BRANCH   1   6
HETATM    6  N2  UNL     1      -6.373  27.338   8.567  1.00  0.00    -0.302 N 
ATOM      7  H2  UNL     1      -7.166  27.809   8.132  1.00  0.00     0.173 HD
BRANCH   6   8
HETATM    8  S1  UNL     1      -5.342  28.124   9.666  1.00  0.00     0.299 S 
HETATM    9  O1  UNL     1      -5.254  27.403  10.992  1.00  0.00    -0.188 OA
HETATM   10  O2  UNL     1      -3.952  28.281   9.065  1.00  0.00    -0.188 OA
BRANCH   8  11
HETATM   11  N1  UNL     1      -5.897  29.723  10.010  1.00  0.00    -0.193 NA
HETATM   12  C5  UNL     1      -5.021  30.667   9.396  1.00  0.00     0.109 C 
HETATM   13  C4  UNL     1      -5.552  32.050   9.802  1.00  0.00     0.016 C 
HETATM   14  C3  UNL     1      -6.816  32.250   9.002  1.00  0.00     0.007 C 
HETATM   15  C2  UNL     1      -7.719  31.064   8.991  1.00  0.00    -0.004 C 
HETATM   16  C1  UNL     1      -7.960  30.677   7.543  1.00  0.00     0.011 C 
HETATM   17  C17 UNL     1      -7.277  29.878   9.736  1.00  0.00     0.113 C 
ENDBRANCH   8  11
ENDBRANCH   6   8
ENDBRANCH   1   6
BRANCH   4  18
HETATM   18  C10 UNL     1      -7.235  23.158   6.303  1.00  0.00     0.022 C 
HETATM   19  C11 UNL     1      -6.860  21.712   6.420  1.00  0.00     0.237 C 
HETATM   20  N3  UNL     1      -5.525  21.574   5.818  1.00  0.00    -0.075 N 
HETATM   21  C12 UNL     1      -5.731  21.694   4.385  1.00  0.00     0.232 C 
ATOM     22  H32 UNL     1      -4.837  22.230   6.190  1.00  0.00     0.277 HD
ATOM     23  H31 UNL     1      -5.037  20.721   6.092  1.00  0.00     0.277 HD
HETATM   24  C13 UNL     1      -6.284  23.015   3.981  1.00  0.00     0.034 C 
HETATM   25  C14 UNL     1      -7.339  23.561   4.874  1.00  0.00     0.022 C 
BRANCH  25  26
HETATM   26  C15 UNL     1      -8.745  23.272   4.344  1.00  0.00     0.227 C 
HETATM   27  F1  UNL     1      -9.083  24.115   3.327  1.00  0.00    -0.255 F 
ENDBRANCH  25  26
ENDBRANCH   4  18
TORSDOF 5
ENDMDL
MODEL 5
REMARK VINA RESULT: -7.099134505      1.945      2.393
REMARK  5 active torsions:
REMARK  status: ('A' for Active; 'I' for Inactive)
REMARK    1  A    between atoms: N1_6  and  S1_7 
REMARK    2  A    between atoms: S1_7  and  N2_10 
REMARK    3  A    between atoms: N2_10  and  C6_12 
REMARK    4  A    between atoms: C9_15  and  C10_16 
REMARK    5  A    between atoms: C14_23  and  C15_24 
ROOT
HETATM    1  C6  UNL     1      -5.761  21.623   4.382  1.00  0.00     0.094 C 
HETATM    2  C7  UNL     1      -5.065  22.416   3.317  1.00  0.00     0.026 C 
HETATM    3  C8  UNL     1      -4.183  23.390   4.071  1.00  0.00     0.007 C 
HETATM    4  C9  UNL     1      -4.643  23.342   5.520  1.00  0.00    -0.006 C 
HETATM    5  C16 UNL     1      -5.979  22.603   5.494  1.00  0.00     0.031 C 
ENDROOT
BRANCH   1   6
HETATM    6  N2  UNL     1      -6.920  20.927   3.953  1.00  0.00    -0.302 N 
ATOM      7  H2  UNL     1      -7.618  21.356   3.347  1.00  0.00     0.173 HD
BRANCH   6   8
HETATM    8  S1  UNL     1      -7.066  19.330   4.519  1.00  0.00     0.299 S 
HETATM    9  O1  UNL     1      -5.735  18.734   4.916  1.00  0.00    -0.188 OA
HETATM   10  O2  UNL     1      -8.033  19.274   5.693  1.00  0.00    -0.188 OA
BRANCH   8  11
HETATM   11  N1  UNL     1      -7.729  18.296   3.305  1.00  0.00    -0.193 NA
HETATM   12  C5  UNL     1      -7.283  16.960   3.531  1.00  0.00     0.109 C 
HETATM   13  C4  UNL     1      -7.867  16.127   2.380  1.00  0.00     0.016 C 
HETATM   14  C3  UNL     1      -9.342  16.004   2.675  1.00  0.00     0.007 C 
HETATM   15  C2  UNL     1      -9.984  17.284   3.088  1.00  0.00    -0.004 C 
HETATM   16  C1  UNL     1     -10.634  17.062   4.442  1.00  0.00     0.011 C 
HETATM   17  C17 UNL     1      -9.126  18.473   3.159  1.00  0.00     0.113 C 
ENDBRANCH   8  11
ENDBRANCH   6   8
ENDBRANCH   1   6
BRANCH   4  18
HETATM   18  C10 UNL     1      -4.786  24.745   6.004  1.00  0.00     0.022 C 
HETATM   19  C11 UNL     1      -3.829  24.967   7.136  1.00  0.00     0.237 C 
HETATM   20  N3  UNL     1      -4.248  24.068   8.222  1.00  0.00    -0.075 N 
HETATM   21  C12 UNL     1      -5.462  24.654   8.764  1.00  0.00     0.232 C 
ATOM     22  H32 UNL     1      -4.355  23.095   7.932  1.00  0.00     0.277 HD
ATOM     23  H31 UNL     1      -3.523  23.905   8.922  1.00  0.00     0.277 HD
HETATM   24  C13 UNL     1      -6.570  24.726   7.773  1.00  0.00     0.034 C 
HETATM   25  C14 UNL     1      -6.169  25.128   6.400  1.00  0.00     0.022 C 
BRANCH  25  26
HETATM   26  C15 UNL     1      -6.396  26.620   6.149  1.00  0.00     0.227 C 
HETATM   27  F1  UNL     1      -6.762  26.864   4.858  1.00  0.00    -0.255 F 
ENDBRANCH  25  26
ENDBRANCH   4  18
TORSDOF 5
ENDMDL
