MODEL 1
REMARK VINA RESULT: -6.540883324      0.000      0.000
REMARK  7 active torsions:
REMARK  status: ('A' for Active; 'I' for Inactive)
REMARK    1  A    between atoms: C2_2  and  C3_3 
REMARK    2  A    between atoms: C3_3  and  N1_4 
REMARK    3  A    between atoms: C5_7  and  C6_8 
REMARK    4  A    between atoms: C6_8  and  C7_9 
REMARK    5  A    between atoms: C9_15  and  C10_16 
REMARK    6  A    between atoms: C10_16  and  C11_17 
REMARK    7  A    between atoms: C13_23  and  C14_24 
ROOT
HETATM    1  N1  UNL     1      -5.822  21.522   3.973  1.00  0.00    -0.335 N 
HETATM    2  C4  UNL     1      -5.906  20.355   3.311  1.00  0.00     0.110 A 
HETATM    3  S1  UNL     1      -5.209  20.103   1.688  1.00  0.00    -0.030 SA
HETATM    4  C5  UNL     1      -6.521  19.236   3.880  1.00  0.00     0.067 A 
HETATM    5  N2  UNL     1      -7.023  19.363   5.109  1.00  0.00    -0.319 N 
ATOM      6  H2  UNL     1      -7.478  18.567   5.554  1.00  0.00     0.169 HD
HETATM    7  C8  UNL     1      -6.933  20.550   5.777  1.00  0.00     0.273 A 
HETATM    8  O1  UNL     1      -7.437  20.549   6.923  1.00  0.00    -0.266 OA
HETATM    9  C9  UNL     1      -6.329  21.660   5.224  1.00  0.00     0.106 A 
ENDROOT
BRANCH   9  10
HETATM   10  C10 UNL     1      -6.223  22.799   5.830  1.00  0.00     0.067 C 
BRANCH  10  11
HETATM   11  C11 UNL     1      -5.104  23.131   6.699  1.00  0.00     0.058 A 
HETATM   12  N3  UNL     1      -3.847  22.678   6.658  1.00  0.00    -0.351 N 
HETATM   13  C12 UNL     1      -3.168  23.210   7.662  1.00  0.00     0.181 A 
ATOM     14  H3  UNL     1      -3.472  22.029   5.965  1.00  0.00     0.166 HD
HETATM   15  N4  UNL     1      -3.979  23.997   8.343  1.00  0.00    -0.354 N 
HETATM   16  C13 UNL     1      -5.200  23.980   7.779  1.00  0.00     0.040 A 
ATOM     17  H4  UNL     1      -3.719  24.536   9.169  1.00  0.00     0.166 HD
BRANCH  16  18
HETATM   18  C14 UNL     1      -6.342  24.740   8.295  1.00  0.00     0.030 C 
HETATM   19  C15 UNL     1      -6.897  24.013   9.519  1.00  0.00     0.016 C 
HETATM   20  C16 UNL     1      -6.069  26.136   8.722  1.00  0.00     0.016 C 
ENDBRANCH  16  18
ENDBRANCH  10  11
ENDBRANCH   9  10
BRANCH   1  21
HETATM   21  C3  UNL     1      -5.220  22.655   3.333  1.00  0.00     0.130 C 
BRANCH  21  22
HETATM   22  C2  UNL     1      -6.149  23.562   2.601  1.00  0.00     0.016 C 
HETATM   23  C1  UNL     1      -5.803  23.827   1.159  1.00  0.00     0.006 C 
ENDBRANCH  21  22
ENDBRANCH   1  21
BRANCH   4  24
HETATM   24  C6  UNL     1      -6.606  18.090   3.230  1.00  0.00     0.020 C 
BRANCH  24  25
HETATM   25  C7  UNL     1      -7.764  17.194   3.481  1.00  0.00     0.144 C 
HETATM   26 CL1  UNL     1      -9.262  18.003   2.910  1.00  0.00    -0.126 Cl
ENDBRANCH  24  25
ENDBRANCH   4  24
TORSDOF 7
ENDMDL
MODEL 2
REMARK VINA RESULT: -6.459507965      1.086      1.102
REMARK  7 active torsions:
REMARK  status: ('A' for Active; 'I' for Inactive)
REMARK    1  A    between atoms: C2_2  and  C3_3 
REMARK    2  A    between atoms: C3_3  and  N1_4 
REMARK    3  A    between atoms: C5_7  and  C6_8 
REMARK    4  A    between atoms: C6_8  and  C7_9 
REMARK    5  A    between atoms: C9_15  and  C10_16 
REMARK    6  A    between atoms: C10_16  and  C11_17 
REMARK    7  A    between atoms: C13_23  and  C14_24 
ROOT
HETATM    1  N1  UNL     1      -6.047  21.567   4.109  1.00  0.00    -0.335 N 
HETATM    2  C4  UNL     1      -6.555  20.369   3.769  1.00  0.00     0.110 A 
HETATM    3  S1  UNL     1      -5.921  19.392   2.416  1.00  0.00    -0.030 SA
HETATM    4  C5  UNL     1      -7.600  19.788   4.490  1.00  0.00     0.067 A 
HETATM    5  N2  UNL     1      -8.081  20.463   5.536  1.00  0.00    -0.319 N 
ATOM      6  H2  UNL     1      -8.844  20.068   6.085  1.00  0.00     0.169 HD
HETATM    7  C8  UNL     1      -7.561  21.677   5.878  1.00  0.00     0.273 A 
HETATM    8  O1  UNL     1      -8.090  22.214   6.878  1.00  0.00    -0.266 OA
HETATM    9  C9  UNL     1      -6.530  22.259   5.171  1.00  0.00     0.106 A 
ENDROOT
BRANCH   9  10
HETATM   10  C10 UNL     1      -6.010  23.407   5.470  1.00  0.00     0.067 C 
BRANCH  10  11
HETATM   11  C11 UNL     1      -4.959  23.565   6.463  1.00  0.00     0.058 A 
HETATM   12  N3  UNL     1      -3.702  23.110   6.434  1.00  0.00    -0.351 N 
HETATM   13  C12 UNL     1      -3.099  23.445   7.564  1.00  0.00     0.181 A 
ATOM     14  H3  UNL     1      -3.277  22.590   5.666  1.00  0.00     0.166 HD
HETATM   15  N4  UNL     1      -3.958  24.110   8.313  1.00  0.00    -0.354 N 
HETATM   16  C13 UNL     1      -5.134  24.209   7.668  1.00  0.00     0.040 A 
ATOM     17  H4  UNL     1      -3.761  24.489   9.239  1.00  0.00     0.166 HD
BRANCH  16  18
HETATM   18  C14 UNL     1      -6.312  24.880   8.226  1.00  0.00     0.030 C 
HETATM   19  C15 UNL     1      -6.744  24.134   9.487  1.00  0.00     0.016 C 
HETATM   20  C16 UNL     1      -6.139  26.302   8.617  1.00  0.00     0.016 C 
ENDBRANCH  16  18
ENDBRANCH  10  11
ENDBRANCH   9  10
BRANCH   1  21
HETATM   21  C3  UNL     1      -5.002  22.143   3.313  1.00  0.00     0.130 C 
BRANCH  21  22
HETATM   22  C2  UNL     1      -5.442  23.047   2.213  1.00  0.00     0.016 C 
HETATM   23  C1  UNL     1      -4.972  22.672   0.832  1.00  0.00     0.006 C 
ENDBRANCH  21  22
ENDBRANCH   1  21
BRANCH   4  24
HETATM   24  C6  UNL     1      -8.100  18.612   4.156  1.00  0.00     0.020 C 
BRANCH  24  25
HETATM   25  C7  UNL     1      -9.475  18.539   3.597  1.00  0.00     0.144 C 
HETATM   26 CL1  UNL     1     -10.202  16.960   4.043  1.00  0.00    -0.126 Cl
ENDBRANCH  24  25
ENDBRANCH   4  24
TORSDOF 7
ENDMDL
MODEL 3
REMARK VINA RESULT: -6.351236162      2.313      3.237
REMARK  7 active torsions:
REMARK  status: ('A' for Active; 'I' for Inactive)
REMARK    1  A    between atoms: C2_2  and  C3_3 
REMARK    2  A    between atoms: C3_3  and  N1_4 
REMARK    3  A    between atoms: C5_7  and  C6_8 
REMARK    4  A    between atoms: C6_8  and  C7_9 
REMARK    5  A    between atoms: C9_15  and  C10_16 
REMARK    6  A    between atoms: C10_16  and  C11_17 
REMARK    7  A    between atoms: C13_23  and  C14_24 
ROOT
HETATM    1  N1  UNL     1      -6.201  23.632   5.926  1.00  0.00    -0.335 N 
HETATM    2  C4  UNL     1      -6.204  22.436   5.312  1.00  0.00     0.110 A 
HETATM    3  S1  UNL     1      -5.313  22.115   3.799  1.00  0.00    -0.030 SA
HETATM    4  C5  UNL     1      -6.883  21.341   5.852  1.00  0.00     0.067 A 
HETATM    5  N2  UNL     1      -7.532  21.521   7.004  1.00  0.00    -0.319 N 
ATOM      6  H2  UNL     1      -8.038  20.743   7.425  1.00  0.00     0.169 HD
HETATM    7  C8  UNL     1      -7.524  22.737   7.623  1.00  0.00     0.273 A 
HETATM    8  O1  UNL     1      -8.164  22.785   8.698  1.00  0.00    -0.266 OA
HETATM    9  C9  UNL     1      -6.857  23.824   7.098  1.00  0.00     0.106 A 
ENDROOT
BRANCH   9  10
HETATM   10  C10 UNL     1      -6.825  24.989   7.660  1.00  0.00     0.067 C 
BRANCH  10  11
HETATM   11  C11 UNL     1      -6.190  25.230   8.947  1.00  0.00     0.058 A 
HETATM   12  N3  UNL     1      -5.764  24.342   9.851  1.00  0.00    -0.351 N 
HETATM   13  C12 UNL     1      -5.287  24.995  10.899  1.00  0.00     0.181 A 
ATOM     14  H3  UNL     1      -5.801  23.327   9.749  1.00  0.00     0.166 HD
HETATM   15  N4  UNL     1      -5.403  26.290  10.672  1.00  0.00    -0.354 N 
HETATM   16  C13 UNL     1      -5.962  26.486   9.465  1.00  0.00     0.040 A 
ATOM     17  H4  UNL     1      -5.113  27.027  11.314  1.00  0.00     0.166 HD
BRANCH  16  18
HETATM   18  C14 UNL     1      -6.244  27.812   8.907  1.00  0.00     0.030 C 
HETATM   19  C15 UNL     1      -6.663  28.740  10.046  1.00  0.00     0.016 C 
HETATM   20  C16 UNL     1      -5.121  28.485   8.207  1.00  0.00     0.016 C 
ENDBRANCH  16  18
ENDBRANCH  10  11
ENDBRANCH   9  10
BRANCH   1  21
HETATM   21  C3  UNL     1      -5.525  24.739   5.313  1.00  0.00     0.130 C 
BRANCH  21  22
HETATM   22  C2  UNL     1      -6.344  25.577   4.393  1.00  0.00     0.016 C 
HETATM   23  C1  UNL     1      -6.358  27.053   4.691  1.00  0.00     0.006 C 
ENDBRANCH  21  22
ENDBRANCH   1  21
BRANCH   4  24
HETATM   24  C6  UNL     1      -6.889  20.166   5.249  1.00  0.00     0.020 C 
BRANCH  24  25
HETATM   25  C7  UNL     1      -8.179  19.584   4.799  1.00  0.00     0.144 C 
HETATM   26 CL1  UNL     1      -7.854  18.335   3.552  1.00  0.00    -0.126 Cl
ENDBRANCH  24  25
ENDBRANCH   4  24
TORSDOF 7
ENDMDL
MODEL 4
REMARK VINA RESULT: -6.297466420      3.225      6.329
REMARK  7 active torsions:
REMARK  status: ('A' for Active; 'I' for Inactive)
REMARK    1  A    between atoms: C2_2  and  C3_3 
REMARK    2  A    between atoms: C3_3  and  N1_4 
REMARK    3  A    between atoms: C5_7  and  C6_8 
REMARK    4  A    between atoms: C6_8  and  C7_9 
REMARK    5  A    between atoms: C9_15  and  C10_16 
REMARK    6  A    between atoms: C10_16  and  C11_17 
REMARK    7  A    between atoms: C13_23  and  C14_24 
ROOT
HETATM    1  N1  UNL     1      -7.199  22.906   5.437  1.00  0.00    -0.335 N 
HETATM    2  C4  UNL     1      -6.675  23.703   6.384  1.00  0.00     0.110 A 
HETATM    3  S1  UNL     1      -6.589  25.479   6.224  1.00  0.00    -0.030 SA
HETATM    4  C5  UNL     1      -6.194  23.186   7.590  1.00  0.00     0.067 A 
HETATM    5  N2  UNL     1      -6.274  21.866   7.773  1.00  0.00    -0.319 N 
ATOM      6  H2  UNL     1      -5.933  21.455   8.641  1.00  0.00     0.169 HD
HETATM    7  C8  UNL     1      -6.809  21.062   6.809  1.00  0.00     0.273 A 
HETATM    8  O1  UNL     1      -6.834  19.843   7.093  1.00  0.00    -0.266 OA
HETATM    9  C9  UNL     1      -7.285  21.563   5.615  1.00  0.00     0.106 A 
ENDROOT
BRANCH   9  10
HETATM   10  C10 UNL     1      -7.802  20.831   4.682  1.00  0.00     0.067 C 
BRANCH  10  11
HETATM   11  C11 UNL     1      -7.249  19.543   4.290  1.00  0.00     0.058 A 
HETATM   12  N3  UNL     1      -5.974  19.212   4.060  1.00  0.00    -0.351 N 
HETATM   13  C12 UNL     1      -5.923  17.943   3.685  1.00  0.00     0.181 A 
ATOM     14  H3  UNL     1      -5.173  19.836   4.159  1.00  0.00     0.166 HD
HETATM   15  N4  UNL     1      -7.151  17.462   3.674  1.00  0.00    -0.354 N 
HETATM   16  C13 UNL     1      -8.014  18.424   4.045  1.00  0.00     0.040 A 
ATOM     17  H4  UNL     1      -7.406  16.507   3.423  1.00  0.00     0.166 HD
BRANCH  16  18
HETATM   18  C14 UNL     1      -9.465  18.225   4.128  1.00  0.00     0.030 C 
HETATM   19  C15 UNL     1     -10.131  19.041   3.021  1.00  0.00     0.016 C 
HETATM   20  C16 UNL     1      -9.950  16.831   3.973  1.00  0.00     0.016 C 
ENDBRANCH  16  18
ENDBRANCH  10  11
ENDBRANCH   9  10
BRANCH   1  21
HETATM   21  C3  UNL     1      -7.642  23.477   4.198  1.00  0.00     0.130 C 
BRANCH  21  22
HETATM   22  C2  UNL     1      -6.578  23.767   3.196  1.00  0.00     0.016 C 
HETATM   23  C1  UNL     1      -6.983  24.659   2.052  1.00  0.00     0.006 C 
ENDBRANCH  21  22
ENDBRANCH   1  21
BRANCH   4  24
HETATM   24  C6  UNL     1      -5.677  23.968   8.519  1.00  0.00     0.020 C 
BRANCH  24  25
HETATM   25  C7  UNL     1      -6.468  24.269   9.741  1.00  0.00     0.144 C 
HETATM   26 CL1  UNL     1      -6.117  25.949  10.264  1.00  0.00    -0.126 Cl
ENDBRANCH  24  25
ENDBRANCH   4  24
TORSDOF 7
ENDMDL
MODEL 5
REMARK VINA RESULT: -6.191451910      2.915      4.894
REMARK  7 active torsions:
REMARK  status: ('A' for Active; 'I' for Inactive)
REMARK    1  A    between atoms: C2_2  and  C3_3 
REMARK    2  A    between atoms: C3_3  and  N1_4 
REMARK    3  A    between atoms: C5_7  and  C6_8 
REMARK    4  A    between atoms: C6_8  and  C7_9 
REMARK    5  A    between atoms: C9_15  and  C10_16 
REMARK    6  A    between atoms: C10_16  and  C11_17 
REMARK    7  A    between atoms: C13_23  and  C14_24 
ROOT
HETATM    1  N1  UNL     1      -5.921  21.358   3.962  1.00  0.00    -0.335 N 
HETATM    2  C4  UNL     1      -6.434  20.197   4.405  1.00  0.00     0.110 A 
HETATM    3  S1  UNL     1      -7.220  20.024   5.999  1.00  0.00    -0.030 SA
HETATM    4  C5  UNL     1      -6.421  19.045   3.615  1.00  0.00     0.067 A 
HETATM    5  N2  UNL     1      -5.879  19.134   2.399  1.00  0.00    -0.319 N 
ATOM      6  H2  UNL     1      -5.853  18.312   1.796  1.00  0.00     0.169 HD
HETATM    7  C8  UNL     1      -5.361  20.316   1.954  1.00  0.00     0.273 A 
HETATM    8  O1  UNL     1      -4.884  20.280   0.797  1.00  0.00    -0.266 OA
HETATM    9  C9  UNL     1      -5.370  21.458   2.727  1.00  0.00     0.106 A 
ENDROOT
BRANCH   9  10
HETATM   10  C10 UNL     1      -4.891  22.595   2.335  1.00  0.00     0.067 C 
BRANCH  10  11
HETATM   11  C11 UNL     1      -5.471  23.364   1.244  1.00  0.00     0.058 A 
HETATM   12  N3  UNL     1      -5.206  23.293  -0.065  1.00  0.00    -0.351 N 
HETATM   13  C12 UNL     1      -5.930  24.204  -0.697  1.00  0.00     0.181 A 
ATOM     14  H3  UNL     1      -4.554  22.643  -0.504  1.00  0.00     0.166 HD
HETATM   15  N4  UNL     1      -6.654  24.854   0.195  1.00  0.00    -0.354 N 
HETATM   16  C13 UNL     1      -6.400  24.365   1.422  1.00  0.00     0.040 A 
ATOM     17  H4  UNL     1      -7.305  25.611  -0.014  1.00  0.00     0.166 HD
BRANCH  16  18
HETATM   18  C14 UNL     1      -7.031  24.872   2.644  1.00  0.00     0.030 C 
HETATM   19  C15 UNL     1      -6.135  25.958   3.238  1.00  0.00     0.016 C 
HETATM   20  C16 UNL     1      -8.379  25.475   2.490  1.00  0.00     0.016 C 
ENDBRANCH  16  18
ENDBRANCH  10  11
ENDBRANCH   9  10
BRANCH   1  21
HETATM   21  C3  UNL     1      -5.919  22.504   4.825  1.00  0.00     0.130 C 
BRANCH  21  22
HETATM   22  C2  UNL     1      -4.807  22.576   5.813  1.00  0.00     0.016 C 
HETATM   23  C1  UNL     1      -3.812  23.687   5.598  1.00  0.00     0.006 C 
ENDBRANCH  21  22
ENDBRANCH   1  21
BRANCH   4  24
HETATM   24  C6  UNL     1      -6.923  17.904   4.050  1.00  0.00     0.020 C 
BRANCH  24  25
HETATM   25  C7  UNL     1      -8.093  17.310   3.353  1.00  0.00     0.144 C 
HETATM   26 CL1  UNL     1      -9.585  17.725   4.259  1.00  0.00    -0.126 Cl
ENDBRANCH  24  25
ENDBRANCH   4  24
TORSDOF 7
ENDMDL
