MODEL 1
REMARK VINA RESULT: -5.586534749      0.000      0.000
REMARK  4 active torsions:
REMARK  status: ('A' for Active; 'I' for Inactive)
REMARK    1  A    between atoms: C2_2  and  C3_3 
REMARK    2  A    between atoms: C7_7  and  N1_8 
REMARK    3  A    between atoms: C8_12  and  N2_13 
REMARK    4  A    between atoms: N2_13  and  O1_15 
ROOT
HETATM    1  C3  UNL     1      11.698 -14.208  40.290  1.00  0.00    -0.020 C 
HETATM    2  C4  UNL     1      11.716 -13.015  39.389  1.00  0.00     0.017 C 
HETATM    3  C5  UNL     1      12.198 -13.835  41.656  1.00  0.00     0.013 C 
HETATM    4  C6  UNL     1      11.113 -14.125  42.639  1.00  0.00     0.036 C 
HETATM    5  C7  UNL     1       9.835 -14.316  41.843  1.00  0.00     0.208 C 
HETATM    6  C8  UNL     1      10.356 -14.808  40.514  1.00  0.00     0.144 C 
ENDROOT
BRANCH   5   7
HETATM    7  N1  UNL     1       9.066 -15.343  42.531  1.00  0.00    -0.073 N 
ATOM      8  H13 UNL     1       9.154 -15.300  43.546  1.00  0.00     0.274 HD
ATOM      9  H12 UNL     1       8.058 -15.191  42.484  1.00  0.00     0.274 HD
ATOM     10  H11 UNL     1       9.357 -16.237  42.137  1.00  0.00     0.274 HD
ENDBRANCH   5   7
BRANCH   6  11
HETATM   11  N2  UNL     1       9.421 -14.658  39.451  1.00  0.00    -0.297 N 
ATOM     12  H2  UNL     1       9.511 -15.174  38.576  1.00  0.00     0.187 HD
BRANCH  11  13
HETATM   13  O1  UNL     1       8.427 -13.809  39.664  1.00  0.00    -0.294 OA
ATOM     14  H1  UNL     1       7.559 -14.115  39.431  1.00  0.00     0.244 HD
ENDBRANCH  11  13
ENDBRANCH   6  11
BRANCH   1  15
HETATM   15  C2  UNL     1      12.607 -15.257  39.636  1.00  0.00     0.007 C 
HETATM   16  C1  UNL     1      13.845 -15.498  40.424  1.00  0.00     0.006 C 
ENDBRANCH   1  15
TORSDOF 4
ENDMDL
MODEL 2
REMARK VINA RESULT: -5.343956327      2.118      3.395
REMARK  4 active torsions:
REMARK  status: ('A' for Active; 'I' for Inactive)
REMARK    1  A    between atoms: C2_2  and  C3_3 
REMARK    2  A    between atoms: C7_7  and  N1_8 
REMARK    3  A    between atoms: C8_12  and  N2_13 
REMARK    4  A    between atoms: N2_13  and  O1_15 
ROOT
HETATM    1  C3  UNL     1      10.191 -14.662  40.165  1.00  0.00    -0.020 C 
HETATM    2  C4  UNL     1      11.314 -15.612  39.896  1.00  0.00     0.017 C 
HETATM    3  C5  UNL     1      10.692 -13.247  40.152  1.00  0.00     0.013 C 
HETATM    4  C6  UNL     1       9.952 -12.504  39.091  1.00  0.00     0.036 C 
HETATM    5  C7  UNL     1       9.279 -13.544  38.213  1.00  0.00     0.208 C 
HETATM    6  C8  UNL     1       9.086 -14.695  39.170  1.00  0.00     0.144 C 
ENDROOT
BRANCH   5   7
HETATM    7  N1  UNL     1       8.005 -12.974  37.796  1.00  0.00    -0.073 N 
ATOM      8  H13 UNL     1       7.282 -13.037  38.511  1.00  0.00     0.274 HD
ATOM      9  H12 UNL     1       8.024 -11.957  37.723  1.00  0.00     0.274 HD
ATOM     10  H11 UNL     1       7.752 -13.436  36.923  1.00  0.00     0.274 HD
ENDBRANCH   5   7
BRANCH   6  11
HETATM   11  N2  UNL     1       8.873 -15.942  38.516  1.00  0.00    -0.297 N 
ATOM     12  H2  UNL     1       8.900 -16.827  39.021  1.00  0.00     0.187 HD
BRANCH  11  13
HETATM   13  O1  UNL     1       8.638 -15.885  37.214  1.00  0.00    -0.294 OA
ATOM     14  H1  UNL     1       9.248 -16.355  36.658  1.00  0.00     0.244 HD
ENDBRANCH  11  13
ENDBRANCH   6  11
BRANCH   1  15
HETATM   15  C2  UNL     1       9.629 -15.038  41.542  1.00  0.00     0.007 C 
HETATM   16  C1  UNL     1       9.795 -13.943  42.535  1.00  0.00     0.006 C 
ENDBRANCH   1  15
TORSDOF 4
ENDMDL
MODEL 3
REMARK VINA RESULT: -5.227921621      1.789      3.190
REMARK  4 active torsions:
REMARK  status: ('A' for Active; 'I' for Inactive)
REMARK    1  A    between atoms: C2_2  and  C3_3 
REMARK    2  A    between atoms: C7_7  and  N1_8 
REMARK    3  A    between atoms: C8_12  and  N2_13 
REMARK    4  A    between atoms: N2_13  and  O1_15 
ROOT
HETATM    1  C3  UNL     1      10.126 -15.014  40.309  1.00  0.00    -0.020 C 
HETATM    2  C4  UNL     1       9.888 -16.230  39.472  1.00  0.00     0.017 C 
HETATM    3  C5  UNL     1      11.599 -14.764  40.455  1.00  0.00     0.013 C 
HETATM    4  C6  UNL     1      11.895 -13.411  39.900  1.00  0.00     0.036 C 
HETATM    5  C7  UNL     1      10.685 -12.996  39.082  1.00  0.00     0.208 C 
HETATM    6  C8  UNL     1       9.567 -13.751  39.759  1.00  0.00     0.144 C 
ENDROOT
BRANCH   5   7
HETATM    7  N1  UNL     1      10.542 -11.557  39.254  1.00  0.00    -0.073 N 
ATOM      8  H13 UNL     1      11.434 -11.065  39.296  1.00  0.00     0.274 HD
ATOM      9  H12 UNL     1      10.175 -11.087  38.426  1.00  0.00     0.274 HD
ATOM     10  H11 UNL     1       9.965 -11.419  40.084  1.00  0.00     0.274 HD
ENDBRANCH   5   7
BRANCH   6  11
HETATM   11  N2  UNL     1       8.406 -13.885  38.946  1.00  0.00    -0.297 N 
ATOM     12  H2  UNL     1       7.589 -14.412  39.256  1.00  0.00     0.187 HD
BRANCH  11  13
HETATM   13  O1  UNL     1       8.447 -13.288  37.766  1.00  0.00    -0.294 OA
ATOM     14  H1  UNL     1       7.685 -13.405  37.211  1.00  0.00     0.244 HD
ENDBRANCH  11  13
ENDBRANCH   6  11
BRANCH   1  15
HETATM   15  C2  UNL     1       9.475 -15.292  41.670  1.00  0.00     0.007 C 
HETATM   16  C1  UNL     1       9.613 -14.144  42.605  1.00  0.00     0.006 C 
ENDBRANCH   1  15
TORSDOF 4
ENDMDL
MODEL 4
REMARK VINA RESULT: -5.131486046      2.741      3.768
REMARK  4 active torsions:
REMARK  status: ('A' for Active; 'I' for Inactive)
REMARK    1  A    between atoms: C2_2  and  C3_3 
REMARK    2  A    between atoms: C7_7  and  N1_8 
REMARK    3  A    between atoms: C8_12  and  N2_13 
REMARK    4  A    between atoms: N2_13  and  O1_15 
ROOT
HETATM    1  C3  UNL     1      12.087 -14.088  40.659  1.00  0.00    -0.020 C 
HETATM    2  C4  UNL     1      10.828 -14.598  41.285  1.00  0.00     0.017 C 
HETATM    3  C5  UNL     1      13.002 -13.532  41.711  1.00  0.00     0.013 C 
HETATM    4  C6  UNL     1      14.281 -14.298  41.661  1.00  0.00     0.036 C 
HETATM    5  C7  UNL     1      14.014 -15.552  40.848  1.00  0.00     0.208 C 
HETATM    6  C8  UNL     1      12.892 -15.111  39.940  1.00  0.00     0.144 C 
ENDROOT
BRANCH   5   7
HETATM    7  N1  UNL     1      15.232 -15.830  40.100  1.00  0.00    -0.073 N 
ATOM      8  H13 UNL     1      15.983 -16.205  40.678  1.00  0.00     0.274 HD
ATOM      9  H12 UNL     1      15.145 -16.628  39.471  1.00  0.00     0.274 HD
ATOM     10  H11 UNL     1      15.483 -14.965  39.621  1.00  0.00     0.274 HD
ENDBRANCH   5   7
BRANCH   6  11
HETATM   11  N2  UNL     1      12.162 -16.197  39.378  1.00  0.00    -0.297 N 
ATOM     12  H2  UNL     1      11.445 -16.054  38.666  1.00  0.00     0.187 HD
BRANCH  11  13
HETATM   13  O1  UNL     1      12.467 -17.402  39.832  1.00  0.00    -0.294 OA
ATOM     14  H1  UNL     1      11.822 -18.082  39.680  1.00  0.00     0.244 HD
ENDBRANCH  11  13
ENDBRANCH   6  11
BRANCH   1  15
HETATM   15  C2  UNL     1      11.664 -13.001  39.663  1.00  0.00     0.007 C 
HETATM   16  C1  UNL     1      10.186 -12.844  39.595  1.00  0.00     0.006 C 
ENDBRANCH   1  15
TORSDOF 4
ENDMDL
MODEL 5
REMARK VINA RESULT: -4.831060330      2.246      3.389
REMARK  4 active torsions:
REMARK  status: ('A' for Active; 'I' for Inactive)
REMARK    1  A    between atoms: C2_2  and  C3_3 
REMARK    2  A    between atoms: C7_7  and  N1_8 
REMARK    3  A    between atoms: C8_12  and  N2_13 
REMARK    4  A    between atoms: N2_13  and  O1_15 
ROOT
HETATM    1  C3  UNL     1      10.520 -13.866  40.578  1.00  0.00    -0.020 C 
HETATM    2  C4  UNL     1      11.892 -13.311  40.358  1.00  0.00     0.017 C 
HETATM    3  C5  UNL     1       9.503 -13.045  39.838  1.00  0.00     0.013 C 
HETATM    4  C6  UNL     1       8.799 -13.942  38.876  1.00  0.00     0.036 C 
HETATM    5  C7  UNL     1       9.632 -15.205  38.758  1.00  0.00     0.208 C 
HETATM    6  C8  UNL     1      10.321 -15.260  40.100  1.00  0.00     0.144 C 
ENDROOT
BRANCH   5   7
HETATM    7  N1  UNL     1       8.695 -16.307  38.591  1.00  0.00    -0.073 N 
ATOM      8  H13 UNL     1       7.894 -16.070  38.007  1.00  0.00     0.274 HD
ATOM      9  H12 UNL     1       9.060 -17.061  38.008  1.00  0.00     0.274 HD
ATOM     10  H11 UNL     1       8.435 -16.613  39.529  1.00  0.00     0.274 HD
ENDBRANCH   5   7
BRANCH   6  11
HETATM   11  N2  UNL     1      11.476 -16.092  40.107  1.00  0.00    -0.297 N 
ATOM     12  H2  UNL     1      11.930 -16.379  40.975  1.00  0.00     0.187 HD
BRANCH  11  13
HETATM   13  O1  UNL     1      11.928 -16.473  38.923  1.00  0.00    -0.294 OA
ATOM     14  H1  UNL     1      11.797 -17.387  38.699  1.00  0.00     0.244 HD
ENDBRANCH  11  13
ENDBRANCH   6  11
BRANCH   1  15
HETATM   15  C2  UNL     1      10.274 -13.820  42.091  1.00  0.00     0.007 C 
HETATM   16  C1  UNL     1       9.304 -14.856  42.534  1.00  0.00     0.006 C 
ENDBRANCH   1  15
TORSDOF 4
ENDMDL
