MODEL 1
REMARK VINA RESULT: -4.916776922      0.000      0.000
REMARK  3 active torsions:
REMARK  status: ('A' for Active; 'I' for Inactive)
REMARK    1  A    between atoms: C2_2  and  C5_5 
REMARK    2  A    between atoms: C5_5  and  N1_6 
REMARK    3  A    between atoms: N1_6  and  C6_8 
ROOT
HETATM    1  C6  UNL     1      15.314 -14.524  42.320  1.00  0.00     0.199 A 
HETATM    2  C7  UNL     1      15.689 -13.157  42.758  1.00  0.00     0.167 A 
HETATM    3  N2  UNL     1      17.066 -12.999  42.392  1.00  0.00    -0.383 N 
ATOM      4  H2  UNL     1      17.627 -12.175  42.610  1.00  0.00     0.160 HD
HETATM    5  C8  UNL     1      17.502 -14.016  41.760  1.00  0.00     0.173 A 
HETATM    6  N3  UNL     1      16.491 -14.991  41.615  1.00  0.00    -0.364 N 
ATOM      7  H3  UNL     1      16.575 -15.870  41.104  1.00  0.00     0.162 HD
ENDROOT
BRANCH   1   8
HETATM    8  N1  UNL     1      14.206 -14.642  41.472  1.00  0.00    -0.380 N 
ATOM      9  H1  UNL     1      14.210 -15.343  40.731  1.00  0.00     0.160 HD
BRANCH   8  10
HETATM   10  C5  UNL     1      13.093 -13.807  41.631  1.00  0.00     0.066 C 
BRANCH  10  11
HETATM   11  C2  UNL     1      12.003 -14.186  40.646  1.00  0.00    -0.020 C 
HETATM   12  C1  UNL     1      10.726 -14.477  41.414  1.00  0.00     0.020 C 
HETATM   13  C3  UNL     1      12.488 -15.392  39.890  1.00  0.00     0.020 C 
HETATM   14  C4  UNL     1      11.737 -13.069  39.695  1.00  0.00     0.020 C 
ENDBRANCH  10  11
ENDBRANCH   8  10
ENDBRANCH   1   8
TORSDOF 3
ENDMDL
MODEL 2
REMARK VINA RESULT: -4.900751271      1.337      2.057
REMARK  3 active torsions:
REMARK  status: ('A' for Active; 'I' for Inactive)
REMARK    1  A    between atoms: C2_2  and  C5_5 
REMARK    2  A    between atoms: C5_5  and  N1_6 
REMARK    3  A    between atoms: N1_6  and  C6_8 
ROOT
HETATM    1  C6  UNL     1      14.817 -13.493  42.474  1.00  0.00     0.199 A 
HETATM    2  C7  UNL     1      15.824 -14.514  42.094  1.00  0.00     0.167 A 
HETATM    3  N2  UNL     1      16.513 -14.846  43.307  1.00  0.00    -0.383 N 
ATOM      4  H2  UNL     1      17.303 -15.488  43.361  1.00  0.00     0.160 HD
HETATM    5  C8  UNL     1      16.014 -14.238  44.310  1.00  0.00     0.173 A 
HETATM    6  N3  UNL     1      14.932 -13.420  43.917  1.00  0.00    -0.364 N 
ATOM      7  H3  UNL     1      14.336 -12.874  44.539  1.00  0.00     0.162 HD
ENDROOT
BRANCH   1   8
HETATM    8  N1  UNL     1      13.482 -13.757  42.143  1.00  0.00    -0.380 N 
ATOM      9  H1  UNL     1      12.736 -13.439  42.761  1.00  0.00     0.160 HD
BRANCH   8  10
HETATM   10  C5  UNL     1      13.162 -14.454  40.970  1.00  0.00     0.066 C 
BRANCH  10  11
HETATM   11  C2  UNL     1      11.691 -14.283  40.640  1.00  0.00    -0.020 C 
HETATM   12  C1  UNL     1      11.207 -15.517  39.898  1.00  0.00     0.020 C 
HETATM   13  C3  UNL     1      11.565 -13.041  39.803  1.00  0.00     0.020 C 
HETATM   14  C4  UNL     1      10.883 -14.136  41.885  1.00  0.00     0.020 C 
ENDBRANCH  10  11
ENDBRANCH   8  10
ENDBRANCH   1   8
TORSDOF 3
ENDMDL
MODEL 3
REMARK VINA RESULT: -4.889707849      1.311      1.628
REMARK  3 active torsions:
REMARK  status: ('A' for Active; 'I' for Inactive)
REMARK    1  A    between atoms: C2_2  and  C5_5 
REMARK    2  A    between atoms: C5_5  and  N1_6 
REMARK    3  A    between atoms: N1_6  and  C6_8 
ROOT
HETATM    1  C6  UNL     1      15.136 -13.786  42.437  1.00  0.00     0.199 A 
HETATM    2  C7  UNL     1      16.437 -14.498  42.454  1.00  0.00     0.167 A 
HETATM    3  N2  UNL     1      16.770 -14.660  43.839  1.00  0.00    -0.383 N 
ATOM      4  H2  UNL     1      17.640 -15.072  44.176  1.00  0.00     0.160 HD
HETATM    5  C8  UNL     1      15.843 -14.224  44.597  1.00  0.00     0.173 A 
HETATM    6  N3  UNL     1      14.768 -13.712  43.837  1.00  0.00    -0.364 N 
ATOM      7  H3  UNL     1      13.888 -13.354  44.208  1.00  0.00     0.162 HD
ENDROOT
BRANCH   1   8
HETATM    8  N1  UNL     1      14.088 -14.386  41.728  1.00  0.00    -0.380 N 
ATOM      9  H1  UNL     1      14.263 -15.236  41.191  1.00  0.00     0.160 HD
BRANCH   8  10
HETATM   10  C5  UNL     1      12.802 -13.831  41.748  1.00  0.00     0.066 C 
BRANCH  10  11
HETATM   11  C2  UNL     1      12.021 -14.263  40.521  1.00  0.00    -0.020 C 
HETATM   12  C1  UNL     1      10.698 -14.861  40.965  1.00  0.00     0.020 C 
HETATM   13  C3  UNL     1      12.869 -15.263  39.785  1.00  0.00     0.020 C 
HETATM   14  C4  UNL     1      11.737 -13.095  39.637  1.00  0.00     0.020 C 
ENDBRANCH  10  11
ENDBRANCH   8  10
ENDBRANCH   1   8
TORSDOF 3
ENDMDL
MODEL 4
REMARK VINA RESULT: -4.882969012      0.845      1.399
REMARK  3 active torsions:
REMARK  status: ('A' for Active; 'I' for Inactive)
REMARK    1  A    between atoms: C2_2  and  C5_5 
REMARK    2  A    between atoms: C5_5  and  N1_6 
REMARK    3  A    between atoms: N1_6  and  C6_8 
ROOT
HETATM    1  C6  UNL     1      14.739 -14.054  42.629  1.00  0.00     0.199 A 
HETATM    2  C7  UNL     1      15.690 -12.966  42.967  1.00  0.00     0.167 A 
HETATM    3  N2  UNL     1      16.947 -13.363  42.402  1.00  0.00    -0.383 N 
ATOM      4  H2  UNL     1      17.816 -12.841  42.511  1.00  0.00     0.160 HD
HETATM    5  C8  UNL     1      16.842 -14.451  41.746  1.00  0.00     0.173 A 
HETATM    6  N3  UNL     1      15.515 -14.934  41.778  1.00  0.00    -0.364 N 
ATOM      7  H3  UNL     1      15.165 -15.757  41.288  1.00  0.00     0.162 HD
ENDROOT
BRANCH   1   8
HETATM    8  N1  UNL     1      13.568 -13.693  41.953  1.00  0.00    -0.380 N 
ATOM      9  H1  UNL     1      13.032 -12.884  42.269  1.00  0.00     0.160 HD
BRANCH   8  10
HETATM   10  C5  UNL     1      13.125 -14.430  40.848  1.00  0.00     0.066 C 
BRANCH  10  11
HETATM   11  C2  UNL     1      11.638 -14.216  40.632  1.00  0.00    -0.020 C 
HETATM   12  C1  UNL     1      11.053 -15.455  39.978  1.00  0.00     0.020 C 
HETATM   13  C3  UNL     1      11.486 -13.000  39.762  1.00  0.00     0.020 C 
HETATM   14  C4  UNL     1      10.941 -13.997  41.932  1.00  0.00     0.020 C 
ENDBRANCH  10  11
ENDBRANCH   8  10
ENDBRANCH   1   8
TORSDOF 3
ENDMDL
MODEL 5
REMARK VINA RESULT: -4.678177427      3.597      5.328
REMARK  3 active torsions:
REMARK  status: ('A' for Active; 'I' for Inactive)
REMARK    1  A    between atoms: C2_2  and  C5_5 
REMARK    2  A    between atoms: C5_5  and  N1_6 
REMARK    3  A    between atoms: N1_6  and  C6_8 
ROOT
HETATM    1  C6  UNL     1      16.081 -11.523  45.836  1.00  0.00     0.199 A 
HETATM    2  C7  UNL     1      16.366 -12.026  47.202  1.00  0.00     0.167 A 
HETATM    3  N2  UNL     1      15.631 -11.171  48.088  1.00  0.00    -0.383 N 
ATOM      4  H2  UNL     1      15.666 -11.233  49.106  1.00  0.00     0.160 HD
HETATM    5  C8  UNL     1      14.929 -10.324  47.446  1.00  0.00     0.173 A 
HETATM    6  N3  UNL     1      15.092 -10.486  46.052  1.00  0.00    -0.364 N 
ATOM      7  H3  UNL     1      14.599  -9.966  45.326  1.00  0.00     0.162 HD
ENDROOT
BRANCH   1   8
HETATM    8  N1  UNL     1      15.573 -12.442  44.909  1.00  0.00    -0.380 N 
ATOM      9  H1  UNL     1      14.796 -13.048  45.173  1.00  0.00     0.160 HD
BRANCH   8  10
HETATM   10  C5  UNL     1      16.123 -12.538  43.624  1.00  0.00     0.066 C 
BRANCH  10  11
HETATM   11  C2  UNL     1      15.927 -13.937  43.069  1.00  0.00    -0.020 C 
HETATM   12  C1  UNL     1      14.562 -14.017  42.409  1.00  0.00     0.020 C 
HETATM   13  C3  UNL     1      16.046 -14.892  44.224  1.00  0.00     0.020 C 
HETATM   14  C4  UNL     1      16.965 -14.250  42.046  1.00  0.00     0.020 C 
ENDBRANCH  10  11
ENDBRANCH   8  10
ENDBRANCH   1   8
TORSDOF 3
ENDMDL
