MODEL 1
REMARK VINA RESULT: -4.730567054      0.000      0.000
REMARK  3 active torsions:
REMARK  status: ('A' for Active; 'I' for Inactive)
REMARK    1  A    between atoms: C2_2  and  N1_3 
REMARK    2  A    between atoms: C7_11  and  N2_12 
REMARK    3  A    between atoms: C7_11  and  N3_16 
ROOT
HETATM    1  C1  UNL     1      17.059  -9.431  45.121  1.00  0.00     0.051 C 
HETATM    2  C2  UNL     1      16.584  -8.109  45.675  1.00  0.00     0.176 C 
HETATM    3  C3  UNL     1      17.368  -7.662  46.865  1.00  0.00     0.026 C 
HETATM    4  C4  UNL     1      16.399  -6.829  47.698  1.00  0.00     0.016 C 
HETATM    5  C5  UNL     1      15.640  -8.165  47.782  1.00  0.00     0.047 C 
HETATM    6  C6  UNL     1      17.039  -8.759  47.886  1.00  0.00     0.016 C 
HETATM    7  C7  UNL     1      15.219  -8.328  46.358  1.00  0.00     0.244 C 
ENDROOT
BRANCH   7   8
HETATM    8  N2  UNL     1      14.368  -7.204  46.002  1.00  0.00    -0.049 N 
ATOM      9  H23 UNL     1      14.831  -6.302  46.117  1.00  0.00     0.277 HD
ATOM     10  H22 UNL     1      14.196  -7.137  44.999  1.00  0.00     0.277 HD
ATOM     11  H21 UNL     1      13.511  -7.284  46.549  1.00  0.00     0.277 HD
ENDBRANCH   7   8
BRANCH   7  12
HETATM   12  N3  UNL     1      14.659  -9.581  46.040  1.00  0.00    -0.305 N 
HETATM   13  N4  UNL     1      13.933 -10.131  46.913  1.00  0.00    -0.347 N 
ATOM     14  H42 UNL     1      13.768  -9.674  47.809  1.00  0.00     0.176 HD
ATOM     15  H41 UNL     1      13.527 -11.039  46.683  1.00  0.00     0.176 HD
ATOM     16  H3  UNL     1      14.833 -10.026  45.139  1.00  0.00     0.182 HD
ENDBRANCH   7  12
BRANCH   2  17
HETATM   17  N1  UNL     1      16.451  -7.101  44.655  1.00  0.00    -0.066 N 
ATOM     18  H13 UNL     1      17.353  -6.677  44.438  1.00  0.00     0.275 HD
ATOM     19  H12 UNL     1      16.245  -7.521  43.748  1.00  0.00     0.275 HD
ATOM     20  H11 UNL     1      15.760  -6.391  44.896  1.00  0.00     0.275 HD
ENDBRANCH   2  17
TORSDOF 3
ENDMDL
MODEL 2
REMARK VINA RESULT: -4.666997444      1.646      2.093
REMARK  3 active torsions:
REMARK  status: ('A' for Active; 'I' for Inactive)
REMARK    1  A    between atoms: C2_2  and  N1_3 
REMARK    2  A    between atoms: C7_11  and  N2_12 
REMARK    3  A    between atoms: C7_11  and  N3_16 
ROOT
HETATM    1  C1  UNL     1      17.096 -10.094  45.013  1.00  0.00     0.051 C 
HETATM    2  C2  UNL     1      16.133  -9.398  45.944  1.00  0.00     0.176 C 
HETATM    3  C3  UNL     1      16.819  -8.517  46.937  1.00  0.00     0.026 C 
HETATM    4  C4  UNL     1      15.911  -8.507  48.164  1.00  0.00     0.016 C 
HETATM    5  C5  UNL     1      16.241 -10.010  48.169  1.00  0.00     0.047 C 
HETATM    6  C6  UNL     1      17.627  -9.535  47.752  1.00  0.00     0.016 C 
HETATM    7  C7  UNL     1      15.552 -10.445  46.917  1.00  0.00     0.244 C 
ENDROOT
BRANCH   7   8
HETATM    8  N2  UNL     1      14.131 -10.166  47.058  1.00  0.00    -0.049 N 
ATOM      9  H23 UNL     1      13.938  -9.405  47.709  1.00  0.00     0.277 HD
ATOM     10  H22 UNL     1      13.726  -9.737  46.227  1.00  0.00     0.277 HD
ATOM     11  H21 UNL     1      13.673 -11.040  47.320  1.00  0.00     0.277 HD
ENDBRANCH   7   8
BRANCH   7  12
HETATM   12  N3  UNL     1      15.829 -11.764  46.509  1.00  0.00    -0.305 N 
HETATM   13  N4  UNL     1      15.890 -12.649  47.405  1.00  0.00    -0.347 N 
ATOM     14  H42 UNL     1      15.741 -12.403  48.383  1.00  0.00     0.176 HD
ATOM     15  H41 UNL     1      16.091 -13.605  47.110  1.00  0.00     0.176 HD
ATOM     16  H3  UNL     1      15.976 -11.994  45.526  1.00  0.00     0.182 HD
ENDBRANCH   7  12
BRANCH   2  17
HETATM   17  N1  UNL     1      15.057  -8.752  45.239  1.00  0.00    -0.066 N 
ATOM     18  H13 UNL     1      15.367  -7.876  44.818  1.00  0.00     0.275 HD
ATOM     19  H12 UNL     1      14.813  -9.264  44.392  1.00  0.00     0.275 HD
ATOM     20  H11 UNL     1      14.237  -8.605  45.829  1.00  0.00     0.275 HD
ENDBRANCH   2  17
TORSDOF 3
ENDMDL
MODEL 3
REMARK VINA RESULT: -4.635441248      1.403      2.060
REMARK  3 active torsions:
REMARK  status: ('A' for Active; 'I' for Inactive)
REMARK    1  A    between atoms: C2_2  and  N1_3 
REMARK    2  A    between atoms: C7_11  and  N2_12 
REMARK    3  A    between atoms: C7_11  and  N3_16 
ROOT
HETATM    1  C1  UNL     1      16.911  -8.863  48.226  1.00  0.00     0.051 C 
HETATM    2  C2  UNL     1      16.807  -8.589  46.745  1.00  0.00     0.176 C 
HETATM    3  C3  UNL     1      17.170  -7.185  46.388  1.00  0.00     0.026 C 
HETATM    4  C4  UNL     1      16.355  -6.862  45.138  1.00  0.00     0.016 C 
HETATM    5  C5  UNL     1      15.172  -7.091  46.096  1.00  0.00     0.047 C 
HETATM    6  C6  UNL     1      16.073  -6.386  47.104  1.00  0.00     0.016 C 
HETATM    7  C7  UNL     1      15.314  -8.555  46.359  1.00  0.00     0.244 C 
ENDROOT
BRANCH   7   8
HETATM    8  N2  UNL     1      15.175  -9.260  45.094  1.00  0.00    -0.049 N 
ATOM      9  H23 UNL     1      16.000  -9.178  44.500  1.00  0.00     0.277 HD
ATOM     10  H22 UNL     1      15.189 -10.274  45.201  1.00  0.00     0.277 HD
ATOM     11  H21 UNL     1      14.325  -8.918  44.646  1.00  0.00     0.277 HD
ENDBRANCH   7   8
BRANCH   7  12
HETATM   12  N3  UNL     1      14.488  -9.062  47.380  1.00  0.00    -0.305 N 
HETATM   13  N4  UNL     1      13.820 -10.101  47.126  1.00  0.00    -0.347 N 
ATOM     14  H42 UNL     1      13.887 -10.546  46.210  1.00  0.00     0.176 HD
ATOM     15  H41 UNL     1      13.221 -10.469  47.865  1.00  0.00     0.176 HD
ATOM     16  H3  UNL     1      14.431  -8.606  48.291  1.00  0.00     0.182 HD
ENDBRANCH   7  12
BRANCH   2  17
HETATM   17  N1  UNL     1      17.483  -9.583  45.953  1.00  0.00    -0.066 N 
ATOM     18  H13 UNL     1      16.823 -10.099  45.370  1.00  0.00     0.275 HD
ATOM     19  H12 UNL     1      18.045  -9.150  45.220  1.00  0.00     0.275 HD
ATOM     20  H11 UNL     1      18.046 -10.217  46.520  1.00  0.00     0.275 HD
ENDBRANCH   2  17
TORSDOF 3
ENDMDL
MODEL 4
REMARK VINA RESULT: -4.593301943      9.589     10.672
REMARK  3 active torsions:
REMARK  status: ('A' for Active; 'I' for Inactive)
REMARK    1  A    between atoms: C2_2  and  N1_3 
REMARK    2  A    between atoms: C7_11  and  N2_12 
REMARK    3  A    between atoms: C7_11  and  N3_16 
ROOT
HETATM    1  C1  UNL     1       9.481 -13.132  41.778  1.00  0.00     0.051 C 
HETATM    2  C2  UNL     1      10.135 -14.380  41.237  1.00  0.00     0.176 C 
HETATM    3  C3  UNL     1      11.626 -14.331  41.303  1.00  0.00     0.026 C 
HETATM    4  C4  UNL     1      12.112 -15.194  40.142  1.00  0.00     0.016 C 
HETATM    5  C5  UNL     1      11.381 -14.127  39.308  1.00  0.00     0.047 C 
HETATM    6  C6  UNL     1      11.943 -13.170  40.351  1.00  0.00     0.016 C 
HETATM    7  C7  UNL     1       9.965 -14.396  39.704  1.00  0.00     0.244 C 
ENDROOT
BRANCH   7   8
HETATM    8  N2  UNL     1       9.633 -15.758  39.316  1.00  0.00    -0.049 N 
ATOM      9  H23 UNL     1      10.456 -16.325  39.111  1.00  0.00     0.277 HD
ATOM     10  H22 UNL     1       9.277 -16.316  40.091  1.00  0.00     0.277 HD
ATOM     11  H21 UNL     1       8.983 -15.702  38.532  1.00  0.00     0.277 HD
ENDBRANCH   7   8
BRANCH   7  12
HETATM   12  N3  UNL     1       9.029 -13.440  39.262  1.00  0.00    -0.305 N 
HETATM   13  N4  UNL     1       8.312 -13.745  38.270  1.00  0.00    -0.347 N 
ATOM     14  H42 UNL     1       8.417 -14.653  37.817  1.00  0.00     0.176 HD
ATOM     15  H41 UNL     1       7.634 -13.054  37.950  1.00  0.00     0.176 HD
ATOM     16  H3  UNL     1       8.935 -12.537  39.726  1.00  0.00     0.182 HD
ENDBRANCH   7  12
BRANCH   2  17
HETATM   17  N1  UNL     1       9.568 -15.583  41.792  1.00  0.00    -0.066 N 
ATOM     18  H13 UNL     1       9.882 -15.728  42.751  1.00  0.00     0.275 HD
ATOM     19  H12 UNL     1       8.568 -15.473  41.962  1.00  0.00     0.275 HD
ATOM     20  H11 UNL     1       9.755 -16.404  41.216  1.00  0.00     0.275 HD
ENDBRANCH   2  17
TORSDOF 3
ENDMDL
MODEL 5
REMARK VINA RESULT: -4.501144224      3.817      4.995
REMARK  3 active torsions:
REMARK  status: ('A' for Active; 'I' for Inactive)
REMARK    1  A    between atoms: C2_2  and  N1_3 
REMARK    2  A    between atoms: C7_11  and  N2_12 
REMARK    3  A    between atoms: C7_11  and  N3_16 
ROOT
HETATM    1  C1  UNL     1      16.099 -14.526  46.602  1.00  0.00     0.051 C 
HETATM    2  C2  UNL     1      16.135 -13.480  45.513  1.00  0.00     0.176 C 
HETATM    3  C3  UNL     1      17.412 -13.491  44.740  1.00  0.00     0.026 C 
HETATM    4  C4  UNL     1      17.612 -12.054  44.268  1.00  0.00     0.016 C 
HETATM    5  C5  UNL     1      17.675 -11.780  45.781  1.00  0.00     0.047 C 
HETATM    6  C6  UNL     1      18.433 -13.101  45.816  1.00  0.00     0.016 C 
HETATM    7  C7  UNL     1      16.268 -12.092  46.173  1.00  0.00     0.244 C 
ENDROOT
BRANCH   7   8
HETATM    8  N2  UNL     1      15.384 -11.184  45.460  1.00  0.00    -0.049 N 
ATOM      9  H23 UNL     1      15.831 -10.301  45.218  1.00  0.00     0.277 HD
ATOM     10  H22 UNL     1      15.179 -11.493  44.510  1.00  0.00     0.277 HD
ATOM     11  H21 UNL     1      14.546 -11.064  46.030  1.00  0.00     0.277 HD
ENDBRANCH   7   8
BRANCH   7  12
HETATM   12  N3  UNL     1      16.030 -12.137  47.560  1.00  0.00    -0.305 N 
HETATM   13  N4  UNL     1      15.369 -11.190  48.067  1.00  0.00    -0.347 N 
ATOM     14  H42 UNL     1      15.027 -10.429  47.481  1.00  0.00     0.176 HD
ATOM     15  H41 UNL     1      15.196 -11.222  49.072  1.00  0.00     0.176 HD
ATOM     16  H3  UNL     1      16.379 -12.905  48.133  1.00  0.00     0.182 HD
ENDBRANCH   7  12
BRANCH   2  17
HETATM   17  N1  UNL     1      14.955 -13.505  44.688  1.00  0.00    -0.066 N 
ATOM     18  H13 UNL     1      15.173 -13.832  43.746  1.00  0.00     0.275 HD
ATOM     19  H12 UNL     1      14.320 -14.249  44.977  1.00  0.00     0.275 HD
ATOM     20  H11 UNL     1      14.478 -12.604  44.663  1.00  0.00     0.275 HD
ENDBRANCH   2  17
TORSDOF 3
ENDMDL
