MODEL 1
REMARK VINA RESULT: -4.882040074      0.000      0.000
REMARK  3 active torsions:
REMARK  status: ('A' for Active; 'I' for Inactive)
REMARK    1  A    between atoms: N1_1  and  C1_5 
REMARK    2  A    between atoms: C1_5  and  C2_6 
REMARK    3  A    between atoms: C8_12  and  N2_13 
ROOT
HETATM    1  C2  UNL     1       9.055 -13.597  39.066  1.00  0.00     0.041 C 
HETATM    2  C3  UNL     1      10.251 -12.683  39.214  1.00  0.00     0.008 C 
HETATM    3  C4  UNL     1      11.381 -13.335  39.967  1.00  0.00     0.000 C 
HETATM    4  C5  UNL     1      10.958 -13.784  41.327  1.00  0.00     0.000 C 
HETATM    5  C6  UNL     1       9.943 -14.876  41.336  1.00  0.00     0.002 C 
HETATM    6  C7  UNL     1       9.915 -15.709  40.093  1.00  0.00     0.033 C 
HETATM    7  C8  UNL     1       9.561 -14.989  38.852  1.00  0.00     0.189 C 
ENDROOT
BRANCH   1   8
HETATM    8  C1  UNL     1       8.267 -13.092  37.866  1.00  0.00     0.236 C 
BRANCH   8   9
HETATM    9  N1  UNL     1       9.256 -12.629  36.892  1.00  0.00    -0.079 N 
ATOM     10  H13 UNL     1       8.904 -11.899  36.273  1.00  0.00     0.274 HD
ATOM     11  H12 UNL     1      10.012 -12.087  37.308  1.00  0.00     0.274 HD
ATOM     12  H11 UNL     1       9.578 -13.460  36.396  1.00  0.00     0.274 HD
ENDBRANCH   8   9
ENDBRANCH   1   8
BRANCH   7  13
HETATM   13  N2  UNL     1       8.592 -15.802  38.099  1.00  0.00    -0.075 N 
ATOM     14  H23 UNL     1       8.001 -16.352  38.721  1.00  0.00     0.274 HD
ATOM     15  H22 UNL     1       7.872 -15.222  37.669  1.00  0.00     0.274 HD
ATOM     16  H21 UNL     1       9.059 -16.391  37.409  1.00  0.00     0.274 HD
ENDBRANCH   7  13
TORSDOF 3
ENDMDL
MODEL 2
REMARK VINA RESULT: -4.619288021      0.996      2.765
REMARK  3 active torsions:
REMARK  status: ('A' for Active; 'I' for Inactive)
REMARK    1  A    between atoms: N1_1  and  C1_5 
REMARK    2  A    between atoms: C1_5  and  C2_6 
REMARK    3  A    between atoms: C8_12  and  N2_13 
ROOT
HETATM    1  C2  UNL     1       9.785 -14.700  39.185  1.00  0.00     0.041 C 
HETATM    2  C3  UNL     1       9.723 -15.211  40.607  1.00  0.00     0.008 C 
HETATM    3  C4  UNL     1      10.392 -14.277  41.582  1.00  0.00     0.000 C 
HETATM    4  C5  UNL     1      11.822 -14.034  41.228  1.00  0.00     0.000 C 
HETATM    5  C6  UNL     1      12.034 -13.305  39.946  1.00  0.00     0.002 C 
HETATM    6  C7  UNL     1      10.872 -12.470  39.506  1.00  0.00     0.033 C 
HETATM    7  C8  UNL     1       9.626 -13.212  39.222  1.00  0.00     0.189 C 
ENDROOT
BRANCH   1   8
HETATM    8  C1  UNL     1       8.647 -15.372  38.431  1.00  0.00     0.236 C 
BRANCH   8   9
HETATM    9  N1  UNL     1       8.616 -16.761  38.888  1.00  0.00    -0.079 N 
ATOM     10  H13 UNL     1       8.307 -16.864  39.854  1.00  0.00     0.274 HD
ATOM     11  H12 UNL     1       7.874 -17.313  38.459  1.00  0.00     0.274 HD
ATOM     12  H11 UNL     1       9.549 -17.138  38.719  1.00  0.00     0.274 HD
ENDBRANCH   8   9
ENDBRANCH   1   8
BRANCH   7  13
HETATM   13  N2  UNL     1       9.055 -12.703  37.964  1.00  0.00    -0.075 N 
ATOM     14  H23 UNL     1       9.727 -12.754  37.200  1.00  0.00     0.274 HD
ATOM     15  H22 UNL     1       8.346 -13.336  37.593  1.00  0.00     0.274 HD
ATOM     16  H21 UNL     1       8.689 -11.758  38.079  1.00  0.00     0.274 HD
ENDBRANCH   7  13
TORSDOF 3
ENDMDL
MODEL 3
REMARK VINA RESULT: -4.594753147      2.886      3.897
REMARK  3 active torsions:
REMARK  status: ('A' for Active; 'I' for Inactive)
REMARK    1  A    between atoms: N1_1  and  C1_5 
REMARK    2  A    between atoms: C1_5  and  C2_6 
REMARK    3  A    between atoms: C8_12  and  N2_13 
ROOT
HETATM    1  C2  UNL     1      12.121 -14.288  40.742  1.00  0.00     0.041 C 
HETATM    2  C3  UNL     1      11.474 -13.851  42.038  1.00  0.00     0.008 C 
HETATM    3  C4  UNL     1       9.984 -14.068  42.037  1.00  0.00     0.000 C 
HETATM    4  C5  UNL     1       9.317 -13.351  40.910  1.00  0.00     0.000 C 
HETATM    5  C6  UNL     1       9.677 -13.848  39.553  1.00  0.00     0.002 C 
HETATM    6  C7  UNL     1      10.168 -15.262  39.518  1.00  0.00     0.033 C 
HETATM    7  C8  UNL     1      11.415 -15.520  40.267  1.00  0.00     0.189 C 
ENDROOT
BRANCH   1   8
HETATM    8  C1  UNL     1      13.585 -14.560  41.056  1.00  0.00     0.236 C 
BRANCH   8   9
HETATM    9  N1  UNL     1      13.907 -13.755  42.234  1.00  0.00    -0.079 N 
ATOM     10  H13 UNL     1      13.099 -13.557  42.823  1.00  0.00     0.274 HD
ATOM     11  H12 UNL     1      14.452 -14.260  42.933  1.00  0.00     0.274 HD
ATOM     12  H11 UNL     1      14.372 -12.915  41.888  1.00  0.00     0.274 HD
ENDBRANCH   8   9
ENDBRANCH   1   8
BRANCH   7  13
HETATM   13  N2  UNL     1      12.297 -16.355  39.435  1.00  0.00    -0.075 N 
ATOM     14  H23 UNL     1      13.124 -15.840  39.132  1.00  0.00     0.274 HD
ATOM     15  H22 UNL     1      12.757 -17.079  39.987  1.00  0.00     0.274 HD
ATOM     16  H21 UNL     1      11.793 -16.753  38.643  1.00  0.00     0.274 HD
ENDBRANCH   7  13
TORSDOF 3
ENDMDL
MODEL 4
REMARK VINA RESULT: -4.412247537      2.067      2.884
REMARK  3 active torsions:
REMARK  status: ('A' for Active; 'I' for Inactive)
REMARK    1  A    between atoms: N1_1  and  C1_5 
REMARK    2  A    between atoms: C1_5  and  C2_6 
REMARK    3  A    between atoms: C8_12  and  N2_13 
ROOT
HETATM    1  C2  UNL     1      10.332 -13.996  39.907  1.00  0.00     0.041 C 
HETATM    2  C3  UNL     1      10.772 -15.253  39.189  1.00  0.00     0.008 C 
HETATM    3  C4  UNL     1      11.892 -15.960  39.905  1.00  0.00     0.000 C 
HETATM    4  C5  UNL     1      13.083 -15.078  40.086  1.00  0.00     0.000 C 
HETATM    5  C6  UNL     1      12.864 -13.910  40.985  1.00  0.00     0.002 C 
HETATM    6  C7  UNL     1      11.748 -14.081  41.967  1.00  0.00     0.033 C 
HETATM    7  C8  UNL     1      10.404 -14.257  41.379  1.00  0.00     0.189 C 
ENDROOT
BRANCH   1   8
HETATM    8  C1  UNL     1       8.909 -13.710  39.452  1.00  0.00     0.236 C 
BRANCH   8   9
HETATM    9  N1  UNL     1       8.658 -14.591  38.311  1.00  0.00    -0.079 N 
ATOM     10  H13 UNL     1       7.846 -14.317  37.758  1.00  0.00     0.274 HD
ATOM     11  H12 UNL     1       9.351 -14.499  37.568  1.00  0.00     0.274 HD
ATOM     12  H11 UNL     1       8.592 -15.536  38.688  1.00  0.00     0.274 HD
ENDBRANCH   8   9
ENDBRANCH   1   8
BRANCH   7  13
HETATM   13  N2  UNL     1       9.455 -13.409  42.120  1.00  0.00    -0.075 N 
ATOM     14  H23 UNL     1       9.938 -12.705  42.677  1.00  0.00     0.274 HD
ATOM     15  H22 UNL     1       8.940 -12.789  41.494  1.00  0.00     0.274 HD
ATOM     16  H21 UNL     1       8.824 -13.971  42.691  1.00  0.00     0.274 HD
ENDBRANCH   7  13
TORSDOF 3
ENDMDL
MODEL 5
REMARK VINA RESULT: -4.289557702      2.442      3.781
REMARK  3 active torsions:
REMARK  status: ('A' for Active; 'I' for Inactive)
REMARK    1  A    between atoms: N1_1  and  C1_5 
REMARK    2  A    between atoms: C1_5  and  C2_6 
REMARK    3  A    between atoms: C8_12  and  N2_13 
ROOT
HETATM    1  C2  UNL     1      11.062 -14.339  41.484  1.00  0.00     0.041 C 
HETATM    2  C3  UNL     1      12.201 -14.024  42.428  1.00  0.00     0.008 C 
HETATM    3  C4  UNL     1      13.513 -13.857  41.707  1.00  0.00     0.000 C 
HETATM    4  C5  UNL     1      13.875 -15.072  40.919  1.00  0.00     0.000 C 
HETATM    5  C6  UNL     1      12.962 -15.372  39.780  1.00  0.00     0.002 C 
HETATM    6  C7  UNL     1      12.203 -14.190  39.263  1.00  0.00     0.033 C 
HETATM    7  C8  UNL     1      11.276 -13.558  40.225  1.00  0.00     0.189 C 
ENDROOT
BRANCH   1   8
HETATM    8  C1  UNL     1       9.781 -13.927  42.195  1.00  0.00     0.236 C 
BRANCH   8   9
HETATM    9  N1  UNL     1       9.139 -15.165  42.636  1.00  0.00    -0.079 N 
ATOM     10  H13 UNL     1       8.872 -15.779  41.867  1.00  0.00     0.274 HD
ATOM     11  H12 UNL     1       9.780 -15.812  43.096  1.00  0.00     0.274 HD
ATOM     12  H11 UNL     1       8.354 -14.886  43.224  1.00  0.00     0.274 HD
ENDBRANCH   8   9
ENDBRANCH   1   8
BRANCH   7  13
HETATM   13  N2  UNL     1      10.002 -13.288  39.539  1.00  0.00    -0.075 N 
ATOM     14  H23 UNL     1       9.230 -13.207  40.201  1.00  0.00     0.274 HD
ATOM     15  H22 UNL     1       9.978 -12.343  39.154  1.00  0.00     0.274 HD
ATOM     16  H21 UNL     1       9.810 -13.988  38.823  1.00  0.00     0.274 HD
ENDBRANCH   7  13
TORSDOF 3
ENDMDL
