MODEL 1
REMARK VINA RESULT: -5.067284378      0.000      0.000
REMARK  1 active torsions:
REMARK  status: ('A' for Active; 'I' for Inactive)
REMARK    1  A    between atoms: C2_2  and  C3_3 
ROOT
HETATM    1  C3  UNL     1       9.824 -14.939  40.600  1.00  0.00     0.003 C 
HETATM    2  C4  UNL     1      11.328 -14.804  40.653  1.00  0.00     0.008 C 
HETATM    3  C5  UNL     1      11.764 -13.353  40.662  1.00  0.00     0.022 C 
HETATM    4  C6  UNL     1      11.496 -12.784  39.284  1.00  0.00     0.139 C 
HETATM    5  N1  UNL     1      10.197 -12.132  39.239  1.00  0.00    -0.336 N 
ATOM      6  H1  UNL     1       9.931 -11.483  39.979  1.00  0.00     0.180 HD
HETATM    7  N2  UNL     1       9.331 -12.382  38.216  1.00  0.00    -0.301 N 
ATOM      8  H2  UNL     1       9.304 -11.650  37.507  1.00  0.00     0.187 HD
HETATM    9  C7  UNL     1       8.552 -13.360  37.982  1.00  0.00     0.192 C 
HETATM   10  N3  UNL     1       8.355 -14.518  38.755  1.00  0.00    -0.385 N 
ATOM     11  H3  UNL     1       7.390 -14.740  38.998  1.00  0.00     0.160 HD
HETATM   12  C8  UNL     1       9.363 -15.428  39.245  1.00  0.00     0.125 C 
ENDROOT
BRANCH   1  13
HETATM   13  C2  UNL     1       9.382 -15.920  41.677  1.00  0.00     0.002 C 
HETATM   14  C1  UNL     1       9.025 -15.143  42.920  1.00  0.00     0.005 C 
ENDBRANCH   1  13
TORSDOF 1
ENDMDL
MODEL 2
REMARK VINA RESULT: -5.055213351      7.897      9.589
REMARK  1 active torsions:
REMARK  status: ('A' for Active; 'I' for Inactive)
REMARK    1  A    between atoms: C2_2  and  C3_3 
ROOT
HETATM    1  C3  UNL     1      16.436 -11.502  45.001  1.00  0.00     0.003 C 
HETATM    2  C4  UNL     1      17.614 -11.884  45.867  1.00  0.00     0.008 C 
HETATM    3  C5  UNL     1      17.172 -12.438  47.206  1.00  0.00     0.022 C 
HETATM    4  C6  UNL     1      16.611 -11.289  48.017  1.00  0.00     0.139 C 
HETATM    5  N1  UNL     1      15.167 -11.204  47.859  1.00  0.00    -0.336 N 
ATOM      6  H1  UNL     1      14.599 -12.047  47.945  1.00  0.00     0.180 HD
HETATM    7  N2  UNL     1      14.568 -10.008  47.598  1.00  0.00    -0.301 N 
ATOM      8  H2  UNL     1      14.127  -9.578  48.411  1.00  0.00     0.187 HD
HETATM    9  C7  UNL     1      14.457  -9.329  46.527  1.00  0.00     0.192 C 
HETATM   10  N3  UNL     1      14.949  -9.640  45.247  1.00  0.00    -0.385 N 
ATOM     11  H3  UNL     1      14.272  -9.609  44.484  1.00  0.00     0.160 HD
HETATM   12  C8  UNL     1      16.300 -10.000  44.889  1.00  0.00     0.125 C 
ENDROOT
BRANCH   1  13
HETATM   13  C2  UNL     1      16.630 -12.104  43.616  1.00  0.00     0.002 C 
HETATM   14  C1  UNL     1      15.755 -13.327  43.494  1.00  0.00     0.005 C 
ENDBRANCH   1  13
TORSDOF 1
ENDMDL
MODEL 3
REMARK VINA RESULT: -4.914266313      7.199      8.830
REMARK  1 active torsions:
REMARK  status: ('A' for Active; 'I' for Inactive)
REMARK    1  A    between atoms: C2_2  and  C3_3 
ROOT
HETATM    1  C3  UNL     1      15.617 -13.739  44.141  1.00  0.00     0.003 C 
HETATM    2  C4  UNL     1      16.436 -14.979  44.420  1.00  0.00     0.008 C 
HETATM    3  C5  UNL     1      16.130 -15.561  45.784  1.00  0.00     0.022 C 
HETATM    4  C6  UNL     1      16.707 -14.625  46.825  1.00  0.00     0.139 C 
HETATM    5  N1  UNL     1      15.701 -13.679  47.281  1.00  0.00    -0.336 N 
ATOM      6  H1  UNL     1      14.773 -14.013  47.540  1.00  0.00     0.180 HD
HETATM    7  N2  UNL     1      15.988 -12.349  47.365  1.00  0.00    -0.301 N 
ATOM      8  H2  UNL     1      16.181 -12.025  48.313  1.00  0.00     0.187 HD
HETATM    9  C7  UNL     1      16.060 -11.437  46.481  1.00  0.00     0.192 C 
HETATM   10  N3  UNL     1      15.852 -11.554  45.095  1.00  0.00    -0.385 N 
ATOM     11  H3  UNL     1      15.186 -10.901  44.681  1.00  0.00     0.160 HD
HETATM   12  C8  UNL     1      16.472 -12.492  44.190  1.00  0.00     0.125 C 
ENDROOT
BRANCH   1  13
HETATM   13  C2  UNL     1      14.980 -13.871  42.765  1.00  0.00     0.002 C 
HETATM   14  C1  UNL     1      15.926 -14.627  41.865  1.00  0.00     0.005 C 
ENDBRANCH   1  13
TORSDOF 1
ENDMDL
MODEL 4
REMARK VINA RESULT: -4.856524657      1.808      2.895
REMARK  1 active torsions:
REMARK  status: ('A' for Active; 'I' for Inactive)
REMARK    1  A    between atoms: C2_2  and  C3_3 
ROOT
HETATM    1  C3  UNL     1      11.089 -14.033  40.531  1.00  0.00     0.003 C 
HETATM    2  C4  UNL     1      11.245 -12.739  39.767  1.00  0.00     0.008 C 
HETATM    3  C5  UNL     1       9.907 -12.172  39.339  1.00  0.00     0.022 C 
HETATM    4  C6  UNL     1       9.360 -13.061  38.242  1.00  0.00     0.139 C 
HETATM    5  N1  UNL     1       8.472 -14.073  38.793  1.00  0.00    -0.336 N 
ATOM      6  H1  UNL     1       7.751 -13.803  39.461  1.00  0.00     0.180 HD
HETATM    7  N2  UNL     1       8.597 -15.379  38.423  1.00  0.00    -0.301 N 
ATOM      8  H2  UNL     1       7.906 -15.685  37.738  1.00  0.00     0.187 HD
HETATM    9  C7  UNL     1       9.414 -16.288  38.775  1.00  0.00     0.192 C 
HETATM   10  N3  UNL     1      10.476 -16.192  39.693  1.00  0.00    -0.385 N 
ATOM     11  H3  UNL     1      10.496 -16.892  40.435  1.00  0.00     0.160 HD
HETATM   12  C8  UNL     1      11.540 -15.217  39.705  1.00  0.00     0.125 C 
ENDROOT
BRANCH   1  13
HETATM   13  C2  UNL     1      11.915 -13.953  41.807  1.00  0.00     0.002 C 
HETATM   14  C1  UNL     1      13.377 -13.995  41.440  1.00  0.00     0.005 C 
ENDBRANCH   1  13
TORSDOF 1
ENDMDL
MODEL 5
REMARK VINA RESULT: -4.838825585      9.587     10.860
REMARK  1 active torsions:
REMARK  status: ('A' for Active; 'I' for Inactive)
REMARK    1  A    between atoms: C2_2  and  C3_3 
ROOT
HETATM    1  C3  UNL     1      16.719  -7.539  44.932  1.00  0.00     0.003 C 
HETATM    2  C4  UNL     1      17.974  -8.308  45.277  1.00  0.00     0.008 C 
HETATM    3  C5  UNL     1      17.823  -9.788  44.997  1.00  0.00     0.022 C 
HETATM    4  C6  UNL     1      16.873 -10.358  46.030  1.00  0.00     0.139 C 
HETATM    5  N1  UNL     1      15.511 -10.379  45.521  1.00  0.00    -0.336 N 
ATOM      6  H1  UNL     1      15.326 -10.746  44.587  1.00  0.00     0.180 HD
HETATM    7  N2  UNL     1      14.480  -9.913  46.281  1.00  0.00    -0.301 N 
ATOM      8  H2  UNL     1      13.926 -10.646  46.724  1.00  0.00     0.187 HD
HETATM    9  C7  UNL     1      14.081  -8.733  46.540  1.00  0.00     0.192 C 
HETATM   10  N3  UNL     1      14.622  -7.516  46.090  1.00  0.00    -0.385 N 
ATOM     11  H3  UNL     1      13.969  -6.866  45.652  1.00  0.00     0.160 HD
HETATM   12  C8  UNL     1      15.995  -7.079  46.178  1.00  0.00     0.125 C 
ENDROOT
BRANCH   1  13
HETATM   13  C2  UNL     1      17.099  -6.334  44.084  1.00  0.00     0.002 C 
HETATM   14  C1  UNL     1      18.519  -6.507  43.606  1.00  0.00     0.005 C 
ENDBRANCH   1  13
TORSDOF 1
ENDMDL
