MODEL 1
REMARK VINA RESULT: -8.271817757      0.000      0.000
REMARK  7 active torsions:
REMARK  status: ('A' for Active; 'I' for Inactive)
REMARK    1  A    between atoms: N1_1  and  N2_4 
REMARK       I    between atoms: N2_4  and  C1_6 
REMARK    2  A    between atoms: C1_6  and  C2_8 
REMARK    3  A    between atoms: C2_8  and  N3_9 
REMARK       I    between atoms: N3_9  and  C3_11 
REMARK    4  A    between atoms: C3_11  and  C4_13 
REMARK    5  A    between atoms: C4_13  and  N4_14 
REMARK    6  A    between atoms: N4_14  and  C5_16 
REMARK    7  A    between atoms: N8_29  and  N9_30 
ROOT
HETATM    1  C5  UNL     1      17.732  33.472  15.530  1.00  0.00     0.708 A 
HETATM    2  N5  UNL     1      17.365  34.278  14.495  1.00  0.00    -0.172 N 
ATOM      3  H5  UNL     1      18.073  34.542  13.810  1.00  0.00     0.186 HD
HETATM    4  C6  UNL     1      16.129  34.735  14.337  1.00  0.00     0.157 A 
HETATM    5  N6  UNL     1      15.515  35.527  13.426  1.00  0.00    -0.292 N 
ATOM      6  H6  UNL     1      15.964  35.949  12.614  1.00  0.00     0.172 HD
HETATM    7  C7  UNL     1      14.230  35.666  13.759  1.00  0.00     0.326 A 
HETATM    8  O3  UNL     1      13.360  36.342  13.125  1.00  0.00    -0.247 OA
HETATM    9  N7  UNL     1      13.989  34.977  14.876  1.00  0.00    -0.301 N 
ATOM     10  H7  UNL     1      13.095  34.902  15.362  1.00  0.00     0.171 HD
HETATM   11  C8  UNL     1      15.167  34.392  15.247  1.00  0.00     0.152 A 
HETATM   12  C9  UNL     1      15.523  33.586  16.288  1.00  0.00     0.312 A 
HETATM   13  O4  UNL     1      14.646  33.264  17.130  1.00  0.00    -0.263 OA
HETATM   14  N8  UNL     1      16.795  33.137  16.416  1.00  0.00    -0.052 N 
ENDROOT
BRANCH   1  15
HETATM   15  N4  UNL     1      18.902  33.099  15.591  1.00  0.00    -0.195 N 
ATOM     16  H4  UNL     1      18.986  32.333  16.259  1.00  0.00     0.183 HD
BRANCH  15  17
HETATM   17  C4  UNL     1      20.147  33.386  15.043  1.00  0.00     0.180 C 
BRANCH  17  18
HETATM   18  C3  UNL     1      21.278  33.482  15.960  1.00  0.00     0.257 C 
HETATM   19  N3  UNL     1      21.907  32.318  16.452  1.00  0.00    -0.348 N 
ATOM     20  H3  UNL     1      21.571  31.398  16.167  1.00  0.00     0.163 HD
HETATM   21  O2  UNL     1      21.704  34.594  16.320  1.00  0.00    -0.267 OA
BRANCH  19  22
HETATM   22  C2  UNL     1      23.034  32.428  17.367  1.00  0.00     0.227 C 
BRANCH  22  23
HETATM   23  C1  UNL     1      23.066  31.242  18.269  1.00  0.00     0.253 C 
HETATM   24  N2  UNL     1      23.495  31.349  19.615  1.00  0.00    -0.275 N 
ATOM     25  H2  UNL     1      23.792  32.252  19.986  1.00  0.00     0.189 HD
HETATM   26  O1  UNL     1      22.709  30.131  17.835  1.00  0.00    -0.270 OA
BRANCH  24  27
HETATM   27  N1  UNL     1      23.513  30.216  20.431  1.00  0.00    -0.343 N 
ATOM     28  H12 UNL     1      22.718  30.034  21.043  1.00  0.00     0.176 HD
ATOM     29  H11 UNL     1      24.314  29.585  20.407  1.00  0.00     0.176 HD
ENDBRANCH  24  27
ENDBRANCH  22  23
ENDBRANCH  19  22
ENDBRANCH  17  18
ENDBRANCH  15  17
ENDBRANCH   1  15
BRANCH  14  30
HETATM   30  N9  UNL     1      17.054  32.320  17.515  1.00  0.00    -0.321 N 
ATOM     31  H92 UNL     1      16.799  32.697  18.428  1.00  0.00     0.178 HD
ATOM     32  H91 UNL     1      17.475  31.395  17.428  1.00  0.00     0.178 HD
ENDBRANCH  14  30
TORSDOF 7
ENDMDL
MODEL 2
REMARK VINA RESULT: -8.217280372      1.611      1.696
REMARK  7 active torsions:
REMARK  status: ('A' for Active; 'I' for Inactive)
REMARK    1  A    between atoms: N1_1  and  N2_4 
REMARK       I    between atoms: N2_4  and  C1_6 
REMARK    2  A    between atoms: C1_6  and  C2_8 
REMARK    3  A    between atoms: C2_8  and  N3_9 
REMARK       I    between atoms: N3_9  and  C3_11 
REMARK    4  A    between atoms: C3_11  and  C4_13 
REMARK    5  A    between atoms: C4_13  and  N4_14 
REMARK    6  A    between atoms: N4_14  and  C5_16 
REMARK    7  A    between atoms: N8_29  and  N9_30 
ROOT
HETATM    1  C5  UNL     1      17.585  33.384  15.453  1.00  0.00     0.708 A 
HETATM    2  N5  UNL     1      17.226  34.204  14.427  1.00  0.00    -0.172 N 
ATOM      3  H5  UNL     1      17.928  34.441  13.726  1.00  0.00     0.186 HD
HETATM    4  C6  UNL     1      16.004  34.707  14.296  1.00  0.00     0.157 A 
HETATM    5  N6  UNL     1      15.401  35.522  13.398  1.00  0.00    -0.292 N 
ATOM      6  H6  UNL     1      15.847  35.928  12.576  1.00  0.00     0.172 HD
HETATM    7  C7  UNL     1      14.129  35.709  13.760  1.00  0.00     0.326 A 
HETATM    8  O3  UNL     1      13.272  36.418  13.145  1.00  0.00    -0.247 OA
HETATM    9  N7  UNL     1      13.887  35.029  14.882  1.00  0.00    -0.301 N 
ATOM     10  H7  UNL     1      13.003  34.987  15.387  1.00  0.00     0.171 HD
HETATM   11  C8  UNL     1      15.051  34.400  15.227  1.00  0.00     0.152 A 
HETATM   12  C9  UNL     1      15.399  33.580  16.260  1.00  0.00     0.312 A 
HETATM   13  O4  UNL     1      14.529  33.291  17.122  1.00  0.00    -0.263 OA
HETATM   14  N8  UNL     1      16.656  33.084  16.360  1.00  0.00    -0.052 N 
ENDROOT
BRANCH   1  15
HETATM   15  N4  UNL     1      18.741  32.967  15.489  1.00  0.00    -0.195 N 
ATOM     16  H4  UNL     1      18.759  32.030  15.890  1.00  0.00     0.183 HD
BRANCH  15  17
HETATM   17  C4  UNL     1      20.032  33.364  15.158  1.00  0.00     0.180 C 
BRANCH  17  18
HETATM   18  C3  UNL     1      20.828  33.997  16.205  1.00  0.00     0.257 C 
HETATM   19  N3  UNL     1      22.200  34.261  16.007  1.00  0.00    -0.348 N 
ATOM     20  H3  UNL     1      22.645  34.008  15.125  1.00  0.00     0.163 HD
HETATM   21  O2  UNL     1      20.305  34.313  17.289  1.00  0.00    -0.267 OA
BRANCH  19  22
HETATM   22  C2  UNL     1      22.982  34.893  17.060  1.00  0.00     0.227 C 
BRANCH  22  23
HETATM   23  C1  UNL     1      23.834  33.871  17.734  1.00  0.00     0.253 C 
HETATM   24  N2  UNL     1      25.211  33.742  17.429  1.00  0.00    -0.275 N 
ATOM     25  H2  UNL     1      25.641  34.354  16.735  1.00  0.00     0.189 HD
HETATM   26  O1  UNL     1      23.328  33.114  18.582  1.00  0.00    -0.270 OA
BRANCH  24  27
HETATM   27  N1  UNL     1      25.979  32.774  18.080  1.00  0.00    -0.343 N 
ATOM     28  H12 UNL     1      25.563  32.243  18.844  1.00  0.00     0.176 HD
ATOM     29  H11 UNL     1      26.941  32.607  17.785  1.00  0.00     0.176 HD
ENDBRANCH  24  27
ENDBRANCH  22  23
ENDBRANCH  19  22
ENDBRANCH  17  18
ENDBRANCH  15  17
ENDBRANCH   1  15
BRANCH  14  30
HETATM   30  N9  UNL     1      16.908  32.257  17.453  1.00  0.00    -0.321 N 
ATOM     31  H92 UNL     1      17.037  31.266  17.250  1.00  0.00     0.178 HD
ATOM     32  H91 UNL     1      16.962  32.608  18.410  1.00  0.00     0.178 HD
ENDBRANCH  14  30
TORSDOF 7
ENDMDL
MODEL 3
REMARK VINA RESULT: -8.124894685      1.874      2.040
REMARK  7 active torsions:
REMARK  status: ('A' for Active; 'I' for Inactive)
REMARK    1  A    between atoms: N1_1  and  N2_4 
REMARK       I    between atoms: N2_4  and  C1_6 
REMARK    2  A    between atoms: C1_6  and  C2_8 
REMARK    3  A    between atoms: C2_8  and  N3_9 
REMARK       I    between atoms: N3_9  and  C3_11 
REMARK    4  A    between atoms: C3_11  and  C4_13 
REMARK    5  A    between atoms: C4_13  and  N4_14 
REMARK    6  A    between atoms: N4_14  and  C5_16 
REMARK    7  A    between atoms: N8_29  and  N9_30 
ROOT
HETATM    1  C5  UNL     1      18.311  34.646  14.901  1.00  0.00     0.708 A 
HETATM    2  N5  UNL     1      17.246  34.283  14.133  1.00  0.00    -0.172 N 
ATOM      3  H5  UNL     1      17.324  33.444  13.559  1.00  0.00     0.186 HD
HETATM    4  C6  UNL     1      16.110  34.970  14.099  1.00  0.00     0.157 A 
HETATM    5  N6  UNL     1      14.933  34.833  13.444  1.00  0.00    -0.292 N 
ATOM      6  H6  UNL     1      14.705  34.083  12.791  1.00  0.00     0.172 HD
HETATM    7  C7  UNL     1      14.119  35.833  13.789  1.00  0.00     0.326 A 
HETATM    8  O3  UNL     1      12.935  36.015  13.364  1.00  0.00    -0.247 OA
HETATM    9  N7  UNL     1      14.742  36.626  14.661  1.00  0.00    -0.301 N 
ATOM     10  H7  UNL     1      14.363  37.467  15.096  1.00  0.00     0.171 HD
HETATM   11  C8  UNL     1      15.987  36.098  14.863  1.00  0.00     0.152 A 
HETATM   12  C9  UNL     1      17.047  36.472  15.635  1.00  0.00     0.312 A 
HETATM   13  O4  UNL     1      16.944  37.508  16.341  1.00  0.00    -0.263 OA
HETATM   14  N8  UNL     1      18.191  35.745  15.645  1.00  0.00    -0.052 N 
ENDROOT
BRANCH   1  15
HETATM   15  N4  UNL     1      19.320  33.946  14.866  1.00  0.00    -0.195 N 
ATOM     16  H4  UNL     1      19.887  34.197  14.056  1.00  0.00     0.183 HD
BRANCH  15  17
HETATM   17  C4  UNL     1      19.937  32.921  15.575  1.00  0.00     0.180 C 
BRANCH  17  18
HETATM   18  C3  UNL     1      21.271  33.181  16.107  1.00  0.00     0.257 C 
HETATM   19  N3  UNL     1      22.009  32.155  16.734  1.00  0.00    -0.348 N 
ATOM     20  H3  UNL     1      21.612  31.220  16.819  1.00  0.00     0.163 HD
HETATM   21  O2  UNL     1      21.775  34.315  16.013  1.00  0.00    -0.267 OA
BRANCH  19  22
HETATM   22  C2  UNL     1      23.339  32.430  17.260  1.00  0.00     0.227 C 
BRANCH  22  23
HETATM   23  C1  UNL     1      23.399  32.041  18.698  1.00  0.00     0.253 C 
HETATM   24  N2  UNL     1      23.286  30.688  19.102  1.00  0.00    -0.275 N 
ATOM     25  H2  UNL     1      23.161  29.954  18.404  1.00  0.00     0.189 HD
HETATM   26  O1  UNL     1      23.551  32.921  19.565  1.00  0.00    -0.270 OA
BRANCH  24  27
HETATM   27  N1  UNL     1      23.347  30.361  20.458  1.00  0.00    -0.343 N 
ATOM     28  H12 UNL     1      22.922  30.989  21.139  1.00  0.00     0.176 HD
ATOM     29  H11 UNL     1      23.811  29.501  20.753  1.00  0.00     0.176 HD
ENDBRANCH  24  27
ENDBRANCH  22  23
ENDBRANCH  19  22
ENDBRANCH  17  18
ENDBRANCH  15  17
ENDBRANCH   1  15
BRANCH  14  30
HETATM   30  N9  UNL     1      19.213  36.214  16.468  1.00  0.00    -0.321 N 
ATOM     31  H92 UNL     1      20.110  36.393  16.016  1.00  0.00     0.178 HD
ATOM     32  H91 UNL     1      19.088  36.375  17.467  1.00  0.00     0.178 HD
ENDBRANCH  14  30
TORSDOF 7
ENDMDL
MODEL 4
REMARK VINA RESULT: -8.059628743      1.919      2.193
REMARK  7 active torsions:
REMARK  status: ('A' for Active; 'I' for Inactive)
REMARK    1  A    between atoms: N1_1  and  N2_4 
REMARK       I    between atoms: N2_4  and  C1_6 
REMARK    2  A    between atoms: C1_6  and  C2_8 
REMARK    3  A    between atoms: C2_8  and  N3_9 
REMARK       I    between atoms: N3_9  and  C3_11 
REMARK    4  A    between atoms: C3_11  and  C4_13 
REMARK    5  A    between atoms: C4_13  and  N4_14 
REMARK    6  A    between atoms: N4_14  and  C5_16 
REMARK    7  A    between atoms: N8_29  and  N9_30 
ROOT
HETATM    1  C5  UNL     1      17.712  33.541  15.441  1.00  0.00     0.708 A 
HETATM    2  N5  UNL     1      17.313  34.338  14.411  1.00  0.00    -0.172 N 
ATOM      3  H5  UNL     1      18.003  34.606  13.709  1.00  0.00     0.186 HD
HETATM    4  C6  UNL     1      16.069  34.781  14.278  1.00  0.00     0.157 A 
HETATM    5  N6  UNL     1      15.426  35.560  13.376  1.00  0.00    -0.292 N 
ATOM      6  H6  UNL     1      15.852  35.983  12.552  1.00  0.00     0.172 HD
HETATM    7  C7  UNL     1      14.147  35.688  13.737  1.00  0.00     0.326 A 
HETATM    8  O3  UNL     1      13.257  36.351  13.119  1.00  0.00    -0.247 OA
HETATM    9  N7  UNL     1      13.938  35.002  14.863  1.00  0.00    -0.301 N 
ATOM     10  H7  UNL     1      13.057  34.919  15.368  1.00  0.00     0.171 HD
HETATM   11  C8  UNL     1      15.131  34.431  15.210  1.00  0.00     0.152 A 
HETATM   12  C9  UNL     1      15.518  33.635  16.247  1.00  0.00     0.312 A 
HETATM   13  O4  UNL     1      14.664  33.308  17.111  1.00  0.00    -0.263 OA
HETATM   14  N8  UNL     1      16.799  33.201  16.349  1.00  0.00    -0.052 N 
ENDROOT
BRANCH   1  15
HETATM   15  N4  UNL     1      18.887  33.182  15.478  1.00  0.00    -0.195 N 
ATOM     16  H4  UNL     1      18.946  32.230  15.840  1.00  0.00     0.183 HD
BRANCH  15  17
HETATM   17  C4  UNL     1      20.161  33.656  15.186  1.00  0.00     0.180 C 
BRANCH  17  18
HETATM   18  C3  UNL     1      21.241  33.278  16.092  1.00  0.00     0.257 C 
HETATM   19  N3  UNL     1      22.506  33.897  16.002  1.00  0.00    -0.348 N 
ATOM     20  H3  UNL     1      22.673  34.616  15.299  1.00  0.00     0.163 HD
HETATM   21  O2  UNL     1      21.059  32.402  16.958  1.00  0.00    -0.267 OA
BRANCH  19  22
HETATM   22  C2  UNL     1      23.575  33.509  16.912  1.00  0.00     0.227 C 
BRANCH  22  23
HETATM   23  C1  UNL     1      23.733  34.547  17.971  1.00  0.00     0.253 C 
HETATM   24  N2  UNL     1      24.894  35.355  18.045  1.00  0.00    -0.275 N 
ATOM     25  H2  UNL     1      25.645  35.234  17.365  1.00  0.00     0.189 HD
HETATM   26  O1  UNL     1      22.829  34.709  18.810  1.00  0.00    -0.270 OA
BRANCH  24  27
HETATM   27  N1  UNL     1      25.008  36.317  19.051  1.00  0.00    -0.343 N 
ATOM     28  H12 UNL     1      25.567  36.106  19.877  1.00  0.00     0.176 HD
ATOM     29  H11 UNL     1      24.536  37.215  18.950  1.00  0.00     0.176 HD
ENDBRANCH  24  27
ENDBRANCH  22  23
ENDBRANCH  19  22
ENDBRANCH  17  18
ENDBRANCH  15  17
ENDBRANCH   1  15
BRANCH  14  30
HETATM   30  N9  UNL     1      17.091  32.393  17.446  1.00  0.00    -0.321 N 
ATOM     31  H92 UNL     1      17.896  32.668  18.009  1.00  0.00     0.178 HD
ATOM     32  H91 UNL     1      16.540  31.569  17.687  1.00  0.00     0.178 HD
ENDBRANCH  14  30
TORSDOF 7
ENDMDL
MODEL 5
REMARK VINA RESULT: -8.026308269      4.142     10.288
REMARK  7 active torsions:
REMARK  status: ('A' for Active; 'I' for Inactive)
REMARK    1  A    between atoms: N1_1  and  N2_4 
REMARK       I    between atoms: N2_4  and  C1_6 
REMARK    2  A    between atoms: C1_6  and  C2_8 
REMARK    3  A    between atoms: C2_8  and  N3_9 
REMARK       I    between atoms: N3_9  and  C3_11 
REMARK    4  A    between atoms: C3_11  and  C4_13 
REMARK    5  A    between atoms: C4_13  and  N4_14 
REMARK    6  A    between atoms: N4_14  and  C5_16 
REMARK    7  A    between atoms: N8_29  and  N9_30 
ROOT
HETATM    1  C5  UNL     1      25.480  33.211  18.027  1.00  0.00     0.708 A 
HETATM    2  N5  UNL     1      26.509  34.077  17.812  1.00  0.00    -0.172 N 
ATOM      3  H5  UNL     1      26.291  35.058  17.640  1.00  0.00     0.186 HD
HETATM    4  C6  UNL     1      27.783  33.703  17.816  1.00  0.00     0.157 A 
HETATM    5  N6  UNL     1      28.964  34.341  17.637  1.00  0.00    -0.292 N 
ATOM      6  H6  UNL     1      29.074  35.336  17.447  1.00  0.00     0.172 HD
HETATM    7  C7  UNL     1      29.961  33.460  17.750  1.00  0.00     0.326 A 
HETATM    8  O3  UNL     1      31.201  33.714  17.639  1.00  0.00    -0.247 OA
HETATM    9  N7  UNL     1      29.453  32.252  18.002  1.00  0.00    -0.301 N 
ATOM     10  H7  UNL     1      29.979  31.389  18.135  1.00  0.00     0.171 HD
HETATM   11  C8  UNL     1      28.094  32.391  18.045  1.00  0.00     0.152 A 
HETATM   12  C9  UNL     1      27.072  31.514  18.261  1.00  0.00     0.312 A 
HETATM   13  O4  UNL     1      27.347  30.305  18.472  1.00  0.00    -0.263 OA
HETATM   14  N8  UNL     1      25.783  31.933  18.249  1.00  0.00    -0.052 N 
ENDROOT
BRANCH   1  15
HETATM   15  N4  UNL     1      24.333  33.652  18.003  1.00  0.00    -0.195 N 
ATOM     16  H4  UNL     1      23.907  33.561  18.925  1.00  0.00     0.183 HD
BRANCH  15  17
HETATM   17  C4  UNL     1      23.428  34.236  17.122  1.00  0.00     0.180 C 
BRANCH  17  18
HETATM   18  C3  UNL     1      22.320  33.410  16.653  1.00  0.00     0.257 C 
HETATM   19  N3  UNL     1      21.391  33.914  15.718  1.00  0.00    -0.348 N 
ATOM     20  H3  UNL     1      21.491  34.864  15.362  1.00  0.00     0.163 HD
HETATM   21  O2  UNL     1      22.180  32.247  17.074  1.00  0.00    -0.267 OA
BRANCH  19  22
HETATM   22  C2  UNL     1      20.290  33.078  15.260  1.00  0.00     0.227 C 
BRANCH  22  23
HETATM   23  C1  UNL     1      19.011  33.839  15.353  1.00  0.00     0.253 C 
HETATM   24  N2  UNL     1      18.292  34.219  14.194  1.00  0.00    -0.275 N 
ATOM     25  H2  UNL     1      18.646  33.974  13.269  1.00  0.00     0.189 HD
HETATM   26  O1  UNL     1      18.563  34.148  16.472  1.00  0.00    -0.270 OA
BRANCH  24  27
HETATM   27  N1  UNL     1      17.097  34.931  14.320  1.00  0.00    -0.343 N 
ATOM     28  H12 UNL     1      16.504  34.764  15.132  1.00  0.00     0.176 HD
ATOM     29  H11 UNL     1      16.831  35.606  13.603  1.00  0.00     0.176 HD
ENDBRANCH  24  27
ENDBRANCH  22  23
ENDBRANCH  19  22
ENDBRANCH  17  18
ENDBRANCH  15  17
ENDBRANCH   1  15
BRANCH  14  30
HETATM   30  N9  UNL     1      24.815  30.958  18.480  1.00  0.00    -0.321 N 
ATOM     31  H92 UNL     1      25.107  30.153  19.034  1.00  0.00     0.178 HD
ATOM     32  H91 UNL     1      23.862  31.029  18.121  1.00  0.00     0.178 HD
ENDBRANCH  14  30
TORSDOF 7
ENDMDL
