MODEL 1
REMARK VINA RESULT: -7.435476809      0.000      0.000
REMARK  7 active torsions:
REMARK  status: ('A' for Active; 'I' for Inactive)
REMARK       I    between atoms: N1_1  and  C1_5 
REMARK       I    between atoms: C1_5  and  N2_6 
REMARK       I    between atoms: C1_5  and  N3_10 
REMARK    1  A    between atoms: N3_10  and  C2_12 
REMARK    2  A    between atoms: C4_18  and  N6_19 
REMARK    3  A    between atoms: N6_19  and  N7_21 
REMARK    4  A    between atoms: N7_21  and  S1_23 
REMARK    5  A    between atoms: S1_23  and  N8_26 
REMARK    6  A    between atoms: N8_26  and  S2_28 
REMARK    7  A    between atoms: S2_28  and  N9_29 
ROOT
HETATM    1  C2  UNL     1      16.795  36.246  15.126  1.00  0.00     0.696 A 
HETATM    2  N4  UNL     1      16.373  37.226  15.951  1.00  0.00    -0.187 N 
ATOM      3  H4  UNL     1      17.054  37.719  16.528  1.00  0.00     0.185 HD
HETATM    4  C3  UNL     1      15.070  37.571  16.031  1.00  0.00     0.215 A 
HETATM    5  N5  UNL     1      14.145  36.945  15.287  1.00  0.00    -0.185 N 
ATOM      6  H5  UNL     1      13.160  37.203  15.344  1.00  0.00     0.185 HD
HETATM    7  C4  UNL     1      14.556  35.972  14.465  1.00  0.00     0.712 A 
HETATM    8  N10 UNL     1      15.872  35.620  14.381  1.00  0.00    -0.021 N 
ATOM      9  H10 UNL     1      16.156  34.874  13.746  1.00  0.00     0.203 HD
ENDROOT
BRANCH   7  10
HETATM   10  N6  UNL     1      13.715  35.347  13.737  1.00  0.00    -0.121 N 
ATOM     11  H6  UNL     1      14.043  34.701  13.019  1.00  0.00     0.206 HD
BRANCH  10  12
HETATM   12  N7  UNL     1      12.353  35.549  13.923  1.00  0.00    -0.195 N 
ATOM     13  H7  UNL     1      11.993  35.891  14.814  1.00  0.00     0.202 HD
BRANCH  12  14
HETATM   14  S1  UNL     1      11.285  35.208  12.618  1.00  0.00     0.347 S 
HETATM   15  O1  UNL     1      12.071  34.584  11.515  1.00  0.00    -0.180 OA
HETATM   16  O2  UNL     1      10.226  34.231  13.036  1.00  0.00    -0.180 OA
BRANCH  14  17
HETATM   17  N8  UNL     1      10.628  36.693  12.062  1.00  0.00    -0.176 N 
ATOM     18  H8  UNL     1      10.453  36.903  11.079  1.00  0.00     0.195 HD
BRANCH  17  19
HETATM   19  S2  UNL     1      10.298  37.787  13.349  1.00  0.00     0.327 S 
HETATM   20  O3  UNL     1      11.547  38.340  13.926  1.00  0.00    -0.182 OA
HETATM   21  O4  UNL     1       9.539  37.019  14.402  1.00  0.00    -0.182 OA
BRANCH  19  22
HETATM   22  N9  UNL     1       9.265  39.067  12.796  1.00  0.00    -0.311 N 
ATOM     23  H92 UNL     1       8.364  38.920  12.343  1.00  0.00     0.170 HD
ATOM     24  H91 UNL     1       9.692  39.973  12.992  1.00  0.00     0.170 HD
ENDBRANCH  19  22
ENDBRANCH  17  19
ENDBRANCH  14  17
ENDBRANCH  12  14
ENDBRANCH  10  12
ENDBRANCH   7  10
BRANCH   1  25
HETATM   25  N3  UNL     1      18.029  35.890  15.023  1.00  0.00    -0.173 N 
HETATM   26  C1  UNL     1      18.392  34.510  14.928  1.00  0.00     0.494 C 
HETATM   27  N1  UNL     1      19.281  34.341  13.811  1.00  0.00    -0.032 N 
HETATM   28  N2  UNL     1      19.039  34.112  16.178  1.00  0.00    -0.032 N 
ATOM     29  H13 UNL     1      20.162  34.835  13.953  1.00  0.00     0.278 HD
ATOM     30  H12 UNL     1      19.645  33.389  13.760  1.00  0.00     0.278 HD
ATOM     31  H11 UNL     1      18.830  34.619  12.939  1.00  0.00     0.278 HD
ATOM     32  H23 UNL     1      19.403  33.160  16.127  1.00  0.00     0.278 HD
ATOM     33  H22 UNL     1      19.920  34.606  16.320  1.00  0.00     0.278 HD
ATOM     34  H21 UNL     1      18.408  34.232  16.970  1.00  0.00     0.278 HD
ATOM     35  H3  UNL     1      18.758  36.603  15.009  1.00  0.00     0.181 HD
ENDBRANCH   1  25
TORSDOF 7
ENDMDL
MODEL 2
REMARK VINA RESULT: -7.343399633      6.564      8.895
REMARK  7 active torsions:
REMARK  status: ('A' for Active; 'I' for Inactive)
REMARK       I    between atoms: N1_1  and  C1_5 
REMARK       I    between atoms: C1_5  and  N2_6 
REMARK       I    between atoms: C1_5  and  N3_10 
REMARK    1  A    between atoms: N3_10  and  C2_12 
REMARK    2  A    between atoms: C4_18  and  N6_19 
REMARK    3  A    between atoms: N6_19  and  N7_21 
REMARK    4  A    between atoms: N7_21  and  S1_23 
REMARK    5  A    between atoms: S1_23  and  N8_26 
REMARK    6  A    between atoms: N8_26  and  S2_28 
REMARK    7  A    between atoms: S2_28  and  N9_29 
ROOT
HETATM    1  C2  UNL     1      15.930  35.140  16.328  1.00  0.00     0.696 A 
HETATM    2  N4  UNL     1      15.669  33.910  16.817  1.00  0.00    -0.187 N 
ATOM      3  H4  UNL     1      14.916  33.794  17.496  1.00  0.00     0.185 HD
HETATM    4  C3  UNL     1      16.380  32.830  16.432  1.00  0.00     0.215 A 
HETATM    5  N5  UNL     1      17.378  32.944  15.541  1.00  0.00    -0.185 N 
ATOM      6  H5  UNL     1      17.917  32.130  15.247  1.00  0.00     0.185 HD
HETATM    7  C4  UNL     1      17.643  34.161  15.051  1.00  0.00     0.712 A 
HETATM    8  N10 UNL     1      16.927  35.256  15.438  1.00  0.00    -0.021 N 
ATOM      9  H10 UNL     1      17.151  36.171  15.047  1.00  0.00     0.203 HD
ENDROOT
BRANCH   7  10
HETATM   10  N6  UNL     1      18.581  34.321  14.202  1.00  0.00    -0.121 N 
ATOM     11  H6  UNL     1      18.407  34.836  13.339  1.00  0.00     0.206 HD
BRANCH  10  12
HETATM   12  N7  UNL     1      19.842  33.793  14.454  1.00  0.00    -0.195 N 
ATOM     13  H7  UNL     1      20.342  33.272  13.734  1.00  0.00     0.202 HD
BRANCH  12  14
HETATM   14  S1  UNL     1      20.540  34.036  16.006  1.00  0.00     0.347 S 
HETATM   15  O1  UNL     1      20.059  35.342  16.541  1.00  0.00    -0.180 OA
HETATM   16  O2  UNL     1      20.108  32.962  16.961  1.00  0.00    -0.180 OA
BRANCH  14  17
HETATM   17  N8  UNL     1      22.246  34.105  15.822  1.00  0.00    -0.176 N 
ATOM     18  H8  UNL     1      22.713  34.541  15.028  1.00  0.00     0.195 HD
BRANCH  17  19
HETATM   19  S2  UNL     1      23.076  33.355  17.131  1.00  0.00     0.327 S 
HETATM   20  O3  UNL     1      22.780  34.026  18.419  1.00  0.00    -0.182 OA
HETATM   21  O4  UNL     1      24.551  33.442  16.829  1.00  0.00    -0.182 OA
BRANCH  19  22
HETATM   22  N9  UNL     1      22.664  31.671  17.214  1.00  0.00    -0.311 N 
ATOM     23  H92 UNL     1      21.719  31.321  17.371  1.00  0.00     0.170 HD
ATOM     24  H91 UNL     1      23.497  31.098  17.083  1.00  0.00     0.170 HD
ENDBRANCH  19  22
ENDBRANCH  17  19
ENDBRANCH  14  17
ENDBRANCH  12  14
ENDBRANCH  10  12
ENDBRANCH   7  10
BRANCH   1  25
HETATM   25  N3  UNL     1      15.273  36.193  16.673  1.00  0.00    -0.173 N 
HETATM   26  C1  UNL     1      15.499  37.447  16.022  1.00  0.00     0.494 C 
HETATM   27  N1  UNL     1      14.231  37.996  15.623  1.00  0.00    -0.032 N 
HETATM   28  N2  UNL     1      16.185  38.339  16.957  1.00  0.00    -0.032 N 
ATOM     29  H13 UNL     1      13.647  38.219  16.429  1.00  0.00     0.278 HD
ATOM     30  H12 UNL     1      14.333  38.936  15.241  1.00  0.00     0.278 HD
ATOM     31  H11 UNL     1      13.753  37.374  14.971  1.00  0.00     0.278 HD
ATOM     32  H23 UNL     1      16.286  39.279  16.575  1.00  0.00     0.278 HD
ATOM     33  H22 UNL     1      15.600  38.562  17.763  1.00  0.00     0.278 HD
ATOM     34  H21 UNL     1      17.084  37.950  17.241  1.00  0.00     0.278 HD
ATOM     35  H3  UNL     1      14.582  36.133  17.421  1.00  0.00     0.181 HD
ENDBRANCH   1  25
TORSDOF 7
ENDMDL
MODEL 3
REMARK VINA RESULT: -7.296482650      5.073      7.404
REMARK  7 active torsions:
REMARK  status: ('A' for Active; 'I' for Inactive)
REMARK       I    between atoms: N1_1  and  C1_5 
REMARK       I    between atoms: C1_5  and  N2_6 
REMARK       I    between atoms: C1_5  and  N3_10 
REMARK    1  A    between atoms: N3_10  and  C2_12 
REMARK    2  A    between atoms: C4_18  and  N6_19 
REMARK    3  A    between atoms: N6_19  and  N7_21 
REMARK    4  A    between atoms: N7_21  and  S1_23 
REMARK    5  A    between atoms: S1_23  and  N8_26 
REMARK    6  A    between atoms: N8_26  and  S2_28 
REMARK    7  A    between atoms: S2_28  and  N9_29 
ROOT
HETATM    1  C2  UNL     1      14.317  35.744  13.978  1.00  0.00     0.696 A 
HETATM    2  N4  UNL     1      14.216  36.054  15.287  1.00  0.00    -0.187 N 
ATOM      3  H4  UNL     1      13.397  36.565  15.615  1.00  0.00     0.185 HD
HETATM    4  C3  UNL     1      15.173  35.704  16.173  1.00  0.00     0.215 A 
HETATM    5  N5  UNL     1      16.264  35.031  15.777  1.00  0.00    -0.185 N 
ATOM      6  H5  UNL     1      16.989  34.765  16.444  1.00  0.00     0.185 HD
HETATM    7  C4  UNL     1      16.372  34.720  14.480  1.00  0.00     0.712 A 
HETATM    8  N10 UNL     1      15.407  35.072  13.581  1.00  0.00    -0.021 N 
ATOM      9  H10 UNL     1      15.517  34.820  12.599  1.00  0.00     0.203 HD
ENDROOT
BRANCH   7  10
HETATM   10  N6  UNL     1      17.391  34.080  14.055  1.00  0.00    -0.121 N 
ATOM     11  H6  UNL     1      17.267  33.244  13.484  1.00  0.00     0.206 HD
BRANCH  10  12
HETATM   12  N7  UNL     1      18.669  34.523  14.372  1.00  0.00    -0.195 N 
ATOM     13  H7  UNL     1      19.098  35.290  13.855  1.00  0.00     0.202 HD
BRANCH  12  14
HETATM   14  S1  UNL     1      19.513  33.751  15.657  1.00  0.00     0.347 S 
HETATM   15  O1  UNL     1      18.512  33.209  16.621  1.00  0.00    -0.180 OA
HETATM   16  O2  UNL     1      20.326  32.598  15.144  1.00  0.00    -0.180 OA
BRANCH  14  17
HETATM   17  N8  UNL     1      20.472  34.930  16.454  1.00  0.00    -0.176 N 
ATOM     18  H8  UNL     1      21.488  34.876  16.533  1.00  0.00     0.195 HD
BRANCH  17  19
HETATM   19  S2  UNL     1      19.526  36.213  17.105  1.00  0.00     0.327 S 
HETATM   20  O3  UNL     1      18.696  36.859  16.061  1.00  0.00    -0.182 OA
HETATM   21  O4  UNL     1      20.484  37.215  17.698  1.00  0.00    -0.182 OA
BRANCH  19  22
HETATM   22  N9  UNL     1      18.528  35.624  18.397  1.00  0.00    -0.311 N 
ATOM     23  H92 UNL     1      18.418  34.637  18.631  1.00  0.00     0.170 HD
ATOM     24  H91 UNL     1      18.077  36.403  18.876  1.00  0.00     0.170 HD
ENDBRANCH  19  22
ENDBRANCH  17  19
ENDBRANCH  14  17
ENDBRANCH  12  14
ENDBRANCH  10  12
ENDBRANCH   7  10
BRANCH   1  25
HETATM   25  N3  UNL     1      13.425  36.061  13.104  1.00  0.00    -0.173 N 
HETATM   26  C1  UNL     1      12.039  36.116  13.453  1.00  0.00     0.494 C 
HETATM   27  N1  UNL     1      11.497  37.369  13.003  1.00  0.00    -0.032 N 
HETATM   28  N2  UNL     1      11.354  34.991  12.815  1.00  0.00    -0.032 N 
ATOM     29  H13 UNL     1      11.516  37.445  11.986  1.00  0.00     0.278 HD
ATOM     30  H12 UNL     1      10.488  37.415  13.143  1.00  0.00     0.278 HD
ATOM     31  H11 UNL     1      11.975  38.154  13.448  1.00  0.00     0.278 HD
ATOM     32  H23 UNL     1      10.345  35.036  12.955  1.00  0.00     0.278 HD
ATOM     33  H22 UNL     1      11.373  35.066  11.798  1.00  0.00     0.278 HD
ATOM     34  H21 UNL     1      11.739  34.101  13.134  1.00  0.00     0.278 HD
ATOM     35  H3  UNL     1      13.712  36.276  12.149  1.00  0.00     0.181 HD
ENDBRANCH   1  25
TORSDOF 7
ENDMDL
MODEL 4
REMARK VINA RESULT: -7.284198449      4.998      6.838
REMARK  7 active torsions:
REMARK  status: ('A' for Active; 'I' for Inactive)
REMARK       I    between atoms: N1_1  and  C1_5 
REMARK       I    between atoms: C1_5  and  N2_6 
REMARK       I    between atoms: C1_5  and  N3_10 
REMARK    1  A    between atoms: N3_10  and  C2_12 
REMARK    2  A    between atoms: C4_18  and  N6_19 
REMARK    3  A    between atoms: N6_19  and  N7_21 
REMARK    4  A    between atoms: N7_21  and  S1_23 
REMARK    5  A    between atoms: S1_23  and  N8_26 
REMARK    6  A    between atoms: N8_26  and  S2_28 
REMARK    7  A    between atoms: S2_28  and  N9_29 
ROOT
HETATM    1  C2  UNL     1      14.951  36.806  15.585  1.00  0.00     0.696 A 
HETATM    2  N4  UNL     1      13.842  36.827  14.817  1.00  0.00    -0.187 N 
ATOM      3  H4  UNL     1      13.096  37.485  15.039  1.00  0.00     0.185 HD
HETATM    4  C3  UNL     1      13.697  35.998  13.761  1.00  0.00     0.215 A 
HETATM    5  N5  UNL     1      14.658  35.118  13.439  1.00  0.00    -0.185 N 
ATOM      6  H5  UNL     1      14.552  34.490  12.643  1.00  0.00     0.185 HD
HETATM    7  C4  UNL     1      15.762  35.092  14.196  1.00  0.00     0.712 A 
HETATM    8  N10 UNL     1      15.913  35.928  15.264  1.00  0.00    -0.021 N 
ATOM      9  H10 UNL     1      16.766  35.886  15.822  1.00  0.00     0.203 HD
ENDROOT
BRANCH   7  10
HETATM   10  N6  UNL     1      16.704  34.274  13.930  1.00  0.00    -0.121 N 
ATOM     11  H6  UNL     1      16.533  33.482  13.311  1.00  0.00     0.206 HD
BRANCH  10  12
HETATM   12  N7  UNL     1      17.964  34.464  14.485  1.00  0.00    -0.195 N 
ATOM     13  H7  UNL     1      18.589  35.186  14.125  1.00  0.00     0.202 HD
BRANCH  12  14
HETATM   14  S1  UNL     1      18.447  33.457  15.793  1.00  0.00     0.347 S 
HETATM   15  O1  UNL     1      17.498  32.311  15.883  1.00  0.00    -0.180 OA
HETATM   16  O2  UNL     1      19.820  32.898  15.557  1.00  0.00    -0.180 OA
BRANCH  14  17
HETATM   17  N8  UNL     1      18.351  34.375  17.240  1.00  0.00    -0.176 N 
ATOM     18  H8  UNL     1      17.748  34.132  18.027  1.00  0.00     0.195 HD
BRANCH  17  19
HETATM   19  S2  UNL     1      19.385  35.751  17.214  1.00  0.00     0.327 S 
HETATM   20  O3  UNL     1      19.356  36.478  18.506  1.00  0.00    -0.182 OA
HETATM   21  O4  UNL     1      18.901  36.650  16.104  1.00  0.00    -0.182 OA
BRANCH  19  22
HETATM   22  N9  UNL     1      21.007  35.272  16.822  1.00  0.00    -0.311 N 
ATOM     23  H92 UNL     1      21.248  34.398  16.356  1.00  0.00     0.170 HD
ATOM     24  H91 UNL     1      21.667  35.988  17.124  1.00  0.00     0.170 HD
ENDBRANCH  19  22
ENDBRANCH  17  19
ENDBRANCH  14  17
ENDBRANCH  12  14
ENDBRANCH  10  12
ENDBRANCH   7  10
BRANCH   1  25
HETATM   25  N3  UNL     1      15.125  37.582  16.599  1.00  0.00    -0.173 N 
HETATM   26  C1  UNL     1      15.918  37.168  17.714  1.00  0.00     0.494 C 
HETATM   27  N1  UNL     1      16.870  38.203  18.015  1.00  0.00    -0.032 N 
HETATM   28  N2  UNL     1      15.030  36.927  18.852  1.00  0.00    -0.032 N 
ATOM     29  H13 UNL     1      16.409  39.060  18.323  1.00  0.00     0.278 HD
ATOM     30  H12 UNL     1      17.394  37.997  18.865  1.00  0.00     0.278 HD
ATOM     31  H11 UNL     1      17.488  38.372  17.222  1.00  0.00     0.278 HD
ATOM     32  H23 UNL     1      15.555  36.720  19.702  1.00  0.00     0.278 HD
ATOM     33  H22 UNL     1      14.570  37.784  19.159  1.00  0.00     0.278 HD
ATOM     34  H21 UNL     1      14.355  36.192  18.639  1.00  0.00     0.278 HD
ATOM     35  H3  UNL     1      14.690  38.505  16.606  1.00  0.00     0.181 HD
ENDBRANCH   1  25
TORSDOF 7
ENDMDL
MODEL 5
REMARK VINA RESULT: -7.271751837      6.624      9.073
REMARK  7 active torsions:
REMARK  status: ('A' for Active; 'I' for Inactive)
REMARK       I    between atoms: N1_1  and  C1_5 
REMARK       I    between atoms: C1_5  and  N2_6 
REMARK       I    between atoms: C1_5  and  N3_10 
REMARK    1  A    between atoms: N3_10  and  C2_12 
REMARK    2  A    between atoms: C4_18  and  N6_19 
REMARK    3  A    between atoms: N6_19  and  N7_21 
REMARK    4  A    between atoms: N7_21  and  S1_23 
REMARK    5  A    between atoms: S1_23  and  N8_26 
REMARK    6  A    between atoms: N8_26  and  S2_28 
REMARK    7  A    between atoms: S2_28  and  N9_29 
ROOT
HETATM    1  C2  UNL     1      16.029  35.575  15.119  1.00  0.00     0.696 A 
HETATM    2  N4  UNL     1      15.664  34.545  15.909  1.00  0.00    -0.187 N 
ATOM      3  H4  UNL     1      14.782  34.598  16.418  1.00  0.00     0.185 HD
HETATM    4  C3  UNL     1      16.437  33.447  16.043  1.00  0.00     0.215 A 
HETATM    5  N5  UNL     1      17.605  33.343  15.389  1.00  0.00    -0.185 N 
ATOM      6  H5  UNL     1      18.192  32.515  15.487  1.00  0.00     0.185 HD
HETATM    7  C4  UNL     1      17.974  34.361  14.603  1.00  0.00     0.712 A 
HETATM    8  N10 UNL     1      17.196  35.473  14.464  1.00  0.00    -0.021 N 
ATOM      9  H10 UNL     1      17.503  36.233  13.858  1.00  0.00     0.203 HD
ENDROOT
BRANCH   7  10
HETATM   10  N6  UNL     1      19.075  34.309  13.959  1.00  0.00    -0.121 N 
ATOM     11  H6  UNL     1      19.179  34.822  13.084  1.00  0.00     0.206 HD
BRANCH  10  12
HETATM   12  N7  UNL     1      20.131  33.553  14.453  1.00  0.00    -0.195 N 
ATOM     13  H7  UNL     1      20.545  32.807  13.893  1.00  0.00     0.202 HD
BRANCH  12  14
HETATM   14  S1  UNL     1      20.727  33.901  16.028  1.00  0.00     0.347 S 
HETATM   15  O1  UNL     1      20.149  35.201  16.475  1.00  0.00    -0.180 OA
HETATM   16  O2  UNL     1      20.297  32.848  17.007  1.00  0.00    -0.180 OA
BRANCH  14  17
HETATM   17  N8  UNL     1      22.434  34.055  15.935  1.00  0.00    -0.176 N 
ATOM     18  H8  UNL     1      22.919  34.544  15.183  1.00  0.00     0.195 HD
BRANCH  17  19
HETATM   19  S2  UNL     1      23.234  33.288  17.253  1.00  0.00     0.327 S 
HETATM   20  O3  UNL     1      22.904  33.942  18.542  1.00  0.00    -0.182 OA
HETATM   21  O4  UNL     1      24.715  33.382  16.989  1.00  0.00    -0.182 OA
BRANCH  19  22
HETATM   22  N9  UNL     1      22.823  31.603  17.303  1.00  0.00    -0.311 N 
ATOM     23  H92 UNL     1      22.124  31.203  17.929  1.00  0.00     0.170 HD
ATOM     24  H91 UNL     1      23.378  31.085  16.622  1.00  0.00     0.170 HD
ENDBRANCH  19  22
ENDBRANCH  17  19
ENDBRANCH  14  17
ENDBRANCH  12  14
ENDBRANCH  10  12
ENDBRANCH   7  10
BRANCH   1  25
HETATM   25  N3  UNL     1      15.318  36.639  14.967  1.00  0.00    -0.173 N 
HETATM   26  C1  UNL     1      13.930  36.652  15.311  1.00  0.00     0.494 C 
HETATM   27  N1  UNL     1      13.670  37.794  16.144  1.00  0.00    -0.032 N 
HETATM   28  N2  UNL     1      13.145  36.713  14.078  1.00  0.00    -0.032 N 
ATOM     29  H13 UNL     1      13.825  38.669  15.642  1.00  0.00     0.278 HD
ATOM     30  H12 UNL     1      12.674  37.901  16.336  1.00  0.00     0.278 HD
ATOM     31  H11 UNL     1      14.217  37.752  17.003  1.00  0.00     0.278 HD
ATOM     32  H23 UNL     1      12.149  36.820  14.270  1.00  0.00     0.278 HD
ATOM     33  H22 UNL     1      13.300  37.588  13.576  1.00  0.00     0.278 HD
ATOM     34  H21 UNL     1      13.330  35.902  13.487  1.00  0.00     0.278 HD
ATOM     35  H3  UNL     1      15.751  37.484  14.595  1.00  0.00     0.181 HD
ENDBRANCH   1  25
TORSDOF 7
ENDMDL
