MODEL 1
REMARK VINA RESULT: -7.672466905      0.000      0.000
REMARK  6 active torsions:
REMARK  status: ('A' for Active; 'I' for Inactive)
REMARK    1  A    between atoms: C2_3  and  N2_4 
REMARK    2  A    between atoms: N2_4  and  C3_6 
REMARK    3  A    between atoms: C3_6  and  C4_7 
REMARK    4  A    between atoms: C4_7  and  N3_8 
REMARK    5  A    between atoms: C8_20  and  N8_21 
REMARK    6  A    between atoms: N9_26  and  N10_27 
ROOT
HETATM    1  C1  UNL     1      14.666  37.901  15.975  1.00  0.00     0.177 C 
HETATM    2  N1  UNL     1      14.137  36.890  15.089  1.00  0.00    -0.168 N 
HETATM    3  C2  UNL     1      14.671  35.743  14.621  1.00  0.00     0.682 A 
HETATM    4  N6  UNL     1      13.756  35.131  13.772  1.00  0.00    -0.182 N 
ATOM      5  H6  UNL     1      13.899  34.249  13.278  1.00  0.00     0.184 HD
HETATM    6  C6  UNL     1      12.670  35.881  13.710  1.00  0.00     0.163 A 
HETATM    7  C7  UNL     1      11.534  35.606  12.954  1.00  0.00     0.278 C 
HETATM    8  O1  UNL     1      11.402  34.441  12.590  1.00  0.00    -0.265 OA
HETATM    9  N7  UNL     1      10.581  36.470  12.588  1.00  0.00    -0.303 N 
ATOM     10  H7  UNL     1       9.841  36.102  11.990  1.00  0.00     0.171 HD
HETATM   11  C8  UNL     1      10.489  37.795  12.928  1.00  0.00     0.173 C 
HETATM   12  C9  UNL     1      11.100  38.500  13.932  1.00  0.00     0.311 C 
HETATM   13  O2  UNL     1      10.802  39.711  14.124  1.00  0.00    -0.262 OA
HETATM   14  N9  UNL     1      12.040  37.995  14.777  1.00  0.00    -0.204 N 
HETATM   15  C10 UNL     1      12.903  36.982  14.534  1.00  0.00     0.180 A 
ENDROOT
BRANCH   3  16
HETATM   16  N2  UNL     1      15.778  35.248  14.879  1.00  0.00    -0.224 N 
ATOM     17  H2  UNL     1      16.134  35.721  15.709  1.00  0.00     0.177 HD
BRANCH  16  18
HETATM   18  C3  UNL     1      16.715  34.329  14.505  1.00  0.00     0.157 C 
BRANCH  18  19
HETATM   19  C4  UNL     1      17.015  33.408  15.710  1.00  0.00     0.142 C 
BRANCH  19  20
HETATM   20  N3  UNL     1      18.362  32.930  15.683  1.00  0.00    -0.365 N 
HETATM   21  C5  UNL     1      19.211  33.445  16.503  1.00  0.00     0.197 C 
HETATM   22  N4  UNL     1      18.852  34.466  17.425  1.00  0.00    -0.067 NA
HETATM   23  N5  UNL     1      20.549  32.979  16.484  1.00  0.00    -0.067 NA
ATOM     24  H3  UNL     1      18.644  32.198  15.030  1.00  0.00     0.161 HD
ENDBRANCH  19  20
ENDBRANCH  18  19
ENDBRANCH  16  18
ENDBRANCH   3  16
BRANCH  14  25
HETATM   25  N10 UNL     1      12.126  38.565  16.034  1.00  0.00    -0.334 N 
ATOM     26 2H10 UNL     1      11.612  39.437  16.159  1.00  0.00     0.177 HD
ATOM     27 1H10 UNL     1      12.696  38.079  16.726  1.00  0.00     0.177 HD
ENDBRANCH  14  25
BRANCH  11  28
HETATM   28  N8  UNL     1       9.699  38.494  12.184  1.00  0.00    -0.381 N 
ATOM     29  H82 UNL     1      10.153  38.951  11.392  1.00  0.00     0.157 HD
ATOM     30  H81 UNL     1       8.723  38.501  12.482  1.00  0.00     0.157 HD
ENDBRANCH  11  28
TORSDOF 6
ENDMDL
MODEL 2
REMARK VINA RESULT: -7.614504410      2.345      6.874
REMARK  6 active torsions:
REMARK  status: ('A' for Active; 'I' for Inactive)
REMARK    1  A    between atoms: C2_3  and  N2_4 
REMARK    2  A    between atoms: N2_4  and  C3_6 
REMARK    3  A    between atoms: C3_6  and  C4_7 
REMARK    4  A    between atoms: C4_7  and  N3_8 
REMARK    5  A    between atoms: C8_20  and  N8_21 
REMARK    6  A    between atoms: N9_26  and  N10_27 
ROOT
HETATM    1  C1  UNL     1      15.407  38.449  17.319  1.00  0.00     0.177 C 
HETATM    2  N1  UNL     1      14.934  37.684  16.188  1.00  0.00    -0.168 N 
HETATM    3  C2  UNL     1      13.786  37.748  15.483  1.00  0.00     0.682 A 
HETATM    4  N6  UNL     1      13.806  36.769  14.495  1.00  0.00    -0.182 N 
ATOM      5  H6  UNL     1      13.065  36.592  13.817  1.00  0.00     0.184 HD
HETATM    6  C6  UNL     1      14.946  36.106  14.581  1.00  0.00     0.163 A 
HETATM    7  C7  UNL     1      15.332  35.043  13.770  1.00  0.00     0.278 C 
HETATM    8  O1  UNL     1      14.728  34.936  12.705  1.00  0.00    -0.265 OA
HETATM    9  N7  UNL     1      16.282  34.137  14.024  1.00  0.00    -0.303 N 
ATOM     10  H7  UNL     1      16.398  33.395  13.334  1.00  0.00     0.171 HD
HETATM   11  C8  UNL     1      17.117  34.097  15.111  1.00  0.00     0.173 C 
HETATM   12  C9  UNL     1      17.441  35.069  16.021  1.00  0.00     0.311 C 
HETATM   13  O2  UNL     1      18.312  34.840  16.905  1.00  0.00    -0.262 OA
HETATM   14  N9  UNL     1      16.887  36.312  16.062  1.00  0.00    -0.204 N 
HETATM   15  C10 UNL     1      15.655  36.677  15.638  1.00  0.00     0.180 A 
ENDROOT
BRANCH   3  16
HETATM   16  N2  UNL     1      12.838  38.535  15.624  1.00  0.00    -0.224 N 
ATOM     17  H2  UNL     1      13.235  39.454  15.814  1.00  0.00     0.177 HD
BRANCH  16  18
HETATM   18  C3  UNL     1      11.481  38.673  15.629  1.00  0.00     0.157 C 
BRANCH  18  19
HETATM   19  C4  UNL     1      10.991  38.818  14.170  1.00  0.00     0.142 C 
BRANCH  19  20
HETATM   20  N3  UNL     1       9.919  37.917  13.884  1.00  0.00    -0.365 N 
HETATM   21  C5  UNL     1      10.175  36.861  13.193  1.00  0.00     0.197 C 
HETATM   22  N4  UNL     1      11.479  36.567  12.711  1.00  0.00    -0.067 NA
HETATM   23  N5  UNL     1       9.119  35.962  12.902  1.00  0.00    -0.067 NA
ATOM     24  H3  UNL     1       8.974  38.107  14.218  1.00  0.00     0.161 HD
ENDBRANCH  19  20
ENDBRANCH  18  19
ENDBRANCH  16  18
ENDBRANCH   3  16
BRANCH  14  25
HETATM   25  N10 UNL     1      17.665  37.329  16.584  1.00  0.00    -0.334 N 
ATOM     26 2H10 UNL     1      17.213  37.916  17.285  1.00  0.00     0.177 HD
ATOM     27 1H10 UNL     1      18.616  37.417  16.224  1.00  0.00     0.177 HD
ENDBRANCH  14  25
BRANCH  11  28
HETATM   28  N8  UNL     1      17.693  32.959  15.311  1.00  0.00    -0.381 N 
ATOM     29  H82 UNL     1      17.054  32.167  15.396  1.00  0.00     0.157 HD
ATOM     30  H81 UNL     1      18.711  32.995  15.361  1.00  0.00     0.157 HD
ENDBRANCH  11  28
TORSDOF 6
ENDMDL
MODEL 3
REMARK VINA RESULT: -7.496878120      1.057      1.332
REMARK  6 active torsions:
REMARK  status: ('A' for Active; 'I' for Inactive)
REMARK    1  A    between atoms: C2_3  and  N2_4 
REMARK    2  A    between atoms: N2_4  and  C3_6 
REMARK    3  A    between atoms: C3_6  and  C4_7 
REMARK    4  A    between atoms: C4_7  and  N3_8 
REMARK    5  A    between atoms: C8_20  and  N8_21 
REMARK    6  A    between atoms: N9_26  and  N10_27 
ROOT
HETATM    1  C1  UNL     1      14.676  37.880  15.962  1.00  0.00     0.177 C 
HETATM    2  N1  UNL     1      14.162  36.886  15.048  1.00  0.00    -0.168 N 
HETATM    3  C2  UNL     1      14.710  35.757  14.554  1.00  0.00     0.682 A 
HETATM    4  N6  UNL     1      13.805  35.157  13.684  1.00  0.00    -0.182 N 
ATOM      5  H6  UNL     1      13.960  34.290  13.170  1.00  0.00     0.184 HD
HETATM    6  C6  UNL     1      12.712  35.898  13.635  1.00  0.00     0.163 A 
HETATM    7  C7  UNL     1      11.583  35.631  12.867  1.00  0.00     0.278 C 
HETATM    8  O1  UNL     1      11.465  34.474  12.473  1.00  0.00    -0.265 OA
HETATM    9  N7  UNL     1      10.623  36.494  12.518  1.00  0.00    -0.303 N 
ATOM     10  H7  UNL     1       9.889  36.134  11.907  1.00  0.00     0.171 HD
HETATM   11  C8  UNL     1      10.516  37.809  12.890  1.00  0.00     0.173 C 
HETATM   12  C9  UNL     1      11.115  38.495  13.915  1.00  0.00     0.311 C 
HETATM   13  O2  UNL     1      10.803  39.698  14.135  1.00  0.00    -0.262 OA
HETATM   14  N9  UNL     1      12.056  37.978  14.752  1.00  0.00    -0.204 N 
HETATM   15  C10 UNL     1      12.930  36.980  14.489  1.00  0.00     0.180 A 
ENDROOT
BRANCH   3  16
HETATM   16  N2  UNL     1      15.821  35.267  14.804  1.00  0.00    -0.224 N 
ATOM     17  H2  UNL     1      16.472  36.043  14.925  1.00  0.00     0.177 HD
BRANCH  16  18
HETATM   18  C3  UNL     1      16.528  34.114  14.985  1.00  0.00     0.157 C 
BRANCH  18  19
HETATM   19  C4  UNL     1      18.035  34.428  14.836  1.00  0.00     0.142 C 
BRANCH  19  20
HETATM   20  N3  UNL     1      18.332  35.772  15.219  1.00  0.00    -0.365 N 
HETATM   21  C5  UNL     1      18.891  35.974  16.361  1.00  0.00     0.197 C 
HETATM   22  N4  UNL     1      19.218  34.910  17.245  1.00  0.00    -0.067 NA
HETATM   23  N5  UNL     1      19.189  37.303  16.751  1.00  0.00    -0.067 NA
ATOM     24  H3  UNL     1      18.107  36.553  14.602  1.00  0.00     0.161 HD
ENDBRANCH  19  20
ENDBRANCH  18  19
ENDBRANCH  16  18
ENDBRANCH   3  16
BRANCH  14  25
HETATM   25  N10 UNL     1      12.129  38.517  16.024  1.00  0.00    -0.334 N 
ATOM     26 2H10 UNL     1      11.745  37.939  16.771  1.00  0.00     0.177 HD
ATOM     27 1H10 UNL     1      12.549  39.443  16.111  1.00  0.00     0.177 HD
ENDBRANCH  14  25
BRANCH  11  28
HETATM   28  N8  UNL     1       9.722  38.518  12.160  1.00  0.00    -0.381 N 
ATOM     29  H82 UNL     1       9.987  38.577  11.176  1.00  0.00     0.157 HD
ATOM     30  H81 UNL     1       8.933  38.930  12.658  1.00  0.00     0.157 HD
ENDBRANCH  11  28
TORSDOF 6
ENDMDL
MODEL 4
REMARK VINA RESULT: -7.486352009      0.888      1.211
REMARK  6 active torsions:
REMARK  status: ('A' for Active; 'I' for Inactive)
REMARK    1  A    between atoms: C2_3  and  N2_4 
REMARK    2  A    between atoms: N2_4  and  C3_6 
REMARK    3  A    between atoms: C3_6  and  C4_7 
REMARK    4  A    between atoms: C4_7  and  N3_8 
REMARK    5  A    between atoms: C8_20  and  N8_21 
REMARK    6  A    between atoms: N9_26  and  N10_27 
ROOT
HETATM    1  C1  UNL     1      14.593  38.005  15.984  1.00  0.00     0.177 C 
HETATM    2  N1  UNL     1      14.063  37.003  15.088  1.00  0.00    -0.168 N 
HETATM    3  C2  UNL     1      14.607  35.877  14.583  1.00  0.00     0.682 A 
HETATM    4  N6  UNL     1      13.685  35.266  13.741  1.00  0.00    -0.182 N 
ATOM      5  H6  UNL     1      13.833  34.398  13.225  1.00  0.00     0.184 HD
HETATM    6  C6  UNL     1      12.584  35.997  13.719  1.00  0.00     0.163 A 
HETATM    7  C7  UNL     1      11.437  35.717  12.982  1.00  0.00     0.278 C 
HETATM    8  O1  UNL     1      11.318  34.558  12.596  1.00  0.00    -0.265 OA
HETATM    9  N7  UNL     1      10.460  36.570  12.656  1.00  0.00    -0.303 N 
ATOM     10  H7  UNL     1       9.714  36.202  12.066  1.00  0.00     0.171 HD
HETATM   11  C8  UNL     1      10.352  37.886  13.027  1.00  0.00     0.173 C 
HETATM   12  C9  UNL     1      10.972  38.581  14.032  1.00  0.00     0.311 C 
HETATM   13  O2  UNL     1      10.657  39.782  14.257  1.00  0.00    -0.262 OA
HETATM   14  N9  UNL     1      11.940  38.075  14.846  1.00  0.00    -0.204 N 
HETATM   15  C10 UNL     1      12.816  37.084  14.562  1.00  0.00     0.180 A 
ENDROOT
BRANCH   3  16
HETATM   16  N2  UNL     1      15.729  35.398  14.805  1.00  0.00    -0.224 N 
ATOM     17  H2  UNL     1      15.588  34.446  15.144  1.00  0.00     0.177 HD
BRANCH  16  18
HETATM   18  C3  UNL     1      17.074  35.622  14.782  1.00  0.00     0.157 C 
BRANCH  18  19
HETATM   19  C4  UNL     1      17.807  34.265  14.888  1.00  0.00     0.142 C 
BRANCH  19  20
HETATM   20  N3  UNL     1      16.950  33.246  15.409  1.00  0.00    -0.365 N 
HETATM   21  C5  UNL     1      17.204  32.772  16.579  1.00  0.00     0.197 C 
HETATM   22  N4  UNL     1      18.299  33.228  17.362  1.00  0.00    -0.067 NA
HETATM   23  N5  UNL     1      16.361  31.761  17.105  1.00  0.00    -0.067 NA
ATOM     24  H3  UNL     1      16.158  32.901  14.866  1.00  0.00     0.161 HD
ENDBRANCH  19  20
ENDBRANCH  18  19
ENDBRANCH  16  18
ENDBRANCH   3  16
BRANCH  14  25
HETATM   25  N10 UNL     1      12.043  38.620  16.113  1.00  0.00    -0.334 N 
ATOM     26 2H10 UNL     1      12.945  39.036  16.342  1.00  0.00     0.177 HD
ATOM     27 1H10 UNL     1      11.221  38.555  16.713  1.00  0.00     0.177 HD
ENDBRANCH  14  25
BRANCH  11  28
HETATM   28  N8  UNL     1       9.533  38.586  12.316  1.00  0.00    -0.381 N 
ATOM     29  H82 UNL     1       8.930  38.039  11.700  1.00  0.00     0.157 HD
ATOM     30  H81 UNL     1       9.592  39.594  12.458  1.00  0.00     0.157 HD
ENDBRANCH  11  28
TORSDOF 6
ENDMDL
MODEL 5
REMARK VINA RESULT: -7.424435294      1.366      1.941
REMARK  6 active torsions:
REMARK  status: ('A' for Active; 'I' for Inactive)
REMARK    1  A    between atoms: C2_3  and  N2_4 
REMARK    2  A    between atoms: N2_4  and  C3_6 
REMARK    3  A    between atoms: C3_6  and  C4_7 
REMARK    4  A    between atoms: C4_7  and  N3_8 
REMARK    5  A    between atoms: C8_20  and  N8_21 
REMARK    6  A    between atoms: N9_26  and  N10_27 
ROOT
HETATM    1  C1  UNL     1      13.998  39.299  16.935  1.00  0.00     0.177 C 
HETATM    2  N1  UNL     1      14.000  38.208  15.988  1.00  0.00    -0.168 N 
HETATM    3  C2  UNL     1      14.947  37.301  15.672  1.00  0.00     0.682 A 
HETATM    4  N6  UNL     1      14.458  36.468  14.671  1.00  0.00    -0.182 N 
ATOM      5  H6  UNL     1      14.965  35.693  14.242  1.00  0.00     0.184 HD
HETATM    6  C6  UNL     1      13.230  36.847  14.366  1.00  0.00     0.163 A 
HETATM    7  C7  UNL     1      12.413  36.264  13.403  1.00  0.00     0.278 C 
HETATM    8  O1  UNL     1      12.726  35.129  13.052  1.00  0.00    -0.265 OA
HETATM    9  N7  UNL     1      11.335  36.804  12.825  1.00  0.00    -0.303 N 
ATOM     10  H7  UNL     1      10.883  36.248  12.099  1.00  0.00     0.171 HD
HETATM   11  C8  UNL     1      10.771  38.023  13.102  1.00  0.00     0.173 C 
HETATM   12  C9  UNL     1      10.916  38.844  14.189  1.00  0.00     0.311 C 
HETATM   13  O2  UNL     1      10.225  39.896  14.282  1.00  0.00    -0.262 OA
HETATM   14  N9  UNL     1      11.774  38.623  15.223  1.00  0.00    -0.204 N 
HETATM   15  C10 UNL     1      12.938  37.935  15.190  1.00  0.00     0.180 A 
ENDROOT
BRANCH   3  16
HETATM   16  N2  UNL     1      16.076  37.163  16.164  1.00  0.00    -0.224 N 
ATOM     17  H2  UNL     1      16.748  37.509  15.480  1.00  0.00     0.177 HD
BRANCH  16  18
HETATM   18  C3  UNL     1      16.788  36.736  17.248  1.00  0.00     0.157 C 
BRANCH  18  19
HETATM   19  C4  UNL     1      17.943  35.833  16.759  1.00  0.00     0.142 C 
BRANCH  19  20
HETATM   20  N3  UNL     1      17.689  34.455  17.044  1.00  0.00    -0.365 N 
HETATM   21  C5  UNL     1      17.156  33.728  16.124  1.00  0.00     0.197 C 
HETATM   22  N4  UNL     1      16.815  34.248  14.846  1.00  0.00    -0.067 NA
HETATM   23  N5  UNL     1      16.900  32.361  16.397  1.00  0.00    -0.067 NA
ATOM     24  H3  UNL     1      17.924  34.058  17.954  1.00  0.00     0.161 HD
ENDBRANCH  19  20
ENDBRANCH  18  19
ENDBRANCH  16  18
ENDBRANCH   3  16
BRANCH  14  25
HETATM   25  N10 UNL     1      11.421  39.144  16.454  1.00  0.00    -0.334 N 
ATOM     26 2H10 UNL     1      11.840  40.044  16.688  1.00  0.00     0.177 HD
ATOM     27 1H10 UNL     1      10.784  38.590  17.027  1.00  0.00     0.177 HD
ENDBRANCH  14  25
BRANCH  11  28
HETATM   28  N8  UNL     1       9.971  38.470  12.192  1.00  0.00    -0.381 N 
ATOM     29  H82 UNL     1       9.296  37.788  11.846  1.00  0.00     0.157 HD
ATOM     30  H81 UNL     1      10.116  39.447  11.935  1.00  0.00     0.157 HD
ENDBRANCH  11  28
TORSDOF 6
ENDMDL
