MODEL 1
REMARK VINA RESULT: -8.714884858      0.000      0.000
REMARK  5 active torsions:
REMARK  status: ('A' for Active; 'I' for Inactive)
REMARK    1  A    between atoms: C2_3  and  C3_4 
REMARK    2  A    between atoms: C3_4  and  C4_5 
REMARK    3  A    between atoms: C4_5  and  N2_6 
REMARK    4  A    between atoms: C10_24  and  N7_25 
REMARK    5  A    between atoms: N7_25  and  N8_27 
ROOT
HETATM    1  N2  UNL     1      13.051  37.659  15.395  1.00  0.00    -0.352 N 
ATOM      2  H2  UNL     1      12.720  38.577  15.691  1.00  0.00     0.166 HD
HETATM    3  C5  UNL     1      12.496  37.263  14.370  1.00  0.00     0.153 C 
HETATM    4  N3  UNL     1      11.542  38.102  13.805  1.00  0.00    -0.291 N 
ATOM      5  H3  UNL     1      11.650  39.101  13.987  1.00  0.00     0.172 HD
HETATM    6  C6  UNL     1      10.485  37.741  13.038  1.00  0.00     0.329 C 
HETATM    7  O1  UNL     1       9.797  38.702  12.607  1.00  0.00    -0.246 OA
HETATM    8  N4  UNL     1      10.077  36.518  12.681  1.00  0.00    -0.260 N 
ATOM      9  H4  UNL     1       9.187  36.471  12.187  1.00  0.00     0.175 HD
HETATM   10  C7  UNL     1      10.696  35.346  12.893  1.00  0.00     0.329 C 
HETATM   11  O2  UNL     1      10.072  34.292  12.592  1.00  0.00    -0.246 OA
HETATM   12  N5  UNL     1      11.936  35.095  13.400  1.00  0.00    -0.292 N 
ATOM     13  H5  UNL     1      12.221  34.117  13.462  1.00  0.00     0.172 HD
HETATM   14  C8  UNL     1      12.838  36.030  13.836  1.00  0.00     0.148 C 
HETATM   15  N6  UNL     1      14.074  35.735  13.700  1.00  0.00    -0.382 N 
ATOM     16  H61 UNL     1      14.325  34.828  13.307  1.00  0.00     0.157 HD
ATOM     17  H62 UNL     1      14.745  36.431  14.024  1.00  0.00     0.157 HD
ENDROOT
BRANCH   1  18
HETATM   18  C4  UNL     1      14.035  37.137  16.252  1.00  0.00     0.068 C 
BRANCH  18  19
HETATM   19  C3  UNL     1      15.303  37.965  16.291  1.00  0.00     0.102 C 
BRANCH  19  20
HETATM   20  C2  UNL     1      16.548  37.212  16.134  1.00  0.00     0.024 A 
HETATM   21  N1  UNL     1      17.621  37.544  16.888  1.00  0.00    -0.307 N 
HETATM   22  C1  UNL     1      17.472  38.652  17.809  1.00  0.00     0.161 C 
HETATM   23  C11 UNL     1      18.795  36.898  16.817  1.00  0.00     0.328 A 
HETATM   24  N9  UNL     1      18.957  35.867  15.970  1.00  0.00    -0.293 N 
HETATM   25  O3  UNL     1      19.783  37.245  17.547  1.00  0.00    -0.246 OA
HETATM   26  C10 UNL     1      17.939  35.478  15.191  1.00  0.00     0.125 A 
ATOM     27  H9  UNL     1      19.853  35.381  15.921  1.00  0.00     0.172 HD
HETATM   28  C9  UNL     1      16.717  36.156  15.271  1.00  0.00     0.075 A 
BRANCH  26  29
HETATM   29  N7  UNL     1      18.102  34.489  14.383  1.00  0.00    -0.292 N 
ATOM     30  H7  UNL     1      17.331  33.843  14.214  1.00  0.00     0.188 HD
BRANCH  29  31
HETATM   31  N8  UNL     1      19.322  34.292  13.738  1.00  0.00    -0.344 N 
ATOM     32  H82 UNL     1      19.320  34.078  12.741  1.00  0.00     0.176 HD
ATOM     33  H81 UNL     1      20.200  34.362  14.253  1.00  0.00     0.176 HD
ENDBRANCH  29  31
ENDBRANCH  26  29
ENDBRANCH  19  20
ENDBRANCH  18  19
ENDBRANCH   1  18
TORSDOF 5
ENDMDL
MODEL 2
REMARK VINA RESULT: -8.447373681      2.912      7.211
REMARK  5 active torsions:
REMARK  status: ('A' for Active; 'I' for Inactive)
REMARK    1  A    between atoms: C2_3  and  C3_4 
REMARK    2  A    between atoms: C3_4  and  C4_5 
REMARK    3  A    between atoms: C4_5  and  N2_6 
REMARK    4  A    between atoms: C10_24  and  N7_25 
REMARK    5  A    between atoms: N7_25  and  N8_27 
ROOT
HETATM    1  N2  UNL     1      14.529  35.643  15.815  1.00  0.00    -0.352 N 
ATOM      2  H2  UNL     1      13.932  35.492  16.628  1.00  0.00     0.166 HD
HETATM    3  C5  UNL     1      15.249  34.676  15.570  1.00  0.00     0.153 C 
HETATM    4  N3  UNL     1      15.137  33.576  16.413  1.00  0.00    -0.291 N 
ATOM      5  H3  UNL     1      14.238  33.451  16.879  1.00  0.00     0.172 HD
HETATM    6  C6  UNL     1      16.090  32.650  16.683  1.00  0.00     0.329 C 
HETATM    7  O1  UNL     1      15.717  31.721  17.444  1.00  0.00    -0.246 OA
HETATM    8  N4  UNL     1      17.356  32.590  16.256  1.00  0.00    -0.260 N 
ATOM      9  H4  UNL     1      17.934  31.861  16.673  1.00  0.00     0.175 HD
HETATM   10  C7  UNL     1      17.960  33.371  15.347  1.00  0.00     0.329 C 
HETATM   11  O2  UNL     1      19.203  33.230  15.186  1.00  0.00    -0.246 OA
HETATM   12  N5  UNL     1      17.432  34.329  14.533  1.00  0.00    -0.292 N 
ATOM     13  H5  UNL     1      18.074  34.798  13.895  1.00  0.00     0.172 HD
HETATM   14  C8  UNL     1      16.120  34.723  14.492  1.00  0.00     0.148 C 
HETATM   15  N6  UNL     1      15.684  35.129  13.361  1.00  0.00    -0.382 N 
ATOM     16  H61 UNL     1      16.324  35.163  12.567  1.00  0.00     0.157 HD
ATOM     17  H62 UNL     1      14.707  35.422  13.330  1.00  0.00     0.157 HD
ENDROOT
BRANCH   1  18
HETATM   18  C4  UNL     1      14.338  36.908  15.233  1.00  0.00     0.068 C 
BRANCH  18  19
HETATM   19  C3  UNL     1      13.287  37.744  15.935  1.00  0.00     0.102 C 
BRANCH  19  20
HETATM   20  C2  UNL     1      12.185  38.203  15.089  1.00  0.00     0.024 A 
HETATM   21  N1  UNL     1      11.603  39.395  15.351  1.00  0.00    -0.307 N 
HETATM   22  C1  UNL     1      12.106  40.150  16.480  1.00  0.00     0.161 C 
HETATM   23  C11 UNL     1      10.596  39.896  14.618  1.00  0.00     0.328 A 
HETATM   24  N9  UNL     1      10.111  39.215  13.566  1.00  0.00    -0.293 N 
HETATM   25  O3  UNL     1      10.075  41.027  14.901  1.00  0.00    -0.246 OA
HETATM   26  C10 UNL     1      10.638  38.025  13.243  1.00  0.00     0.125 A 
ATOM     27  H9  UNL     1       9.345  39.601  13.014  1.00  0.00     0.172 HD
HETATM   28  C9  UNL     1      11.688  37.509  14.011  1.00  0.00     0.075 A 
BRANCH  26  29
HETATM   29  N7  UNL     1      10.168  37.379  12.234  1.00  0.00    -0.292 N 
ATOM     30  H7  UNL     1      10.586  37.509  11.312  1.00  0.00     0.188 HD
BRANCH  29  31
HETATM   31  N8  UNL     1       9.095  36.502  12.388  1.00  0.00    -0.344 N 
ATOM     32  H82 UNL     1       8.199  36.875  12.702  1.00  0.00     0.176 HD
ATOM     33  H81 UNL     1       9.204  35.508  12.190  1.00  0.00     0.176 HD
ENDBRANCH  29  31
ENDBRANCH  26  29
ENDBRANCH  19  20
ENDBRANCH  18  19
ENDBRANCH   1  18
TORSDOF 5
ENDMDL
MODEL 3
REMARK VINA RESULT: -8.374489686      3.027      7.130
REMARK  5 active torsions:
REMARK  status: ('A' for Active; 'I' for Inactive)
REMARK    1  A    between atoms: C2_3  and  C3_4 
REMARK    2  A    between atoms: C3_4  and  C4_5 
REMARK    3  A    between atoms: C4_5  and  N2_6 
REMARK    4  A    between atoms: C10_24  and  N7_25 
REMARK    5  A    between atoms: N7_25  and  N8_27 
ROOT
HETATM    1  N2  UNL     1      14.521  35.691  15.730  1.00  0.00    -0.352 N 
ATOM      2  H2  UNL     1      13.856  35.600  16.497  1.00  0.00     0.166 HD
HETATM    3  C5  UNL     1      15.193  34.674  15.562  1.00  0.00     0.153 C 
HETATM    4  N3  UNL     1      14.945  33.606  16.417  1.00  0.00    -0.291 N 
ATOM      5  H3  UNL     1      14.007  33.551  16.814  1.00  0.00     0.172 HD
HETATM    6  C6  UNL     1      15.812  32.628  16.779  1.00  0.00     0.329 C 
HETATM    7  O1  UNL     1      15.322  31.745  17.529  1.00  0.00    -0.246 OA
HETATM    8  N4  UNL     1      17.100  32.476  16.454  1.00  0.00    -0.260 N 
ATOM      9  H4  UNL     1      17.595  31.723  16.930  1.00  0.00     0.175 HD
HETATM   10  C7  UNL     1      17.821  33.193  15.577  1.00  0.00     0.329 C 
HETATM   11  O2  UNL     1      19.061  32.969  15.517  1.00  0.00    -0.246 OA
HETATM   12  N5  UNL     1      17.420  34.162  14.706  1.00  0.00    -0.292 N 
ATOM     13  H5  UNL     1      18.139  34.572  14.109  1.00  0.00     0.172 HD
HETATM   14  C8  UNL     1      16.144  34.638  14.554  1.00  0.00     0.148 C 
HETATM   15  N6  UNL     1      15.823  35.041  13.384  1.00  0.00    -0.382 N 
ATOM     16  H61 UNL     1      16.523  35.014  12.643  1.00  0.00     0.157 HD
ATOM     17  H62 UNL     1      14.874  35.395  13.272  1.00  0.00     0.157 HD
ENDROOT
BRANCH   1  18
HETATM   18  C4  UNL     1      14.459  36.950  15.109  1.00  0.00     0.068 C 
BRANCH  18  19
HETATM   19  C3  UNL     1      13.693  37.982  15.910  1.00  0.00     0.102 C 
BRANCH  19  20
HETATM   20  C2  UNL     1      12.247  38.004  15.685  1.00  0.00     0.024 A 
HETATM   21  N1  UNL     1      11.426  38.361  16.698  1.00  0.00    -0.307 N 
HETATM   22  C1  UNL     1      12.037  38.693  17.969  1.00  0.00     0.161 C 
HETATM   23  C11 UNL     1      10.091  38.419  16.574  1.00  0.00     0.328 A 
HETATM   24  N9  UNL     1       9.499  38.116  15.405  1.00  0.00    -0.293 N 
HETATM   25  O3  UNL     1       9.352  38.762  17.557  1.00  0.00    -0.246 OA
HETATM   26  C10 UNL     1      10.248  37.753  14.355  1.00  0.00     0.125 A 
ATOM     27  H9  UNL     1       8.484  38.161  15.319  1.00  0.00     0.172 HD
HETATM   28  C9  UNL     1      11.640  37.695  14.492  1.00  0.00     0.075 A 
BRANCH  26  29
HETATM   29  N7  UNL     1       9.674  37.464  13.240  1.00  0.00    -0.292 N 
ATOM     30  H7  UNL     1       8.922  36.775  13.222  1.00  0.00     0.188 HD
BRANCH  29  31
HETATM   31  N8  UNL     1      10.071  38.083  12.055  1.00  0.00    -0.344 N 
ATOM     32  H82 UNL     1      10.646  38.924  12.111  1.00  0.00     0.176 HD
ATOM     33  H81 UNL     1       9.793  37.702  11.151  1.00  0.00     0.176 HD
ENDBRANCH  29  31
ENDBRANCH  26  29
ENDBRANCH  19  20
ENDBRANCH  18  19
ENDBRANCH   1  18
TORSDOF 5
ENDMDL
MODEL 4
REMARK VINA RESULT: -8.373991071      2.534      7.289
REMARK  5 active torsions:
REMARK  status: ('A' for Active; 'I' for Inactive)
REMARK    1  A    between atoms: C2_3  and  C3_4 
REMARK    2  A    between atoms: C3_4  and  C4_5 
REMARK    3  A    between atoms: C4_5  and  N2_6 
REMARK    4  A    between atoms: C10_24  and  N7_25 
REMARK    5  A    between atoms: N7_25  and  N8_27 
ROOT
HETATM    1  N2  UNL     1      15.911  35.972  16.360  1.00  0.00    -0.352 N 
ATOM      2  H2  UNL     1      15.700  35.951  17.358  1.00  0.00     0.166 HD
HETATM    3  C5  UNL     1      16.621  35.031  16.006  1.00  0.00     0.153 C 
HETATM    4  N3  UNL     1      17.007  34.127  16.990  1.00  0.00    -0.291 N 
ATOM      5  H3  UNL     1      16.385  34.037  17.793  1.00  0.00     0.172 HD
HETATM    6  C6  UNL     1      18.120  33.352  16.998  1.00  0.00     0.329 C 
HETATM    7  O1  UNL     1      18.212  32.578  17.986  1.00  0.00    -0.246 OA
HETATM    8  N4  UNL     1      19.120  33.298  16.113  1.00  0.00    -0.260 N 
ATOM      9  H4  UNL     1      19.916  32.717  16.373  1.00  0.00     0.175 HD
HETATM   10  C7  UNL     1      19.204  33.912  14.922  1.00  0.00     0.329 C 
HETATM   11  O2  UNL     1      20.297  33.833  14.298  1.00  0.00    -0.246 OA
HETATM   12  N5  UNL     1      18.267  34.637  14.248  1.00  0.00    -0.292 N 
ATOM     13  H5  UNL     1      18.537  35.008  13.337  1.00  0.00     0.172 HD
HETATM   14  C8  UNL     1      16.995  34.915  14.676  1.00  0.00     0.148 C 
HETATM   15  N6  UNL     1      16.104  35.041  13.769  1.00  0.00    -0.382 N 
ATOM     16  H61 UNL     1      16.379  34.955  12.790  1.00  0.00     0.157 HD
ATOM     17  H62 UNL     1      15.158  35.248  14.088  1.00  0.00     0.157 HD
ENDROOT
BRANCH   1  18
HETATM   18  C4  UNL     1      15.324  37.068  15.707  1.00  0.00     0.068 C 
BRANCH  18  19
HETATM   19  C3  UNL     1      14.118  37.630  16.434  1.00  0.00     0.102 C 
BRANCH  19  20
HETATM   20  C2  UNL     1      12.990  38.003  15.580  1.00  0.00     0.024 A 
HETATM   21  N1  UNL     1      12.311  39.143  15.843  1.00  0.00    -0.307 N 
HETATM   22  C1  UNL     1      12.741  39.929  16.981  1.00  0.00     0.161 C 
HETATM   23  C11 UNL     1      11.273  39.565  15.104  1.00  0.00     0.328 A 
HETATM   24  N9  UNL     1      10.855  38.853  14.043  1.00  0.00    -0.293 N 
HETATM   25  O3  UNL     1      10.660  40.648  15.387  1.00  0.00    -0.246 OA
HETATM   26  C10 UNL     1      11.479  37.713  13.719  1.00  0.00     0.125 A 
ATOM     27  H9  UNL     1      10.065  39.180  13.486  1.00  0.00     0.172 HD
HETATM   28  C9  UNL     1      12.561  37.279  14.494  1.00  0.00     0.075 A 
BRANCH  26  29
HETATM   29  N7  UNL     1      11.073  37.037  12.702  1.00  0.00    -0.292 N 
ATOM     30  H7  UNL     1      11.464  36.111  12.522  1.00  0.00     0.188 HD
BRANCH  29  31
HETATM   31  N8  UNL     1      10.105  37.556  11.843  1.00  0.00    -0.344 N 
ATOM     32  H82 UNL     1      10.394  38.222  11.126  1.00  0.00     0.176 HD
ATOM     33  H81 UNL     1       9.128  37.276  11.931  1.00  0.00     0.176 HD
ENDBRANCH  29  31
ENDBRANCH  26  29
ENDBRANCH  19  20
ENDBRANCH  18  19
ENDBRANCH   1  18
TORSDOF 5
ENDMDL
MODEL 5
REMARK VINA RESULT: -8.273667479      1.932      3.013
REMARK  5 active torsions:
REMARK  status: ('A' for Active; 'I' for Inactive)
REMARK    1  A    between atoms: C2_3  and  C3_4 
REMARK    2  A    between atoms: C3_4  and  C4_5 
REMARK    3  A    between atoms: C4_5  and  N2_6 
REMARK    4  A    between atoms: C10_24  and  N7_25 
REMARK    5  A    between atoms: N7_25  and  N8_27 
ROOT
HETATM    1  N2  UNL     1      14.047  36.532  14.639  1.00  0.00    -0.352 N 
ATOM      2  H2  UNL     1      14.454  35.645  14.341  1.00  0.00     0.166 HD
HETATM    3  C5  UNL     1      12.842  36.604  14.398  1.00  0.00     0.153 C 
HETATM    4  N3  UNL     1      12.255  35.506  13.780  1.00  0.00    -0.291 N 
ATOM      5  H3  UNL     1      12.700  34.602  13.941  1.00  0.00     0.172 HD
HETATM    6  C6  UNL     1      11.154  35.503  12.988  1.00  0.00     0.329 C 
HETATM    7  O1  UNL     1      10.796  34.363  12.592  1.00  0.00    -0.246 OA
HETATM    8  N4  UNL     1      10.407  36.532  12.575  1.00  0.00    -0.260 N 
ATOM      9  H4  UNL     1       9.684  36.312  11.890  1.00  0.00     0.175 HD
HETATM   10  C7  UNL     1      10.490  37.817  12.951  1.00  0.00     0.329 C 
HETATM   11  O2  UNL     1       9.774  38.655  12.338  1.00  0.00    -0.246 OA
HETATM   12  N5  UNL     1      11.250  38.393  13.926  1.00  0.00    -0.292 N 
ATOM     13  H5  UNL     1      11.146  39.399  14.059  1.00  0.00     0.172 HD
HETATM   14  C8  UNL     1      12.140  37.748  14.745  1.00  0.00     0.148 C 
HETATM   15  N6  UNL     1      12.293  38.238  15.916  1.00  0.00    -0.382 N 
ATOM     16  H61 UNL     1      11.776  39.079  16.171  1.00  0.00     0.157 HD
ATOM     17  H62 UNL     1      12.955  37.758  16.525  1.00  0.00     0.157 HD
ENDROOT
BRANCH   1  18
HETATM   18  C4  UNL     1      14.991  37.388  15.228  1.00  0.00     0.068 C 
BRANCH  18  19
HETATM   19  C3  UNL     1      15.808  36.727  16.320  1.00  0.00     0.102 C 
BRANCH  19  20
HETATM   20  C2  UNL     1      16.561  35.542  15.909  1.00  0.00     0.024 A 
HETATM   21  N1  UNL     1      16.191  34.327  16.375  1.00  0.00    -0.307 N 
HETATM   22  C1  UNL     1      15.060  34.276  17.280  1.00  0.00     0.161 C 
HETATM   23  C11 UNL     1      16.818  33.190  16.039  1.00  0.00     0.328 A 
HETATM   24  N9  UNL     1      17.869  33.211  15.201  1.00  0.00    -0.293 N 
HETATM   25  O3  UNL     1      16.435  32.064  16.503  1.00  0.00    -0.246 OA
HETATM   26  C10 UNL     1      18.295  34.377  14.697  1.00  0.00     0.125 A 
ATOM     27  H9  UNL     1      18.342  32.342  14.951  1.00  0.00     0.172 HD
HETATM   28  C9  UNL     1      17.636  35.559  15.052  1.00  0.00     0.075 A 
BRANCH  26  29
HETATM   29  N7  UNL     1      19.302  34.389  13.896  1.00  0.00    -0.292 N 
ATOM     30  H7  UNL     1      19.265  34.953  13.046  1.00  0.00     0.188 HD
BRANCH  29  31
HETATM   31  N8  UNL     1      20.443  33.639  14.177  1.00  0.00    -0.344 N 
ATOM     32  H82 UNL     1      20.350  32.804  14.755  1.00  0.00     0.176 HD
ATOM     33  H81 UNL     1      21.353  33.919  13.810  1.00  0.00     0.176 HD
ENDBRANCH  29  31
ENDBRANCH  26  29
ENDBRANCH  19  20
ENDBRANCH  18  19
ENDBRANCH   1  18
TORSDOF 5
ENDMDL
