MODEL 1
REMARK VINA RESULT: -7.753671170      0.000      0.000
REMARK  8 active torsions:
REMARK  status: ('A' for Active; 'I' for Inactive)
REMARK    1  A    between atoms: N1_4  and  C4_5 
REMARK    2  A    between atoms: C4_5  and  C5_6 
REMARK    3  A    between atoms: C5_6  and  C6_7 
REMARK    4  A    between atoms: C6_7  and  N2_8 
REMARK       I    between atoms: N2_8  and  C7_10 
REMARK       I    between atoms: C7_10  and  N4_14 
REMARK    5  A    between atoms: N4_14  and  N5_16 
REMARK    6  A    between atoms: N5_16  and  C10_19 
REMARK    7  A    between atoms: C10_19  and  C11_20 
REMARK    8  A    between atoms: C11_20  and  N6_21 
REMARK       I    between atoms: N7_29  and  C18_30 
ROOT
HETATM    1  N2  UNL     1      10.632 -12.663  17.710  1.00  0.00    -0.225 N 
ATOM      2  H2  UNL     1      10.540 -13.167  18.592  1.00  0.00     0.177 HD
HETATM    3  C7  UNL     1      11.884 -12.081  17.395  1.00  0.00     0.692 C 
HETATM    4  N3  UNL     1      12.599 -11.593  18.346  1.00  0.00    -0.234 N 
ATOM      5  H31 UNL     1      13.501 -11.173  18.119  1.00  0.00     0.174 HD
ATOM      6  H32 UNL     1      12.269 -11.627  19.310  1.00  0.00     0.174 HD
HETATM    7  N4  UNL     1      12.349 -12.032  16.032  1.00  0.00    -0.049 N 
ATOM      8  H4  UNL     1      11.799 -11.524  15.339  1.00  0.00     0.213 HD
ENDROOT
BRANCH   1   9
HETATM    9  C6  UNL     1       9.479 -12.579  16.841  1.00  0.00     0.139 C 
BRANCH   9  10
HETATM   10  C5  UNL     1       8.927 -13.946  16.509  1.00  0.00     0.040 C 
BRANCH  10  11
HETATM   11  C4  UNL     1       9.728 -14.602  15.397  1.00  0.00     0.129 C 
BRANCH  11  12
HETATM   12  N1  UNL     1       9.108 -14.421  14.113  1.00  0.00    -0.332 N 
HETATM   13  C3  UNL     1       9.344 -13.309  13.216  1.00  0.00     0.153 C 
HETATM   14  C2  UNL     1       8.963 -13.840  11.858  1.00  0.00     0.111 C 
HETATM   15  C1  UNL     1      10.111 -14.606  11.278  1.00  0.00     0.034 C 
HETATM   16  N7  UNL     1       7.834 -14.709  12.181  1.00  0.00    -0.268 N 
HETATM   17  C17 UNL     1       8.164 -15.265  13.471  1.00  0.00     0.327 C 
HETATM   18  C18 UNL     1       6.683 -14.942  11.392  1.00  0.00     0.192 C 
HETATM   19  O1  UNL     1       7.661 -16.337  13.910  1.00  0.00    -0.247 OA
HETATM   20  N8  UNL     1       5.510 -14.661  11.839  1.00  0.00    -0.373 N 
HETATM   21  N9  UNL     1       6.783 -15.491  10.086  1.00  0.00    -0.063 NA
ATOM     22  H82 UNL     1       5.438 -14.267  12.776  1.00  0.00     0.158 HD
ATOM     23  H81 UNL     1       4.680 -14.829  11.269  1.00  0.00     0.158 HD
ENDBRANCH  11  12
ENDBRANCH  10  11
ENDBRANCH   9  10
ENDBRANCH   1   9
BRANCH   7  24
HETATM   24  N5  UNL     1      13.533 -12.661  15.629  1.00  0.00     0.020 N 
HETATM   25  C8  UNL     1      13.926 -13.622  16.639  1.00  0.00     0.302 C 
HETATM   26  C9  UNL     1      13.293 -13.300  14.349  1.00  0.00     0.302 C 
BRANCH  24  27
HETATM   27  C10 UNL     1      14.552 -11.646  15.549  1.00  0.00     0.292 C 
BRANCH  27  28
HETATM   28  C11 UNL     1      14.791 -11.215  14.120  1.00  0.00     0.267 C 
BRANCH  28  29
HETATM   29  N6  UNL     1      16.029 -10.526  13.944  1.00  0.00    -0.069 N 
HETATM   30  C12 UNL     1      16.372  -9.676  15.068  1.00  0.00     0.272 C 
HETATM   31  C13 UNL     1      16.102  -9.739  12.755  1.00  0.00     0.237 C 
HETATM   32  C14 UNL     1      17.226 -10.259  11.907  1.00  0.00     0.029 C 
HETATM   33  C15 UNL     1      17.326 -11.699  12.367  1.00  0.00     0.029 C 
HETATM   34  C16 UNL     1      17.084 -11.537  13.860  1.00  0.00     0.237 C 
ENDBRANCH  28  29
ENDBRANCH  27  28
ENDBRANCH  24  27
ENDBRANCH   7  24
TORSDOF 8
ENDMDL
MODEL 2
REMARK VINA RESULT: -7.575182668      2.170      7.738
REMARK  8 active torsions:
REMARK  status: ('A' for Active; 'I' for Inactive)
REMARK    1  A    between atoms: N1_4  and  C4_5 
REMARK    2  A    between atoms: C4_5  and  C5_6 
REMARK    3  A    between atoms: C5_6  and  C6_7 
REMARK    4  A    between atoms: C6_7  and  N2_8 
REMARK       I    between atoms: N2_8  and  C7_10 
REMARK       I    between atoms: C7_10  and  N4_14 
REMARK    5  A    between atoms: N4_14  and  N5_16 
REMARK    6  A    between atoms: N5_16  and  C10_19 
REMARK    7  A    between atoms: C10_19  and  C11_20 
REMARK    8  A    between atoms: C11_20  and  N6_21 
REMARK       I    between atoms: N7_29  and  C18_30 
ROOT
HETATM    1  N2  UNL     1      11.189 -12.250  16.678  1.00  0.00    -0.225 N 
ATOM      2  H2  UNL     1      11.598 -11.316  16.626  1.00  0.00     0.177 HD
HETATM    3  C7  UNL     1      10.290 -12.649  15.659  1.00  0.00     0.692 C 
HETATM    4  N3  UNL     1       9.508 -11.769  15.141  1.00  0.00    -0.234 N 
ATOM      5  H31 UNL     1       8.860 -12.057  14.407  1.00  0.00     0.174 HD
ATOM      6  H32 UNL     1       9.536 -10.801  15.459  1.00  0.00     0.174 HD
HETATM    7  N4  UNL     1      10.250 -14.017  15.210  1.00  0.00    -0.049 N 
ATOM      8  H4  UNL     1      10.012 -14.750  15.878  1.00  0.00     0.213 HD
ENDROOT
BRANCH   1   9
HETATM    9  C6  UNL     1      11.555 -13.100  17.788  1.00  0.00     0.139 C 
BRANCH   9  10
HETATM   10  C5  UNL     1      13.050 -13.306  17.867  1.00  0.00     0.040 C 
BRANCH  10  11
HETATM   11  C4  UNL     1      13.579 -13.956  16.599  1.00  0.00     0.129 C 
BRANCH  11  12
HETATM   12  N1  UNL     1      14.639 -13.188  16.006  1.00  0.00    -0.332 N 
HETATM   13  C3  UNL     1      16.028 -13.589  15.934  1.00  0.00     0.153 C 
HETATM   14  C2  UNL     1      16.585 -12.797  14.779  1.00  0.00     0.111 C 
HETATM   15  C1  UNL     1      16.272 -13.497  13.493  1.00  0.00     0.034 C 
HETATM   16  N7  UNL     1      15.860 -11.534  14.904  1.00  0.00    -0.268 N 
HETATM   17  C17 UNL     1      14.554 -11.914  15.384  1.00  0.00     0.327 C 
HETATM   18  C18 UNL     1      16.347 -10.238  14.614  1.00  0.00     0.192 C 
HETATM   19  O1  UNL     1      13.529 -11.188  15.247  1.00  0.00    -0.247 OA
HETATM   20  N8  UNL     1      16.394  -9.332  15.525  1.00  0.00    -0.373 N 
HETATM   21  N9  UNL     1      16.800  -9.895  13.311  1.00  0.00    -0.063 NA
ATOM     22  H82 UNL     1      16.069  -9.578  16.460  1.00  0.00     0.158 HD
ATOM     23  H81 UNL     1      16.745  -8.397  15.315  1.00  0.00     0.158 HD
ENDBRANCH  11  12
ENDBRANCH  10  11
ENDBRANCH   9  10
ENDBRANCH   1   9
BRANCH   7  24
HETATM   24  N5  UNL     1      10.528 -14.372  13.885  1.00  0.00     0.020 N 
HETATM   25  C8  UNL     1      11.797 -13.795  13.497  1.00  0.00     0.302 C 
HETATM   26  C9  UNL     1      10.552 -15.820  13.800  1.00  0.00     0.302 C 
BRANCH  24  27
HETATM   27  C10 UNL     1       9.496 -13.795  13.061  1.00  0.00     0.292 C 
BRANCH  27  28
HETATM   28  C11 UNL     1       8.417 -14.802  12.741  1.00  0.00     0.267 C 
BRANCH  28  29
HETATM   29  N6  UNL     1       8.100 -14.859  11.350  1.00  0.00    -0.069 N 
HETATM   30  C12 UNL     1       8.330 -16.167  10.767  1.00  0.00     0.272 C 
HETATM   31  C13 UNL     1       8.780 -13.893  10.550  1.00  0.00     0.237 C 
HETATM   32  C14 UNL     1       7.757 -13.009   9.897  1.00  0.00     0.029 C 
HETATM   33  C15 UNL     1       6.587 -13.125  10.851  1.00  0.00     0.029 C 
HETATM   34  C16 UNL     1       6.666 -14.600  11.218  1.00  0.00     0.237 C 
ENDBRANCH  28  29
ENDBRANCH  27  28
ENDBRANCH  24  27
ENDBRANCH   7  24
TORSDOF 8
ENDMDL
MODEL 3
REMARK VINA RESULT: -7.539226648      2.229      7.733
REMARK  8 active torsions:
REMARK  status: ('A' for Active; 'I' for Inactive)
REMARK    1  A    between atoms: N1_4  and  C4_5 
REMARK    2  A    between atoms: C4_5  and  C5_6 
REMARK    3  A    between atoms: C5_6  and  C6_7 
REMARK    4  A    between atoms: C6_7  and  N2_8 
REMARK       I    between atoms: N2_8  and  C7_10 
REMARK       I    between atoms: C7_10  and  N4_14 
REMARK    5  A    between atoms: N4_14  and  N5_16 
REMARK    6  A    between atoms: N5_16  and  C10_19 
REMARK    7  A    between atoms: C10_19  and  C11_20 
REMARK    8  A    between atoms: C11_20  and  N6_21 
REMARK       I    between atoms: N7_29  and  C18_30 
ROOT
HETATM    1  N2  UNL     1      12.350 -15.486  15.465  1.00  0.00    -0.225 N 
ATOM      2  H2  UNL     1      12.447 -16.490  15.314  1.00  0.00     0.177 HD
HETATM    3  C7  UNL     1      11.511 -14.751  14.592  1.00  0.00     0.692 C 
HETATM    4  N3  UNL     1      11.447 -15.097  13.355  1.00  0.00    -0.234 N 
ATOM      5  H31 UNL     1      10.843 -14.568  12.726  1.00  0.00     0.174 HD
ATOM      6  H32 UNL     1      11.992 -15.887  13.010  1.00  0.00     0.174 HD
HETATM    7  N4  UNL     1      10.741 -13.635  15.080  1.00  0.00    -0.049 N 
ATOM      8  H4  UNL     1      11.231 -12.835  15.482  1.00  0.00     0.213 HD
ENDROOT
BRANCH   1   9
HETATM    9  C6  UNL     1      13.075 -14.881  16.560  1.00  0.00     0.139 C 
BRANCH   9  10
HETATM   10  C5  UNL     1      14.569 -15.059  16.407  1.00  0.00     0.040 C 
BRANCH  10  11
HETATM   11  C4  UNL     1      14.995 -14.878  14.960  1.00  0.00     0.129 C 
BRANCH  11  12
HETATM   12  N1  UNL     1      15.404 -13.527  14.688  1.00  0.00    -0.332 N 
HETATM   13  C3  UNL     1      16.686 -12.952  15.037  1.00  0.00     0.153 C 
HETATM   14  C2  UNL     1      16.849 -11.799  14.079  1.00  0.00     0.111 C 
HETATM   15  C1  UNL     1      17.382 -12.302  12.774  1.00  0.00     0.034 C 
HETATM   16  N7  UNL     1      15.476 -11.313  13.959  1.00  0.00    -0.268 N 
HETATM   17  C17 UNL     1      14.664 -12.503  14.042  1.00  0.00     0.327 C 
HETATM   18  C18 UNL     1      15.056  -9.972  13.796  1.00  0.00     0.192 C 
HETATM   19  O1  UNL     1      13.485 -12.566  13.593  1.00  0.00    -0.247 OA
HETATM   20  N8  UNL     1      14.287  -9.413  14.662  1.00  0.00    -0.373 N 
HETATM   21  N9  UNL     1      15.471  -9.200  12.677  1.00  0.00    -0.063 NA
ATOM     22  H82 UNL     1      13.989  -9.966  15.465  1.00  0.00     0.158 HD
ATOM     23  H81 UNL     1      13.984  -8.445  14.544  1.00  0.00     0.158 HD
ENDBRANCH  11  12
ENDBRANCH  10  11
ENDBRANCH   9  10
ENDBRANCH   1   9
BRANCH   7  24
HETATM   24  N5  UNL     1       9.344 -13.614  15.019  1.00  0.00     0.020 N 
HETATM   25  C8  UNL     1       8.833 -14.914  15.401  1.00  0.00     0.302 C 
HETATM   26  C9  UNL     1       8.867 -12.571  15.909  1.00  0.00     0.302 C 
BRANCH  24  27
HETATM   27  C10 UNL     1       8.978 -13.368  13.647  1.00  0.00     0.292 C 
BRANCH  27  28
HETATM   28  C11 UNL     1       7.866 -14.289  13.199  1.00  0.00     0.267 C 
BRANCH  28  29
HETATM   29  N6  UNL     1       7.950 -14.634  11.816  1.00  0.00    -0.069 N 
HETATM   30  C12 UNL     1       8.326 -16.017  11.596  1.00  0.00     0.272 C 
HETATM   31  C13 UNL     1       8.832 -13.810  11.054  1.00  0.00     0.237 C 
HETATM   32  C14 UNL     1       8.037 -13.125   9.980  1.00  0.00     0.029 C 
HETATM   33  C15 UNL     1       6.645 -13.112  10.580  1.00  0.00     0.029 C 
HETATM   34  C16 UNL     1       6.611 -14.479  11.246  1.00  0.00     0.237 C 
ENDBRANCH  28  29
ENDBRANCH  27  28
ENDBRANCH  24  27
ENDBRANCH   7  24
TORSDOF 8
ENDMDL
MODEL 4
REMARK VINA RESULT: -7.500596256      3.852      9.064
REMARK  8 active torsions:
REMARK  status: ('A' for Active; 'I' for Inactive)
REMARK    1  A    between atoms: N1_4  and  C4_5 
REMARK    2  A    between atoms: C4_5  and  C5_6 
REMARK    3  A    between atoms: C5_6  and  C6_7 
REMARK    4  A    between atoms: C6_7  and  N2_8 
REMARK       I    between atoms: N2_8  and  C7_10 
REMARK       I    between atoms: C7_10  and  N4_14 
REMARK    5  A    between atoms: N4_14  and  N5_16 
REMARK    6  A    between atoms: N5_16  and  C10_19 
REMARK    7  A    between atoms: C10_19  and  C11_20 
REMARK    8  A    between atoms: C11_20  and  N6_21 
REMARK       I    between atoms: N7_29  and  C18_30 
ROOT
HETATM    1  N2  UNL     1      12.321 -11.976  16.516  1.00  0.00    -0.225 N 
ATOM      2  H2  UNL     1      13.135 -11.421  16.251  1.00  0.00     0.177 HD
HETATM    3  C7  UNL     1      11.281 -12.140  15.569  1.00  0.00     0.692 C 
HETATM    4  N3  UNL     1      11.007 -11.168  14.773  1.00  0.00    -0.234 N 
ATOM      5  H31 UNL     1      10.257 -11.285  14.091  1.00  0.00     0.174 HD
ATOM      6  H32 UNL     1      11.532 -10.295  14.823  1.00  0.00     0.174 HD
HETATM    7  N4  UNL     1      10.540 -13.373  15.499  1.00  0.00    -0.049 N 
ATOM      8  H4  UNL     1      10.012 -13.680  16.316  1.00  0.00     0.213 HD
ENDROOT
BRANCH   1   9
HETATM    9  C6  UNL     1      12.286 -12.558  17.839  1.00  0.00     0.139 C 
BRANCH   9  10
HETATM   10  C5  UNL     1      11.053 -12.133  18.604  1.00  0.00     0.040 C 
BRANCH  10  11
HETATM   11  C4  UNL     1      11.384 -11.041  19.608  1.00  0.00     0.129 C 
BRANCH  11  12
HETATM   12  N1  UNL     1      12.257 -11.516  20.647  1.00  0.00    -0.332 N 
HETATM   13  C3  UNL     1      11.967 -12.607  21.553  1.00  0.00     0.153 C 
HETATM   14  C2  UNL     1      13.323 -13.078  22.013  1.00  0.00     0.111 C 
HETATM   15  C1  UNL     1      13.899 -14.018  21.000  1.00  0.00     0.034 C 
HETATM   16  N7  UNL     1      14.069 -11.824  22.083  1.00  0.00    -0.268 N 
HETATM   17  C17 UNL     1      13.545 -11.033  20.996  1.00  0.00     0.327 C 
HETATM   18  C18 UNL     1      15.077 -11.480  23.013  1.00  0.00     0.192 C 
HETATM   19  O1  UNL     1      14.177 -10.071  20.475  1.00  0.00    -0.247 OA
HETATM   20  N8  UNL     1      14.938 -10.465  23.790  1.00  0.00    -0.373 N 
HETATM   21  N9  UNL     1      16.271 -12.243  23.123  1.00  0.00    -0.063 NA
ATOM     22  H82 UNL     1      14.082  -9.917  23.712  1.00  0.00     0.158 HD
ATOM     23  H81 UNL     1      15.666 -10.217  24.462  1.00  0.00     0.158 HD
ENDBRANCH  11  12
ENDBRANCH  10  11
ENDBRANCH   9  10
ENDBRANCH   1   9
BRANCH   7  24
HETATM   24  N5  UNL     1      10.521 -14.163  14.344  1.00  0.00     0.020 N 
HETATM   25  C8  UNL     1      11.826 -14.120  13.719  1.00  0.00     0.302 C 
HETATM   26  C9  UNL     1      10.157 -15.515  14.725  1.00  0.00     0.302 C 
BRANCH  24  27
HETATM   27  C10 UNL     1       9.565 -13.577  13.438  1.00  0.00     0.292 C 
BRANCH  27  28
HETATM   28  C11 UNL     1       8.413 -14.516  13.167  1.00  0.00     0.267 C 
BRANCH  28  29
HETATM   29  N6  UNL     1       8.200 -14.752  11.775  1.00  0.00    -0.069 N 
HETATM   30  C12 UNL     1       8.512 -16.110  11.374  1.00  0.00     0.272 C 
HETATM   31  C13 UNL     1       8.906 -13.862  10.911  1.00  0.00     0.237 C 
HETATM   32  C14 UNL     1       7.906 -13.104  10.086  1.00  0.00     0.029 C 
HETATM   33  C15 UNL     1       6.673 -13.152  10.965  1.00  0.00     0.029 C 
HETATM   34  C16 UNL     1       6.772 -14.567  11.515  1.00  0.00     0.237 C 
ENDBRANCH  28  29
ENDBRANCH  27  28
ENDBRANCH  24  27
ENDBRANCH   7  24
TORSDOF 8
ENDMDL
MODEL 5
REMARK VINA RESULT: -7.384728778      3.900      7.784
REMARK  8 active torsions:
REMARK  status: ('A' for Active; 'I' for Inactive)
REMARK    1  A    between atoms: N1_4  and  C4_5 
REMARK    2  A    between atoms: C4_5  and  C5_6 
REMARK    3  A    between atoms: C5_6  and  C6_7 
REMARK    4  A    between atoms: C6_7  and  N2_8 
REMARK       I    between atoms: N2_8  and  C7_10 
REMARK       I    between atoms: C7_10  and  N4_14 
REMARK    5  A    between atoms: N4_14  and  N5_16 
REMARK    6  A    between atoms: N5_16  and  C10_19 
REMARK    7  A    between atoms: C10_19  and  C11_20 
REMARK    8  A    between atoms: C11_20  and  N6_21 
REMARK       I    between atoms: N7_29  and  C18_30 
ROOT
HETATM    1  N2  UNL     1      12.077 -11.823  17.291  1.00  0.00    -0.225 N 
ATOM      2  H2  UNL     1      12.551 -10.924  17.381  1.00  0.00     0.177 HD
HETATM    3  C7  UNL     1      11.757 -12.289  15.993  1.00  0.00     0.692 C 
HETATM    4  N3  UNL     1      11.423 -11.436  15.091  1.00  0.00    -0.234 N 
ATOM      5  H31 UNL     1      11.193 -11.772  14.155  1.00  0.00     0.174 HD
ATOM      6  H32 UNL     1      11.390 -10.440  15.308  1.00  0.00     0.174 HD
HETATM    7  N4  UNL     1      11.804 -13.696  15.686  1.00  0.00    -0.049 N 
ATOM      8  H4  UNL     1      11.196 -14.334  16.199  1.00  0.00     0.213 HD
ENDROOT
BRANCH   1   9
HETATM    9  C6  UNL     1      11.762 -12.558  18.495  1.00  0.00     0.139 C 
BRANCH   9  10
HETATM   10  C5  UNL     1      10.729 -11.842  19.335  1.00  0.00     0.040 C 
BRANCH  10  11
HETATM   11  C4  UNL     1      11.367 -10.735  20.157  1.00  0.00     0.129 C 
BRANCH  11  12
HETATM   12  N1  UNL     1      12.307 -11.252  21.114  1.00  0.00    -0.332 N 
HETATM   13  C3  UNL     1      12.055 -12.342  22.034  1.00  0.00     0.153 C 
HETATM   14  C2  UNL     1      13.427 -12.867  22.373  1.00  0.00     0.111 C 
HETATM   15  C1  UNL     1      13.879 -13.815  21.306  1.00  0.00     0.034 C 
HETATM   16  N7  UNL     1      14.222 -11.641  22.387  1.00  0.00    -0.268 N 
HETATM   17  C17 UNL     1      13.637 -10.820  21.356  1.00  0.00     0.327 C 
HETATM   18  C18 UNL     1      15.318 -11.344  23.231  1.00  0.00     0.192 C 
HETATM   19  O1  UNL     1      14.257  -9.876  20.790  1.00  0.00    -0.247 OA
HETATM   20  N8  UNL     1      15.284 -10.333  24.025  1.00  0.00    -0.373 N 
HETATM   21  N9  UNL     1      16.488 -12.151  23.232  1.00  0.00    -0.063 NA
ATOM     22  H82 UNL     1      14.444  -9.754  24.025  1.00  0.00     0.158 HD
ATOM     23  H81 UNL     1      16.075 -10.119  24.633  1.00  0.00     0.158 HD
ENDBRANCH  11  12
ENDBRANCH  10  11
ENDBRANCH   9  10
ENDBRANCH   1   9
BRANCH   7  24
HETATM   24  N5  UNL     1      12.658 -14.214  14.706  1.00  0.00     0.020 N 
HETATM   25  C8  UNL     1      12.564 -15.659  14.712  1.00  0.00     0.302 C 
HETATM   26  C9  UNL     1      12.264 -13.659  13.424  1.00  0.00     0.302 C 
BRANCH  24  27
HETATM   27  C10 UNL     1      14.002 -13.845  15.069  1.00  0.00     0.292 C 
BRANCH  27  28
HETATM   28  C11 UNL     1      14.651 -12.998  14.000  1.00  0.00     0.267 C 
BRANCH  28  29
HETATM   29  N6  UNL     1      15.402 -11.906  14.531  1.00  0.00    -0.069 N 
HETATM   30  C12 UNL     1      15.499 -11.932  15.977  1.00  0.00     0.272 C 
HETATM   31  C13 UNL     1      14.925 -10.617  14.143  1.00  0.00     0.237 C 
HETATM   32  C14 UNL     1      16.013  -9.915  13.384  1.00  0.00     0.029 C 
HETATM   33  C15 UNL     1      16.821 -11.077  12.844  1.00  0.00     0.029 C 
HETATM   34  C16 UNL     1      16.771 -12.032  14.027  1.00  0.00     0.237 C 
ENDBRANCH  28  29
ENDBRANCH  27  28
ENDBRANCH  24  27
ENDBRANCH   7  24
TORSDOF 8
ENDMDL
