MODEL 1
REMARK VINA RESULT: -6.333034568      0.000      0.000
REMARK  12 active torsions:
REMARK  status: ('A' for Active; 'I' for Inactive)
REMARK    1  A    between atoms: N1_2  and  C2_4 
REMARK    2  A    between atoms: C2_4  and  N2_6 
REMARK    3  A    between atoms: N2_6  and  C3_8 
REMARK    4  A    between atoms: C3_8  and  C4_9 
REMARK    5  A    between atoms: C3_8  and  C7_13 
REMARK    6  A    between atoms: C4_9  and  C5_10 
REMARK    7  A    between atoms: C5_10  and  C6_11 
REMARK    8  A    between atoms: C7_13  and  O1_14 
REMARK    9  A    between atoms: N3_16  and  C8_18 
REMARK   10  A    between atoms: C8_18  and  C9_19 
REMARK   11  A    between atoms: C9_19  and  N4_20 
REMARK   12  A    between atoms: C14_25  and  O2_26 
ROOT
HETATM    1  C7  UNL     1      13.716 -13.580  14.810  1.00  0.00     0.134 C 
HETATM    2  N3  UNL     1      13.323 -14.752  15.117  1.00  0.00    -0.371 N 
ATOM      3  H3  UNL     1      13.650 -15.161  15.993  1.00  0.00     0.161 HD
ENDROOT
BRANCH   2   4
HETATM    4  C8  UNL     1      12.432 -15.533  14.279  1.00  0.00     0.149 C 
BRANCH   4   5
HETATM    5  C9  UNL     1      11.223 -15.879  15.099  1.00  0.00     0.259 C 
BRANCH   5   6
HETATM    6  N4  UNL     1      10.006 -15.290  14.624  1.00  0.00    -0.038 N 
HETATM    7  C10 UNL     1       9.071 -16.415  14.440  1.00  0.00     0.275 C 
HETATM    8  C11 UNL     1       9.512 -14.401  15.669  1.00  0.00     0.272 C 
HETATM    9  C12 UNL     1       9.281 -13.077  14.930  1.00  0.00     0.216 C 
HETATM   10  C13 UNL     1       7.895 -13.160  14.341  1.00  0.00     0.067 C 
HETATM   11  N5  UNL     1      10.206 -13.113  13.822  1.00  0.00    -0.039 N 
HETATM   12  C14 UNL     1       7.857 -13.607  12.929  1.00  0.00     0.127 C 
HETATM   13  C15 UNL     1       8.907 -14.602  12.539  1.00  0.00     0.069 C 
HETATM   14  C16 UNL     1       9.402 -14.197  11.146  1.00  0.00     0.016 C 
HETATM   15  C17 UNL     1      10.147 -14.504  13.440  1.00  0.00     0.393 C 
ATOM     16  H52 UNL     1      10.015 -12.449  13.073  1.00  0.00     0.280 HD
ATOM     17  H51 UNL     1      11.140 -12.758  14.025  1.00  0.00     0.280 HD
BRANCH  12  18
HETATM   18  O2  UNL     1       6.606 -14.203  12.692  1.00  0.00    -0.395 OA
ATOM     19  H2  UNL     1       6.734 -14.937  12.104  1.00  0.00     0.210 HD
ENDBRANCH  12  18
ENDBRANCH   5   6
ENDBRANCH   4   5
ENDBRANCH   2   4
BRANCH   1  20
HETATM   20  C3  UNL     1      14.629 -12.846  15.723  1.00  0.00     0.158 C 
BRANCH  20  21
HETATM   21  N2  UNL     1      14.395 -13.124  17.087  1.00  0.00    -0.355 N 
ATOM     22  H2  UNL     1      14.829 -13.964  17.470  1.00  0.00     0.162 HD
BRANCH  21  23
HETATM   23  C2  UNL     1      13.626 -12.355  17.956  1.00  0.00     0.167 C 
HETATM   24  S1  UNL     1      11.974 -12.480  17.941  1.00  0.00    -0.041 SA
BRANCH  23  25
HETATM   25  N1  UNL     1      14.172 -11.447  18.877  1.00  0.00    -0.372 N 
HETATM   26  C1  UNL     1      13.445 -11.023  20.052  1.00  0.00     0.148 C 
ATOM     27  H1  UNL     1      15.108 -11.077  18.713  1.00  0.00     0.161 HD
ENDBRANCH  23  25
ENDBRANCH  21  23
ENDBRANCH  20  21
BRANCH  20  28
HETATM   28  C4  UNL     1      16.080 -13.131  15.318  1.00  0.00     0.034 C 
BRANCH  28  29
HETATM   29  C5  UNL     1      16.640 -12.125  14.374  1.00  0.00     0.017 C 
BRANCH  29  30
HETATM   30  C6  UNL     1      16.101 -10.755  14.795  1.00  0.00     0.115 C 
HETATM   31 CL1  UNL     1      15.562  -9.834  13.396  1.00  0.00    -0.130 Cl
ENDBRANCH  29  30
ENDBRANCH  28  29
ENDBRANCH  20  28
ENDBRANCH   1  20
BRANCH   1  32
HETATM   32  O1  UNL     1      13.282 -13.010  13.636  1.00  0.00    -0.348 OA
ATOM     33  H1  UNL     1      13.517 -13.384  12.795  1.00  0.00     0.219 HD
ENDBRANCH   1  32
TORSDOF 12
ENDMDL
MODEL 2
REMARK VINA RESULT: -6.321502716      2.253      3.190
REMARK  12 active torsions:
REMARK  status: ('A' for Active; 'I' for Inactive)
REMARK    1  A    between atoms: N1_2  and  C2_4 
REMARK    2  A    between atoms: C2_4  and  N2_6 
REMARK    3  A    between atoms: N2_6  and  C3_8 
REMARK    4  A    between atoms: C3_8  and  C4_9 
REMARK    5  A    between atoms: C3_8  and  C7_13 
REMARK    6  A    between atoms: C4_9  and  C5_10 
REMARK    7  A    between atoms: C5_10  and  C6_11 
REMARK    8  A    between atoms: C7_13  and  O1_14 
REMARK    9  A    between atoms: N3_16  and  C8_18 
REMARK   10  A    between atoms: C8_18  and  C9_19 
REMARK   11  A    between atoms: C9_19  and  N4_20 
REMARK   12  A    between atoms: C14_25  and  O2_26 
ROOT
HETATM    1  C7  UNL     1      13.816 -13.730  14.345  1.00  0.00     0.134 C 
HETATM    2  N3  UNL     1      13.516 -14.938  14.618  1.00  0.00    -0.371 N 
ATOM      3  H3  UNL     1      14.113 -15.452  15.267  1.00  0.00     0.161 HD
ENDROOT
BRANCH   2   4
HETATM    4  C8  UNL     1      12.366 -15.616  14.050  1.00  0.00     0.149 C 
BRANCH   4   5
HETATM    5  C9  UNL     1      11.278 -15.610  15.082  1.00  0.00     0.259 C 
BRANCH   5   6
HETATM    6  N4  UNL     1      10.012 -15.142  14.596  1.00  0.00    -0.038 N 
HETATM    7  C10 UNL     1       9.194 -16.352  14.405  1.00  0.00     0.275 C 
HETATM    8  C11 UNL     1       9.425 -14.305  15.635  1.00  0.00     0.272 C 
HETATM    9  C12 UNL     1       9.073 -13.010  14.892  1.00  0.00     0.216 C 
HETATM   10  C13 UNL     1       7.707 -13.228  14.291  1.00  0.00     0.067 C 
HETATM   11  N5  UNL     1      10.007 -12.957  13.793  1.00  0.00    -0.039 N 
HETATM   12  C14 UNL     1       7.725 -13.677  12.880  1.00  0.00     0.127 C 
HETATM   13  C15 UNL     1       8.870 -14.565  12.500  1.00  0.00     0.069 C 
HETATM   14  C16 UNL     1       9.336 -14.114  11.111  1.00  0.00     0.016 C 
HETATM   15  C17 UNL     1      10.087 -14.346  13.413  1.00  0.00     0.393 C 
ATOM     16  H52 UNL     1       9.759 -12.314  13.041  1.00  0.00     0.280 HD
ATOM     17  H51 UNL     1      10.900 -12.512  14.003  1.00  0.00     0.280 HD
BRANCH  12  18
HETATM   18  O2  UNL     1       6.540 -14.392  12.632  1.00  0.00    -0.395 OA
ATOM     19  H2  UNL     1       6.756 -15.316  12.586  1.00  0.00     0.210 HD
ENDBRANCH  12  18
ENDBRANCH   5   6
ENDBRANCH   4   5
ENDBRANCH   2   4
BRANCH   1  20
HETATM   20  C3  UNL     1      15.010 -13.108  14.970  1.00  0.00     0.158 C 
BRANCH  20  21
HETATM   21  N2  UNL     1      15.120 -11.725  14.708  1.00  0.00    -0.355 N 
ATOM     22  H2  UNL     1      14.559 -11.098  15.285  1.00  0.00     0.162 HD
BRANCH  21  23
HETATM   23  C2  UNL     1      15.924 -11.140  13.733  1.00  0.00     0.167 C 
HETATM   24  S1  UNL     1      17.206 -11.975  13.099  1.00  0.00    -0.041 SA
BRANCH  23  25
HETATM   25  N1  UNL     1      15.717  -9.846  13.233  1.00  0.00    -0.372 N 
HETATM   26  C1  UNL     1      16.490  -9.321  12.130  1.00  0.00     0.148 C 
ATOM     27  H1  UNL     1      15.001  -9.258  13.659  1.00  0.00     0.161 HD
ENDBRANCH  23  25
ENDBRANCH  21  23
ENDBRANCH  20  21
BRANCH  20  28
HETATM   28  C4  UNL     1      15.005 -13.410  16.473  1.00  0.00     0.034 C 
BRANCH  28  29
HETATM   29  C5  UNL     1      14.592 -12.250  17.310  1.00  0.00     0.017 C 
BRANCH  29  30
HETATM   30  C6  UNL     1      13.231 -12.592  17.922  1.00  0.00     0.115 C 
HETATM   31 CL1  UNL     1      11.918 -12.010  16.904  1.00  0.00    -0.130 Cl
ENDBRANCH  29  30
ENDBRANCH  28  29
ENDBRANCH  20  28
ENDBRANCH   1  20
BRANCH   1  32
HETATM   32  O1  UNL     1      13.020 -13.019  13.477  1.00  0.00    -0.348 OA
ATOM     33  H1  UNL     1      12.478 -12.303  13.786  1.00  0.00     0.219 HD
ENDBRANCH   1  32
TORSDOF 12
ENDMDL
MODEL 3
REMARK VINA RESULT: -6.308761992      2.165      2.771
REMARK  12 active torsions:
REMARK  status: ('A' for Active; 'I' for Inactive)
REMARK    1  A    between atoms: N1_2  and  C2_4 
REMARK    2  A    between atoms: C2_4  and  N2_6 
REMARK    3  A    between atoms: N2_6  and  C3_8 
REMARK    4  A    between atoms: C3_8  and  C4_9 
REMARK    5  A    between atoms: C3_8  and  C7_13 
REMARK    6  A    between atoms: C4_9  and  C5_10 
REMARK    7  A    between atoms: C5_10  and  C6_11 
REMARK    8  A    between atoms: C7_13  and  O1_14 
REMARK    9  A    between atoms: N3_16  and  C8_18 
REMARK   10  A    between atoms: C8_18  and  C9_19 
REMARK   11  A    between atoms: C9_19  and  N4_20 
REMARK   12  A    between atoms: C14_25  and  O2_26 
ROOT
HETATM    1  C7  UNL     1      13.721 -11.647  14.504  1.00  0.00     0.134 C 
HETATM    2  N3  UNL     1      12.706 -11.139  15.084  1.00  0.00    -0.371 N 
ATOM      3  H3  UNL     1      12.858 -10.410  15.781  1.00  0.00     0.161 HD
ENDROOT
BRANCH   2   4
HETATM    4  C8  UNL     1      11.344 -11.549  14.797  1.00  0.00     0.149 C 
BRANCH   4   5
HETATM    5  C9  UNL     1      10.982 -12.637  15.765  1.00  0.00     0.259 C 
BRANCH   5   6
HETATM    6  N4  UNL     1      10.498 -13.835  15.145  1.00  0.00    -0.038 N 
HETATM    7  C10 UNL     1      11.544 -14.847  15.376  1.00  0.00     0.275 C 
HETATM    8  C11 UNL     1       9.273 -14.221  15.834  1.00  0.00     0.272 C 
HETATM    9  C12 UNL     1       8.264 -14.402  14.693  1.00  0.00     0.216 C 
HETATM   10  C13 UNL     1       8.436 -15.816  14.199  1.00  0.00     0.067 C 
HETATM   11  N5  UNL     1       8.744 -13.533  13.644  1.00  0.00    -0.039 N 
HETATM   12  C14 UNL     1       9.331 -15.948  13.025  1.00  0.00     0.127 C 
HETATM   13  C15 UNL     1      10.475 -14.984  12.975  1.00  0.00     0.069 C 
HETATM   14  C16 UNL     1      10.605 -14.530  11.517  1.00  0.00     0.016 C 
HETATM   15  C17 UNL     1      10.172 -13.699  13.761  1.00  0.00     0.393 C 
ATOM     16  H52 UNL     1       8.360 -13.717  12.717  1.00  0.00     0.280 HD
ATOM     17  H51 UNL     1       8.413 -12.570  13.693  1.00  0.00     0.280 HD
BRANCH  12  18
HETATM   18  O2  UNL     1       9.874 -17.245  13.034  1.00  0.00    -0.395 OA
ATOM     19  H2  UNL     1       9.262 -17.826  12.598  1.00  0.00     0.210 HD
ENDBRANCH  12  18
ENDBRANCH   5   6
ENDBRANCH   4   5
ENDBRANCH   2   4
BRANCH   1  20
HETATM   20  C3  UNL     1      15.083 -11.171  14.853  1.00  0.00     0.158 C 
BRANCH  20  21
HETATM   21  N2  UNL     1      15.740 -11.999  15.789  1.00  0.00    -0.355 N 
ATOM     22  H2  UNL     1      16.551 -11.606  16.268  1.00  0.00     0.162 HD
BRANCH  21  23
HETATM   23  C2  UNL     1      15.381 -13.304  16.117  1.00  0.00     0.167 C 
HETATM   24  S1  UNL     1      16.046 -14.583  15.300  1.00  0.00    -0.041 SA
BRANCH  23  25
HETATM   25  N1  UNL     1      14.462 -13.623  17.128  1.00  0.00    -0.372 N 
HETATM   26  C1  UNL     1      14.077 -12.665  18.140  1.00  0.00     0.148 C 
ATOM     27  H1  UNL     1      14.054 -14.557  17.150  1.00  0.00     0.161 HD
ENDBRANCH  23  25
ENDBRANCH  21  23
ENDBRANCH  20  21
BRANCH  20  28
HETATM   28  C4  UNL     1      15.899 -10.997  13.566  1.00  0.00     0.034 C 
BRANCH  28  29
HETATM   29  C5  UNL     1      15.849  -9.615  13.016  1.00  0.00     0.017 C 
BRANCH  29  30
HETATM   30  C6  UNL     1      16.798  -9.568  11.816  1.00  0.00     0.115 C 
HETATM   31 CL1  UNL     1      16.737  -7.996  11.026  1.00  0.00    -0.130 Cl
ENDBRANCH  29  30
ENDBRANCH  28  29
ENDBRANCH  20  28
ENDBRANCH   1  20
BRANCH   1  32
HETATM   32  O1  UNL     1      13.534 -12.627  13.557  1.00  0.00    -0.348 OA
ATOM     33  H1  UNL     1      12.748 -13.159  13.552  1.00  0.00     0.219 HD
ENDBRANCH   1  32
TORSDOF 12
ENDMDL
MODEL 4
REMARK VINA RESULT: -6.277850144      2.470      3.637
REMARK  12 active torsions:
REMARK  status: ('A' for Active; 'I' for Inactive)
REMARK    1  A    between atoms: N1_2  and  C2_4 
REMARK    2  A    between atoms: C2_4  and  N2_6 
REMARK    3  A    between atoms: N2_6  and  C3_8 
REMARK    4  A    between atoms: C3_8  and  C4_9 
REMARK    5  A    between atoms: C3_8  and  C7_13 
REMARK    6  A    between atoms: C4_9  and  C5_10 
REMARK    7  A    between atoms: C5_10  and  C6_11 
REMARK    8  A    between atoms: C7_13  and  O1_14 
REMARK    9  A    between atoms: N3_16  and  C8_18 
REMARK   10  A    between atoms: C8_18  and  C9_19 
REMARK   11  A    between atoms: C9_19  and  N4_20 
REMARK   12  A    between atoms: C14_25  and  O2_26 
ROOT
HETATM    1  C7  UNL     1      14.571 -12.601  14.532  1.00  0.00     0.134 C 
HETATM    2  N3  UNL     1      14.057 -11.772  15.352  1.00  0.00    -0.371 N 
ATOM      3  H3  UNL     1      14.649 -11.386  16.088  1.00  0.00     0.161 HD
ENDROOT
BRANCH   2   4
HETATM    4  C8  UNL     1      12.671 -11.350  15.285  1.00  0.00     0.149 C 
BRANCH   4   5
HETATM    5  C9  UNL     1      11.956 -11.947  16.462  1.00  0.00     0.259 C 
BRANCH   5   6
HETATM    6  N4  UNL     1      11.108 -13.054  16.131  1.00  0.00    -0.038 N 
HETATM    7  C10 UNL     1      11.917 -14.259  16.391  1.00  0.00     0.275 C 
HETATM    8  C11 UNL     1       9.967 -13.019  17.037  1.00  0.00     0.272 C 
HETATM    9  C12 UNL     1       8.760 -13.088  16.093  1.00  0.00     0.216 C 
HETATM   10  C13 UNL     1       8.513 -14.552  15.833  1.00  0.00     0.067 C 
HETATM   11  N5  UNL     1       9.236 -12.521  14.854  1.00  0.00    -0.039 N 
HETATM   12  C14 UNL     1       9.134 -15.066  14.590  1.00  0.00     0.127 C 
HETATM   13  C15 UNL     1      10.443 -14.442  14.218  1.00  0.00     0.069 C 
HETATM   14  C16 UNL     1      10.417 -14.237  12.699  1.00  0.00     0.016 C 
HETATM   15  C17 UNL     1      10.586 -13.028  14.803  1.00  0.00     0.393 C 
ATOM     16  H52 UNL     1       8.664 -12.723  14.034  1.00  0.00     0.280 HD
ATOM     17  H51 UNL     1       9.150 -11.508  14.779  1.00  0.00     0.280 HD
BRANCH  12  18
HETATM   18  O2  UNL     1       9.357 -16.445  14.750  1.00  0.00    -0.395 OA
ATOM     19  H2  UNL     1      10.275 -16.575  14.957  1.00  0.00     0.210 HD
ENDBRANCH  12  18
ENDBRANCH   5   6
ENDBRANCH   4   5
ENDBRANCH   2   4
BRANCH   1  20
HETATM   20  C3  UNL     1      16.000 -12.982  14.667  1.00  0.00     0.158 C 
BRANCH  20  21
HETATM   21  N2  UNL     1      16.337 -14.145  13.943  1.00  0.00    -0.355 N 
ATOM     22  H2  UNL     1      16.928 -14.025  13.120  1.00  0.00     0.162 HD
BRANCH  21  23
HETATM   23  C2  UNL     1      15.937 -15.443  14.251  1.00  0.00     0.167 C 
HETATM   24  S1  UNL     1      16.808 -16.350  15.331  1.00  0.00    -0.041 SA
BRANCH  23  25
HETATM   25  N1  UNL     1      14.808 -16.059  13.691  1.00  0.00    -0.372 N 
HETATM   26  C1  UNL     1      13.852 -16.781  14.501  1.00  0.00     0.148 C 
ATOM     27  H1  UNL     1      14.657 -15.996  12.685  1.00  0.00     0.161 HD
ENDBRANCH  23  25
ENDBRANCH  21  23
ENDBRANCH  20  21
BRANCH  20  28
HETATM   28  C4  UNL     1      16.877 -11.786  14.276  1.00  0.00     0.034 C 
BRANCH  28  29
HETATM   29  C5  UNL     1      16.745 -11.398  12.844  1.00  0.00     0.017 C 
BRANCH  29  30
HETATM   30  C6  UNL     1      16.385  -9.910  12.807  1.00  0.00     0.115 C 
HETATM   31 CL1  UNL     1      17.053  -9.137  11.374  1.00  0.00    -0.130 Cl
ENDBRANCH  29  30
ENDBRANCH  28  29
ENDBRANCH  20  28
ENDBRANCH   1  20
BRANCH   1  32
HETATM   32  O1  UNL     1      13.790 -13.127  13.528  1.00  0.00    -0.348 OA
ATOM     33  H1  UNL     1      13.786 -12.742  12.660  1.00  0.00     0.219 HD
ENDBRANCH   1  32
TORSDOF 12
ENDMDL
MODEL 5
REMARK VINA RESULT: -6.260960934      3.081      4.255
REMARK  12 active torsions:
REMARK  status: ('A' for Active; 'I' for Inactive)
REMARK    1  A    between atoms: N1_2  and  C2_4 
REMARK    2  A    between atoms: C2_4  and  N2_6 
REMARK    3  A    between atoms: N2_6  and  C3_8 
REMARK    4  A    between atoms: C3_8  and  C4_9 
REMARK    5  A    between atoms: C3_8  and  C7_13 
REMARK    6  A    between atoms: C4_9  and  C5_10 
REMARK    7  A    between atoms: C5_10  and  C6_11 
REMARK    8  A    between atoms: C7_13  and  O1_14 
REMARK    9  A    between atoms: N3_16  and  C8_18 
REMARK   10  A    between atoms: C8_18  and  C9_19 
REMARK   11  A    between atoms: C9_19  and  N4_20 
REMARK   12  A    between atoms: C14_25  and  O2_26 
ROOT
HETATM    1  C7  UNL     1      13.506 -11.943  14.384  1.00  0.00     0.134 C 
HETATM    2  N3  UNL     1      12.607 -11.294  15.012  1.00  0.00    -0.371 N 
ATOM      3  H3  UNL     1      12.896 -10.530  15.622  1.00  0.00     0.161 HD
ENDROOT
BRANCH   2   4
HETATM    4  C8  UNL     1      11.192 -11.593  14.900  1.00  0.00     0.149 C 
BRANCH   4   5
HETATM    5  C9  UNL     1      10.913 -12.802  15.743  1.00  0.00     0.259 C 
BRANCH   5   6
HETATM    6  N4  UNL     1       9.954 -13.704  15.175  1.00  0.00    -0.038 N 
HETATM    7  C10 UNL     1       8.998 -13.993  16.259  1.00  0.00     0.275 C 
HETATM    8  C11 UNL     1       9.278 -13.000  14.092  1.00  0.00     0.272 C 
HETATM    9  C12 UNL     1       9.412 -13.961  12.904  1.00  0.00     0.216 C 
HETATM   10  C13 UNL     1       8.254 -14.921  13.007  1.00  0.00     0.067 C 
HETATM   11  N5  UNL     1      10.607 -14.719  13.185  1.00  0.00    -0.039 N 
HETATM   12  C14 UNL     1       8.576 -16.197  13.688  1.00  0.00     0.127 C 
HETATM   13  C15 UNL     1       9.582 -16.101  14.794  1.00  0.00     0.069 C 
HETATM   14  C16 UNL     1      10.497 -17.323  14.665  1.00  0.00     0.016 C 
HETATM   15  C17 UNL     1      10.513 -14.892  14.614  1.00  0.00     0.393 C 
ATOM     16  H52 UNL     1      10.712 -15.581  12.649  1.00  0.00     0.280 HD
ATOM     17  H51 UNL     1      11.476 -14.299  12.855  1.00  0.00     0.280 HD
BRANCH  12  18
HETATM   18  O2  UNL     1       7.391 -16.710  14.243  1.00  0.00    -0.395 OA
ATOM     19  H2  UNL     1       6.772 -16.854  13.537  1.00  0.00     0.210 HD
ENDBRANCH  12  18
ENDBRANCH   5   6
ENDBRANCH   4   5
ENDBRANCH   2   4
BRANCH   1  20
HETATM   20  C3  UNL     1      14.934 -11.574  14.552  1.00  0.00     0.158 C 
BRANCH  20  21
HETATM   21  N2  UNL     1      15.242 -10.292  14.049  1.00  0.00    -0.355 N 
ATOM     22  H2  UNL     1      14.863  -9.492  14.556  1.00  0.00     0.162 HD
BRANCH  21  23
HETATM   23  C2  UNL     1      16.016 -10.021  12.925  1.00  0.00     0.167 C 
HETATM   24  S1  UNL     1      17.254 -11.036  12.499  1.00  0.00    -0.041 SA
BRANCH  23  25
HETATM   25  N1  UNL     1      15.815  -8.906  12.096  1.00  0.00    -0.372 N 
HETATM   26  C1  UNL     1      16.840  -8.431  11.194  1.00  0.00     0.148 C 
ATOM     27  H1  UNL     1      14.921  -8.417  12.131  1.00  0.00     0.161 HD
ENDBRANCH  23  25
ENDBRANCH  21  23
ENDBRANCH  20  21
BRANCH  20  28
HETATM   28  C4  UNL     1      15.320 -11.722  16.029  1.00  0.00     0.034 C 
BRANCH  28  29
HETATM   29  C5  UNL     1      14.963 -13.047  16.605  1.00  0.00     0.017 C 
BRANCH  29  30
HETATM   30  C6  UNL     1      14.208 -12.787  17.912  1.00  0.00     0.115 C 
HETATM   31 CL1  UNL     1      13.513 -14.276  18.544  1.00  0.00    -0.130 Cl
ENDBRANCH  29  30
ENDBRANCH  28  29
ENDBRANCH  20  28
ENDBRANCH   1  20
BRANCH   1  32
HETATM   32  O1  UNL     1      13.135 -12.974  13.552  1.00  0.00    -0.348 OA
ATOM     33  H1  UNL     1      12.618 -13.702  13.876  1.00  0.00     0.219 HD
ENDBRANCH   1  32
TORSDOF 12
ENDMDL
