MODEL 1
REMARK VINA RESULT: -7.195134213      0.000      0.000
REMARK  10 active torsions:
REMARK  status: ('A' for Active; 'I' for Inactive)
REMARK    1  A    between atoms: C2_2  and  C3_3 
REMARK    2  A    between atoms: C3_3  and  N1_4 
REMARK       I    between atoms: N1_4  and  C4_6 
REMARK    3  A    between atoms: N3_8  and  C5_10 
REMARK    4  A    between atoms: C8_13  and  N4_14 
REMARK    5  A    between atoms: N4_14  and  C9_15 
REMARK    6  A    between atoms: C9_15  and  C10_16 
REMARK    7  A    between atoms: C14_20  and  C15_22 
REMARK    8  A    between atoms: C15_22  and  O1_23 
REMARK    9  A    between atoms: N5_26  and  C17_27 
REMARK   10  A    between atoms: C17_27  and  C18_28 
ROOT
HETATM    1  C5  UNL     1      14.571 -12.283  14.289  1.00  0.00     0.176 C 
HETATM    2  C6  UNL     1      13.368 -11.416  14.159  1.00  0.00     0.038 C 
HETATM    3  C7  UNL     1      12.277 -11.768  15.179  1.00  0.00     0.058 C 
HETATM    4  C8  UNL     1      12.424 -13.233  15.472  1.00  0.00     0.294 C 
HETATM    5  N5  UNL     1      13.554 -13.374  16.302  1.00  0.00    -0.312 N 
HETATM    6  C19 UNL     1      14.761 -12.890  15.631  1.00  0.00     0.244 C 
HETATM    7  O4  UNL     1      15.896 -12.998  16.189  1.00  0.00    -0.271 OA
ENDROOT
BRANCH   4   8
HETATM    8  N4  UNL     1      11.206 -13.935  15.752  1.00  0.00    -0.043 N 
HETATM    9  C12 UNL     1      11.579 -15.331  15.934  1.00  0.00     0.243 C 
HETATM   10  C13 UNL     1      10.858 -16.168  14.940  1.00  0.00     0.075 C 
HETATM   11  C14 UNL     1       9.913 -15.260  14.237  1.00  0.00     0.150 C 
HETATM   12  F1  UNL     1       9.933 -15.465  12.848  1.00  0.00    -0.239 F 
HETATM   13  C16 UNL     1      10.346 -13.863  14.592  1.00  0.00     0.285 C 
BRANCH   8  14
HETATM   14  C9  UNL     1      10.533 -13.380  16.871  1.00  0.00     0.240 C 
BRANCH  14  15
HETATM   15  C10 UNL     1       9.159 -12.813  16.648  1.00  0.00     0.023 C 
HETATM   16  C11 UNL     1       8.553 -12.638  18.052  1.00  0.00     0.007 C 
ENDBRANCH  14  15
ENDBRANCH   8  14
BRANCH  11  17
HETATM   17  C15 UNL     1       8.503 -15.584  14.669  1.00  0.00     0.209 C 
BRANCH  17  18
HETATM   18  O1  UNL     1       7.658 -14.789  13.873  1.00  0.00    -0.398 OA
ATOM     19  H1  UNL     1       6.780 -15.131  13.996  1.00  0.00     0.209 HD
ENDBRANCH  17  18
ENDBRANCH  11  17
ENDBRANCH   4   8
BRANCH   5  20
HETATM   20  C17 UNL     1      13.772 -13.878  17.604  1.00  0.00     0.241 C 
BRANCH  20  21
HETATM   21  C18 UNL     1      13.780 -12.908  18.712  1.00  0.00     0.191 C 
HETATM   22  O2  UNL     1      14.248 -13.068  19.844  1.00  0.00    -0.647 OA
HETATM   23  O3  UNL     1      13.194 -11.645  18.475  1.00  0.00    -0.647 OA
ENDBRANCH  20  21
ENDBRANCH   5  20
BRANCH   1  24
HETATM   24  N3  UNL     1      15.716 -11.576  13.820  1.00  0.00    -0.351 N 
HETATM   25  C4  UNL     1      16.240 -10.505  14.212  1.00  0.00     0.185 C 
HETATM   26  N1  UNL     1      17.404 -10.044  13.525  1.00  0.00    -0.361 N 
HETATM   27  N2  UNL     1      15.790  -9.686  15.281  1.00  0.00    -0.064 NA
ATOM     28  H1  UNL     1      18.194  -9.697  14.070  1.00  0.00     0.162 HD
ATOM     29  H3  UNL     1      16.190 -12.016  13.032  1.00  0.00     0.163 HD
BRANCH  26  30
HETATM   30  C3  UNL     1      17.499 -10.055  12.079  1.00  0.00     0.148 C 
BRANCH  30  31
HETATM   31  C2  UNL     1      16.547  -9.068  11.458  1.00  0.00    -0.018 C 
HETATM   32  C1  UNL     1      16.965  -7.877  11.057  1.00  0.00     0.008 C 
ENDBRANCH  30  31
ENDBRANCH  26  30
ENDBRANCH   1  24
TORSDOF 10
ENDMDL
MODEL 2
REMARK VINA RESULT: -7.110309756      2.424      4.290
REMARK  10 active torsions:
REMARK  status: ('A' for Active; 'I' for Inactive)
REMARK    1  A    between atoms: C2_2  and  C3_3 
REMARK    2  A    between atoms: C3_3  and  N1_4 
REMARK       I    between atoms: N1_4  and  C4_6 
REMARK    3  A    between atoms: N3_8  and  C5_10 
REMARK    4  A    between atoms: C8_13  and  N4_14 
REMARK    5  A    between atoms: N4_14  and  C9_15 
REMARK    6  A    between atoms: C9_15  and  C10_16 
REMARK    7  A    between atoms: C14_20  and  C15_22 
REMARK    8  A    between atoms: C15_22  and  O1_23 
REMARK    9  A    between atoms: N5_26  and  C17_27 
REMARK   10  A    between atoms: C17_27  and  C18_28 
ROOT
HETATM    1  C5  UNL     1      12.234 -13.901  14.933  1.00  0.00     0.176 C 
HETATM    2  C6  UNL     1      11.856 -13.457  13.564  1.00  0.00     0.038 C 
HETATM    3  C7  UNL     1      10.348 -13.572  13.305  1.00  0.00     0.058 C 
HETATM    4  C8  UNL     1       9.853 -14.701  14.160  1.00  0.00     0.294 C 
HETATM    5  N5  UNL     1       9.812 -14.226  15.486  1.00  0.00    -0.312 N 
HETATM    6  C19 UNL     1      11.145 -13.823  15.939  1.00  0.00     0.244 C 
HETATM    7  O4  UNL     1      11.329 -13.432  17.132  1.00  0.00    -0.271 OA
ENDROOT
BRANCH   4   8
HETATM    8  N4  UNL     1       8.771 -15.465  13.613  1.00  0.00    -0.043 N 
HETATM    9  C12 UNL     1       9.339 -16.242  12.520  1.00  0.00     0.243 C 
HETATM   10  C13 UNL     1       8.640 -15.899  11.254  1.00  0.00     0.075 C 
HETATM   11  C14 UNL     1       7.520 -14.995  11.628  1.00  0.00     0.150 C 
HETATM   12  F1  UNL     1       7.430 -13.894  10.762  1.00  0.00    -0.239 F 
HETATM   13  C16 UNL     1       7.799 -14.559  13.042  1.00  0.00     0.285 C 
BRANCH   8  14
HETATM   14  C9  UNL     1       8.144 -16.262  14.606  1.00  0.00     0.240 C 
BRANCH  14  15
HETATM   15  C10 UNL     1       8.359 -17.748  14.546  1.00  0.00     0.023 C 
HETATM   16  C11 UNL     1       6.985 -18.375  14.841  1.00  0.00     0.007 C 
ENDBRANCH  14  15
ENDBRANCH   8  14
BRANCH  11  17
HETATM   17  C15 UNL     1       6.213 -15.736  11.472  1.00  0.00     0.209 C 
BRANCH  17  18
HETATM   18  O1  UNL     1       5.205 -14.838  11.866  1.00  0.00    -0.398 OA
ATOM     19  H1  UNL     1       4.388 -15.320  11.818  1.00  0.00     0.209 HD
ENDBRANCH  17  18
ENDBRANCH  11  17
ENDBRANCH   4   8
BRANCH   5  20
HETATM   20  C17 UNL     1       8.794 -14.067  16.452  1.00  0.00     0.241 C 
BRANCH  20  21
HETATM   21  C18 UNL     1       8.149 -12.747  16.544  1.00  0.00     0.191 C 
HETATM   22  O2  UNL     1       7.667 -12.083  15.620  1.00  0.00    -0.647 OA
HETATM   23  O3  UNL     1       8.060 -12.154  17.822  1.00  0.00    -0.647 OA
ENDBRANCH  20  21
ENDBRANCH   5  20
BRANCH   1  24
HETATM   24  N3  UNL     1      13.425 -13.230  15.336  1.00  0.00    -0.351 N 
HETATM   25  C4  UNL     1      13.666 -12.009  15.503  1.00  0.00     0.185 C 
HETATM   26  N1  UNL     1      14.983 -11.642  15.918  1.00  0.00    -0.361 N 
HETATM   27  N2  UNL     1      12.755 -10.936  15.319  1.00  0.00    -0.064 NA
ATOM     28  H1  UNL     1      15.092 -10.946  16.656  1.00  0.00     0.162 HD
ATOM     29  H3  UNL     1      14.217 -13.846  15.519  1.00  0.00     0.163 HD
BRANCH  26  30
HETATM   30  C3  UNL     1      16.168 -12.226  15.324  1.00  0.00     0.148 C 
BRANCH  30  31
HETATM   31  C2  UNL     1      16.637 -11.430  14.135  1.00  0.00    -0.018 C 
HETATM   32  C1  UNL     1      16.814 -10.120  14.220  1.00  0.00     0.008 C 
ENDBRANCH  30  31
ENDBRANCH  26  30
ENDBRANCH   1  24
TORSDOF 10
ENDMDL
MODEL 3
REMARK VINA RESULT: -7.105281148      3.474      6.992
REMARK  10 active torsions:
REMARK  status: ('A' for Active; 'I' for Inactive)
REMARK    1  A    between atoms: C2_2  and  C3_3 
REMARK    2  A    between atoms: C3_3  and  N1_4 
REMARK       I    between atoms: N1_4  and  C4_6 
REMARK    3  A    between atoms: N3_8  and  C5_10 
REMARK    4  A    between atoms: C8_13  and  N4_14 
REMARK    5  A    between atoms: N4_14  and  C9_15 
REMARK    6  A    between atoms: C9_15  and  C10_16 
REMARK    7  A    between atoms: C14_20  and  C15_22 
REMARK    8  A    between atoms: C15_22  and  O1_23 
REMARK    9  A    between atoms: N5_26  and  C17_27 
REMARK   10  A    between atoms: C17_27  and  C18_28 
ROOT
HETATM    1  C5  UNL     1       9.530 -14.034  15.263  1.00  0.00     0.176 C 
HETATM    2  C6  UNL     1       8.925 -13.705  16.583  1.00  0.00     0.038 C 
HETATM    3  C7  UNL     1       9.787 -12.731  17.397  1.00  0.00     0.058 C 
HETATM    4  C8  UNL     1      11.210 -12.972  16.984  1.00  0.00     0.294 C 
HETATM    5  N5  UNL     1      11.371 -12.394  15.709  1.00  0.00    -0.312 N 
HETATM    6  C19 UNL     1      10.471 -13.015  14.734  1.00  0.00     0.244 C 
HETATM    7  O4  UNL     1      10.515 -12.680  13.512  1.00  0.00    -0.271 OA
ENDROOT
BRANCH   4   8
HETATM    8  N4  UNL     1      12.194 -12.790  18.010  1.00  0.00    -0.043 N 
HETATM    9  C12 UNL     1      11.604 -13.322  19.231  1.00  0.00     0.243 C 
HETATM   10  C13 UNL     1      11.541 -12.250  20.258  1.00  0.00     0.075 C 
HETATM   11  C14 UNL     1      12.249 -11.077  19.680  1.00  0.00     0.150 C 
HETATM   12  F1  UNL     1      11.537  -9.886  19.889  1.00  0.00    -0.239 F 
HETATM   13  C16 UNL     1      12.404 -11.374  18.212  1.00  0.00     0.285 C 
BRANCH   8  14
HETATM   14  C9  UNL     1      13.425 -13.403  17.663  1.00  0.00     0.240 C 
BRANCH  14  15
HETATM   15  C10 UNL     1      13.438 -14.896  17.494  1.00  0.00     0.023 C 
HETATM   16  C11 UNL     1      14.374 -15.168  16.303  1.00  0.00     0.007 C 
ENDBRANCH  14  15
ENDBRANCH   8  14
BRANCH  11  17
HETATM   17  C15 UNL     1      13.563 -10.889  20.399  1.00  0.00     0.209 C 
BRANCH  17  18
HETATM   18  O1  UNL     1      14.512 -10.581  19.407  1.00  0.00    -0.398 OA
ATOM     19  H1  UNL     1      15.296 -10.306  19.867  1.00  0.00     0.209 HD
ENDBRANCH  17  18
ENDBRANCH  11  17
ENDBRANCH   4   8
BRANCH   5  20
HETATM   20  C17 UNL     1      12.198 -11.380  15.176  1.00  0.00     0.241 C 
BRANCH  20  21
HETATM   21  C18 UNL     1      13.534 -11.779  14.701  1.00  0.00     0.191 C 
HETATM   22  O2  UNL     1      13.801 -12.619  13.835  1.00  0.00    -0.647 OA
HETATM   23  O3  UNL     1      14.649 -11.141  15.286  1.00  0.00    -0.647 OA
ENDBRANCH  20  21
ENDBRANCH   5  20
BRANCH   1  24
HETATM   24  N3  UNL     1       8.498 -14.382  14.345  1.00  0.00    -0.351 N 
HETATM   25  C4  UNL     1       8.357 -15.387  13.605  1.00  0.00     0.185 C 
HETATM   26  N1  UNL     1       7.193 -15.449  12.781  1.00  0.00    -0.361 N 
HETATM   27  N2  UNL     1       9.249 -16.486  13.497  1.00  0.00    -0.064 NA
ATOM     28  H1  UNL     1       6.677 -16.327  12.720  1.00  0.00     0.162 HD
ATOM     29  H3  UNL     1       7.745 -13.699  14.276  1.00  0.00     0.163 HD
BRANCH  26  30
HETATM   30  C3  UNL     1       6.721 -14.304  12.028  1.00  0.00     0.148 C 
BRANCH  30  31
HETATM   31  C2  UNL     1       7.694 -13.920  10.945  1.00  0.00    -0.018 C 
HETATM   32  C1  UNL     1       7.575 -12.769  10.300  1.00  0.00     0.008 C 
ENDBRANCH  30  31
ENDBRANCH  26  30
ENDBRANCH   1  24
TORSDOF 10
ENDMDL
MODEL 4
REMARK VINA RESULT: -7.093966569      3.948      6.396
REMARK  10 active torsions:
REMARK  status: ('A' for Active; 'I' for Inactive)
REMARK    1  A    between atoms: C2_2  and  C3_3 
REMARK    2  A    between atoms: C3_3  and  N1_4 
REMARK       I    between atoms: N1_4  and  C4_6 
REMARK    3  A    between atoms: N3_8  and  C5_10 
REMARK    4  A    between atoms: C8_13  and  N4_14 
REMARK    5  A    between atoms: N4_14  and  C9_15 
REMARK    6  A    between atoms: C9_15  and  C10_16 
REMARK    7  A    between atoms: C14_20  and  C15_22 
REMARK    8  A    between atoms: C15_22  and  O1_23 
REMARK    9  A    between atoms: N5_26  and  C17_27 
REMARK   10  A    between atoms: C17_27  and  C18_28 
ROOT
HETATM    1  C5  UNL     1      10.281 -13.216  15.140  1.00  0.00     0.176 C 
HETATM    2  C6  UNL     1       8.916 -12.631  15.037  1.00  0.00     0.038 C 
HETATM    3  C7  UNL     1       7.970 -13.495  14.194  1.00  0.00     0.058 C 
HETATM    4  C8  UNL     1       8.826 -14.214  13.192  1.00  0.00     0.294 C 
HETATM    5  N5  UNL     1       9.498 -15.239  13.887  1.00  0.00    -0.312 N 
HETATM    6  C19 UNL     1      10.348 -14.686  14.943  1.00  0.00     0.244 C 
HETATM    7  O4  UNL     1      11.091 -15.446  15.636  1.00  0.00    -0.271 OA
ENDROOT
BRANCH   4   8
HETATM    8  N4  UNL     1       8.217 -14.457  11.918  1.00  0.00    -0.043 N 
HETATM    9  C12 UNL     1       6.779 -14.424  12.146  1.00  0.00     0.243 C 
HETATM   10  C13 UNL     1       6.185 -15.725  11.746  1.00  0.00     0.075 C 
HETATM   11  C14 UNL     1       7.283 -16.511  11.123  1.00  0.00     0.150 C 
HETATM   12  F1  UNL     1       7.297 -17.838  11.581  1.00  0.00    -0.239 F 
HETATM   13  C16 UNL     1       8.556 -15.793  11.483  1.00  0.00     0.285 C 
BRANCH   8  14
HETATM   14  C9  UNL     1       8.657 -13.521  10.946  1.00  0.00     0.240 C 
BRANCH  14  15
HETATM   15  C10 UNL     1       7.624 -12.623  10.324  1.00  0.00     0.023 C 
HETATM   16  C11 UNL     1       7.612 -12.984   8.829  1.00  0.00     0.007 C 
ENDBRANCH  14  15
ENDBRANCH   8  14
BRANCH  11  17
HETATM   17  C15 UNL     1       7.042 -16.603   9.635  1.00  0.00     0.209 C 
BRANCH  17  18
HETATM   18  O1  UNL     1       5.682 -16.304   9.439  1.00  0.00    -0.398 OA
ATOM     19  H1  UNL     1       5.645 -15.709   8.700  1.00  0.00     0.209 HD
ENDBRANCH  17  18
ENDBRANCH  11  17
ENDBRANCH   4   8
BRANCH   5  20
HETATM   20  C17 UNL     1       9.539 -16.647  13.781  1.00  0.00     0.241 C 
BRANCH  20  21
HETATM   21  C18 UNL     1       8.566 -17.413  14.578  1.00  0.00     0.191 C 
HETATM   22  O2  UNL     1       7.449 -17.041  14.955  1.00  0.00    -0.647 OA
HETATM   23  O3  UNL     1       8.928 -18.721  14.965  1.00  0.00    -0.647 OA
ENDBRANCH  20  21
ENDBRANCH   5  20
BRANCH   1  24
HETATM   24  N3  UNL     1      10.892 -12.779  16.352  1.00  0.00    -0.351 N 
HETATM   25  C4  UNL     1      11.800 -11.938  16.560  1.00  0.00     0.185 C 
HETATM   26  N1  UNL     1      12.203 -11.716  17.912  1.00  0.00    -0.361 N 
HETATM   27  N2  UNL     1      12.482 -11.171  15.579  1.00  0.00    -0.064 NA
ATOM     28  H1  UNL     1      12.342 -10.758  18.235  1.00  0.00     0.162 HD
ATOM     29  H3  UNL     1      10.529 -13.227  17.193  1.00  0.00     0.163 HD
BRANCH  26  30
HETATM   30  C3  UNL     1      12.422 -12.807  18.839  1.00  0.00     0.148 C 
BRANCH  30  31
HETATM   31  C2  UNL     1      13.665 -13.584  18.491  1.00  0.00    -0.018 C 
HETATM   32  C1  UNL     1      13.595 -14.857  18.134  1.00  0.00     0.008 C 
ENDBRANCH  30  31
ENDBRANCH  26  30
ENDBRANCH   1  24
TORSDOF 10
ENDMDL
MODEL 5
REMARK VINA RESULT: -7.029529734      2.537      4.133
REMARK  10 active torsions:
REMARK  status: ('A' for Active; 'I' for Inactive)
REMARK    1  A    between atoms: C2_2  and  C3_3 
REMARK    2  A    between atoms: C3_3  and  N1_4 
REMARK       I    between atoms: N1_4  and  C4_6 
REMARK    3  A    between atoms: N3_8  and  C5_10 
REMARK    4  A    between atoms: C8_13  and  N4_14 
REMARK    5  A    between atoms: N4_14  and  C9_15 
REMARK    6  A    between atoms: C9_15  and  C10_16 
REMARK    7  A    between atoms: C14_20  and  C15_22 
REMARK    8  A    between atoms: C15_22  and  O1_23 
REMARK    9  A    between atoms: N5_26  and  C17_27 
REMARK   10  A    between atoms: C17_27  and  C18_28 
ROOT
HETATM    1  C5  UNL     1      12.870 -12.814  14.133  1.00  0.00     0.176 C 
HETATM    2  C6  UNL     1      11.675 -12.023  14.534  1.00  0.00     0.038 C 
HETATM    3  C7  UNL     1      10.427 -12.897  14.719  1.00  0.00     0.058 C 
HETATM    4  C8  UNL     1      10.584 -14.067  13.792  1.00  0.00     0.294 C 
HETATM    5  N5  UNL     1      11.540 -14.924  14.372  1.00  0.00    -0.312 N 
HETATM    6  C19 UNL     1      12.830 -14.247  14.520  1.00  0.00     0.244 C 
HETATM    7  O4  UNL     1      13.841 -14.876  14.959  1.00  0.00    -0.271 OA
ENDROOT
BRANCH   4   8
HETATM    8  N4  UNL     1       9.369 -14.582  13.232  1.00  0.00    -0.043 N 
HETATM    9  C12 UNL     1       9.751 -15.265  12.004  1.00  0.00     0.243 C 
HETATM   10  C13 UNL     1       9.042 -14.647  10.854  1.00  0.00     0.075 C 
HETATM   11  C14 UNL     1       8.094 -13.657  11.432  1.00  0.00     0.150 C 
HETATM   12  F1  UNL     1       8.123 -12.440  10.731  1.00  0.00    -0.239 F 
HETATM   13  C16 UNL     1       8.516 -13.474  12.865  1.00  0.00     0.285 C 
BRANCH   8  14
HETATM   14  C9  UNL     1       8.686 -15.417  14.154  1.00  0.00     0.240 C 
BRANCH  14  15
HETATM   15  C10 UNL     1       8.100 -16.699  13.632  1.00  0.00     0.023 C 
HETATM   16  C11 UNL     1       7.793 -17.548  14.878  1.00  0.00     0.007 C 
ENDBRANCH  14  15
ENDBRANCH   8  14
BRANCH  11  17
HETATM   17  C15 UNL     1       6.684 -14.173  11.278  1.00  0.00     0.209 C 
BRANCH  17  18
HETATM   18  O1  UNL     1       6.036 -13.911  12.499  1.00  0.00    -0.398 OA
ATOM     19  H1  UNL     1       6.003 -14.739  12.964  1.00  0.00     0.209 HD
ENDBRANCH  17  18
ENDBRANCH  11  17
ENDBRANCH   4   8
BRANCH   5  20
HETATM   20  C17 UNL     1      11.530 -16.265  14.819  1.00  0.00     0.241 C 
BRANCH  20  21
HETATM   21  C18 UNL     1      11.820 -17.311  13.824  1.00  0.00     0.191 C 
HETATM   22  O2  UNL     1      12.581 -17.231  12.854  1.00  0.00    -0.647 OA
HETATM   23  O3  UNL     1      11.168 -18.553  13.978  1.00  0.00    -0.647 OA
ENDBRANCH  20  21
ENDBRANCH   5  20
BRANCH   1  24
HETATM   24  N3  UNL     1      14.049 -12.143  14.568  1.00  0.00    -0.351 N 
HETATM   25  C4  UNL     1      14.429 -11.808  15.717  1.00  0.00     0.185 C 
HETATM   26  N1  UNL     1      15.684 -11.135  15.832  1.00  0.00    -0.361 N 
HETATM   27  N2  UNL     1      13.733 -12.028  16.934  1.00  0.00    -0.064 NA
ATOM     28  H1  UNL     1      16.329 -11.416  16.570  1.00  0.00     0.162 HD
ATOM     29  H3  UNL     1      14.694 -11.892  13.820  1.00  0.00     0.163 HD
BRANCH  26  30
HETATM   30  C3  UNL     1      16.068 -10.065  14.933  1.00  0.00     0.148 C 
BRANCH  30  31
HETATM   31  C2  UNL     1      16.981 -10.564  13.844  1.00  0.00    -0.018 C 
HETATM   32  C1  UNL     1      16.863 -10.121  12.601  1.00  0.00     0.008 C 
ENDBRANCH  30  31
ENDBRANCH  26  30
ENDBRANCH   1  24
TORSDOF 10
ENDMDL
