MODEL 1
REMARK VINA RESULT: -8.555577607      0.000      0.000
REMARK  9 active torsions:
REMARK  status: ('A' for Active; 'I' for Inactive)
REMARK       I    between atoms: N1_2  and  C2_4 
REMARK    1  A    between atoms: N3_6  and  C3_8 
REMARK    2  A    between atoms: N4_10  and  C5_12 
REMARK    3  A    between atoms: C5_12  and  C6_13 
REMARK    4  A    between atoms: C6_13  and  C7_14 
REMARK    5  A    between atoms: C7_14  and  C8_15 
REMARK    6  A    between atoms: C8_15  and  C9_16 
REMARK    7  A    between atoms: C9_16  and  C10_17 
REMARK    8  A    between atoms: C15_23  and  N5_24 
REMARK       I    between atoms: C16_26  and  N6_27 
REMARK       I    between atoms: C16_26  and  N8_31 
REMARK    9  A    between atoms: N8_31  and  N9_33 
ROOT
HETATM    1  N5  UNL     1      14.381 -11.871  15.673  1.00  0.00    -0.219 N 
ATOM      2  H5  UNL     1      14.382 -11.105  16.347  1.00  0.00     0.178 HD
HETATM    3  C16 UNL     1      15.188 -11.843  14.675  1.00  0.00     0.703 C 
HETATM    4  N6  UNL     1      16.063 -10.748  14.529  1.00  0.00    -0.125 N 
ATOM      5  H6  UNL     1      16.719 -10.516  15.276  1.00  0.00     0.197 HD
HETATM    6  C17 UNL     1      16.036  -9.986  13.375  1.00  0.00     0.196 C 
HETATM    7  N7  UNL     1      16.031  -9.343  12.406  1.00  0.00    -0.171 NA
HETATM    8  N8  UNL     1      15.154 -12.935  13.758  1.00  0.00    -0.117 N 
ATOM      9  H8  UNL     1      14.352 -13.048  13.139  1.00  0.00     0.207 HD
ENDROOT
BRANCH   1  10
HETATM   10  C15 UNL     1      13.484 -12.966  15.846  1.00  0.00     0.111 C 
HETATM   11  C10 UNL     1      12.248 -12.541  16.596  1.00  0.00     0.039 C 
HETATM   12  C11 UNL     1      13.030 -12.756  17.852  1.00  0.00    -0.054 C 
HETATM   13  C12 UNL     1      12.983 -12.253  19.068  1.00  0.00     0.011 C 
HETATM   14  C14 UNL     1      13.834 -13.759  17.089  1.00  0.00     0.062 C 
HETATM   15  C13 UNL     1      11.992 -11.235  19.439  1.00  0.00     0.062 C 
HETATM   16 CL1  UNL     1      14.135 -12.821  20.259  1.00  0.00    -0.089 Cl
BRANCH  11  17
HETATM   17  C9  UNL     1      11.105 -13.535  16.559  1.00  0.00     0.011 C 
BRANCH  17  18
HETATM   18  C8  UNL     1       9.847 -12.817  16.989  1.00  0.00     0.001 C 
BRANCH  18  19
HETATM   19  C7  UNL     1       8.604 -13.479  16.495  1.00  0.00     0.002 C 
BRANCH  19  20
HETATM   20  C6  UNL     1       8.098 -12.883  15.198  1.00  0.00     0.020 C 
BRANCH  20  21
HETATM   21  C5  UNL     1       8.208 -13.952  14.103  1.00  0.00     0.121 C 
BRANCH  21  22
HETATM   22  N4  UNL     1       8.330 -13.290  12.820  1.00  0.00    -0.380 N 
HETATM   23  C3  UNL     1       7.473 -13.489  11.888  1.00  0.00     0.075 C 
HETATM   24  C4  UNL     1       7.678 -12.768  10.605  1.00  0.00     0.089 C 
ATOM     25  H4  UNL     1       9.111 -12.655  12.655  1.00  0.00     0.160 HD
BRANCH  23  26
HETATM   26  N3  UNL     1       6.393 -14.365  12.110  1.00  0.00    -0.321 N 
HETATM   27  C2  UNL     1       6.363 -15.524  11.562  1.00  0.00     0.189 C 
HETATM   28  N1  UNL     1       7.440 -15.913  10.723  1.00  0.00    -0.369 N 
HETATM   29  N2  UNL     1       5.300 -16.445  11.751  1.00  0.00    -0.064 NA
HETATM   30  C1  UNL     1       7.862 -17.307  10.709  1.00  0.00     0.148 C 
ATOM     31  H1  UNL     1       7.911 -15.224  10.136  1.00  0.00     0.161 HD
ATOM     32  H3  UNL     1       5.625 -14.073  12.715  1.00  0.00     0.169 HD
ENDBRANCH  23  26
ENDBRANCH  21  22
ENDBRANCH  20  21
ENDBRANCH  19  20
ENDBRANCH  18  19
ENDBRANCH  17  18
ENDBRANCH  11  17
ENDBRANCH   1  10
BRANCH   8  33
HETATM   33  N9  UNL     1      16.207 -13.850  13.698  1.00  0.00    -0.235 N 
HETATM   34  N10 UNL     1      15.904 -15.082  13.722  1.00  0.00    -0.330 N 
ATOM     35 2H10 UNL     1      14.929 -15.375  13.782  1.00  0.00     0.178 HD
ATOM     36 1H10 UNL     1      16.673 -15.751  13.678  1.00  0.00     0.178 HD
ATOM     37  H9  UNL     1      17.177 -13.542  13.638  1.00  0.00     0.208 HD
ENDBRANCH   8  33
TORSDOF 9
ENDMDL
MODEL 2
REMARK VINA RESULT: -8.435124365      0.969      1.507
REMARK  9 active torsions:
REMARK  status: ('A' for Active; 'I' for Inactive)
REMARK       I    between atoms: N1_2  and  C2_4 
REMARK    1  A    between atoms: N3_6  and  C3_8 
REMARK    2  A    between atoms: N4_10  and  C5_12 
REMARK    3  A    between atoms: C5_12  and  C6_13 
REMARK    4  A    between atoms: C6_13  and  C7_14 
REMARK    5  A    between atoms: C7_14  and  C8_15 
REMARK    6  A    between atoms: C8_15  and  C9_16 
REMARK    7  A    between atoms: C9_16  and  C10_17 
REMARK    8  A    between atoms: C15_23  and  N5_24 
REMARK       I    between atoms: C16_26  and  N6_27 
REMARK       I    between atoms: C16_26  and  N8_31 
REMARK    9  A    between atoms: N8_31  and  N9_33 
ROOT
HETATM    1  N5  UNL     1      14.562 -11.915  15.809  1.00  0.00    -0.219 N 
ATOM      2  H5  UNL     1      14.645 -11.165  16.495  1.00  0.00     0.178 HD
HETATM    3  C16 UNL     1      15.283 -11.891  14.747  1.00  0.00     0.703 C 
HETATM    4  N6  UNL     1      16.180 -10.821  14.550  1.00  0.00    -0.125 N 
ATOM      5  H6  UNL     1      16.903 -10.629  15.244  1.00  0.00     0.197 HD
HETATM    6  C17 UNL     1      16.082 -10.034  13.418  1.00  0.00     0.196 C 
HETATM    7  N7  UNL     1      16.019  -9.369  12.465  1.00  0.00    -0.171 NA
HETATM    8  N8  UNL     1      15.136 -12.960  13.815  1.00  0.00    -0.117 N 
ATOM      9  H8  UNL     1      14.282 -13.034  13.263  1.00  0.00     0.207 HD
ENDROOT
BRANCH   1  10
HETATM   10  C15 UNL     1      13.645 -12.985  16.034  1.00  0.00     0.111 C 
HETATM   11  C10 UNL     1      12.423 -12.504  16.774  1.00  0.00     0.039 C 
HETATM   12  C11 UNL     1      13.210 -12.681  18.033  1.00  0.00    -0.054 C 
HETATM   13  C12 UNL     1      13.182 -12.125  19.226  1.00  0.00     0.011 C 
HETATM   14  C14 UNL     1      13.989 -13.731  17.307  1.00  0.00     0.062 C 
HETATM   15  C13 UNL     1      12.213 -11.073  19.559  1.00  0.00     0.062 C 
HETATM   16 CL1  UNL     1      14.332 -12.664  20.433  1.00  0.00    -0.089 Cl
BRANCH  11  17
HETATM   17  C9  UNL     1      11.261 -13.477  16.787  1.00  0.00     0.011 C 
BRANCH  17  18
HETATM   18  C8  UNL     1      10.054 -12.755  17.339  1.00  0.00     0.001 C 
BRANCH  18  19
HETATM   19  C7  UNL     1       8.763 -13.335  16.863  1.00  0.00     0.002 C 
BRANCH  19  20
HETATM   20  C6  UNL     1       8.020 -12.416  15.918  1.00  0.00     0.020 C 
BRANCH  20  21
HETATM   21  C5  UNL     1       7.870 -13.133  14.570  1.00  0.00     0.121 C 
BRANCH  21  22
HETATM   22  N4  UNL     1       9.180 -13.252  13.960  1.00  0.00    -0.380 N 
HETATM   23  C3  UNL     1       9.384 -14.054  12.980  1.00  0.00     0.075 C 
HETATM   24  C4  UNL     1      10.759 -14.110  12.418  1.00  0.00     0.089 C 
ATOM     25  H4  UNL     1       9.952 -12.689  14.316  1.00  0.00     0.160 HD
BRANCH  23  26
HETATM   26  N3  UNL     1       8.321 -14.832  12.485  1.00  0.00    -0.321 N 
HETATM   27  C2  UNL     1       7.592 -14.411  11.517  1.00  0.00     0.189 C 
HETATM   28  N1  UNL     1       7.875 -13.140  10.950  1.00  0.00    -0.369 N 
HETATM   29  N2  UNL     1       6.509 -15.153  10.980  1.00  0.00    -0.064 NA
HETATM   30  C1  UNL     1       7.679 -12.941   9.520  1.00  0.00     0.148 C 
ATOM     31  H1  UNL     1       8.212 -12.377  11.537  1.00  0.00     0.161 HD
ATOM     32  H3  UNL     1       8.127 -15.743  12.901  1.00  0.00     0.169 HD
ENDBRANCH  23  26
ENDBRANCH  21  22
ENDBRANCH  20  21
ENDBRANCH  19  20
ENDBRANCH  18  19
ENDBRANCH  17  18
ENDBRANCH  11  17
ENDBRANCH   1  10
BRANCH   8  33
HETATM   33  N9  UNL     1      16.149 -13.908  13.649  1.00  0.00    -0.235 N 
HETATM   34  N10 UNL     1      15.824 -15.128  13.771  1.00  0.00    -0.330 N 
ATOM     35 2H10 UNL     1      14.860 -15.390  13.981  1.00  0.00     0.178 HD
ATOM     36 1H10 UNL     1      16.563 -15.820  13.649  1.00  0.00     0.178 HD
ATOM     37  H9  UNL     1      17.107 -13.631  13.438  1.00  0.00     0.208 HD
ENDBRANCH   8  33
TORSDOF 9
ENDMDL
MODEL 3
REMARK VINA RESULT: -8.348075908      0.958      1.379
REMARK  9 active torsions:
REMARK  status: ('A' for Active; 'I' for Inactive)
REMARK       I    between atoms: N1_2  and  C2_4 
REMARK    1  A    between atoms: N3_6  and  C3_8 
REMARK    2  A    between atoms: N4_10  and  C5_12 
REMARK    3  A    between atoms: C5_12  and  C6_13 
REMARK    4  A    between atoms: C6_13  and  C7_14 
REMARK    5  A    between atoms: C7_14  and  C8_15 
REMARK    6  A    between atoms: C8_15  and  C9_16 
REMARK    7  A    between atoms: C9_16  and  C10_17 
REMARK    8  A    between atoms: C15_23  and  N5_24 
REMARK       I    between atoms: C16_26  and  N6_27 
REMARK       I    between atoms: C16_26  and  N8_31 
REMARK    9  A    between atoms: N8_31  and  N9_33 
ROOT
HETATM    1  N5  UNL     1      14.424 -11.867  15.741  1.00  0.00    -0.219 N 
ATOM      2  H5  UNL     1      14.461 -11.102  16.415  1.00  0.00     0.178 HD
HETATM    3  C16 UNL     1      15.203 -11.856  14.721  1.00  0.00     0.703 C 
HETATM    4  N6  UNL     1      16.099 -10.781  14.551  1.00  0.00    -0.125 N 
ATOM      5  H6  UNL     1      16.780 -10.566  15.280  1.00  0.00     0.197 HD
HETATM    6  C17 UNL     1      16.056 -10.017  13.399  1.00  0.00     0.196 C 
HETATM    7  N7  UNL     1      16.039  -9.372  12.431  1.00  0.00    -0.171 NA
HETATM    8  N8  UNL     1      15.119 -12.945  13.804  1.00  0.00    -0.117 N 
ATOM      9  H8  UNL     1      14.297 -13.039  13.207  1.00  0.00     0.207 HD
ENDROOT
BRANCH   1  10
HETATM   10  C15 UNL     1      13.507 -12.942  15.937  1.00  0.00     0.111 C 
HETATM   11  C10 UNL     1      12.293 -12.485  16.705  1.00  0.00     0.039 C 
HETATM   12  C11 UNL     1      13.092 -12.708  17.949  1.00  0.00    -0.054 C 
HETATM   13  C12 UNL     1      13.077 -12.195  19.162  1.00  0.00     0.011 C 
HETATM   14  C14 UNL     1      13.862 -13.734  17.180  1.00  0.00     0.062 C 
HETATM   15  C13 UNL     1      12.115 -11.154  19.542  1.00  0.00     0.062 C 
HETATM   16 CL1  UNL     1      14.238 -12.779  20.338  1.00  0.00    -0.089 Cl
BRANCH  11  17
HETATM   17  C9  UNL     1      11.130 -13.456  16.696  1.00  0.00     0.011 C 
BRANCH  17  18
HETATM   18  C8  UNL     1       9.918 -12.738  17.242  1.00  0.00     0.001 C 
BRANCH  18  19
HETATM   19  C7  UNL     1       8.631 -13.335  16.778  1.00  0.00     0.002 C 
BRANCH  19  20
HETATM   20  C6  UNL     1       8.166 -12.768  15.453  1.00  0.00     0.020 C 
BRANCH  20  21
HETATM   21  C5  UNL     1       8.191 -13.896  14.413  1.00  0.00     0.121 C 
BRANCH  21  22
HETATM   22  N4  UNL     1       7.513 -13.438  13.217  1.00  0.00    -0.380 N 
HETATM   23  C3  UNL     1       8.068 -13.530  12.065  1.00  0.00     0.075 C 
HETATM   24  C4  UNL     1       7.298 -13.034  10.894  1.00  0.00     0.089 C 
ATOM     25  H4  UNL     1       6.578 -13.035  13.293  1.00  0.00     0.160 HD
BRANCH  23  26
HETATM   26  N3  UNL     1       9.356 -14.085  11.955  1.00  0.00    -0.321 N 
HETATM   27  C2  UNL     1       9.517 -15.312  11.615  1.00  0.00     0.189 C 
HETATM   28  N1  UNL     1       8.370 -16.104  11.349  1.00  0.00    -0.369 N 
HETATM   29  N2  UNL     1      10.792 -15.922  11.490  1.00  0.00    -0.064 NA
HETATM   30  C1  UNL     1       8.435 -17.120  10.306  1.00  0.00     0.148 C 
ATOM     31  H1  UNL     1       7.511 -15.964  11.882  1.00  0.00     0.161 HD
ATOM     32  H3  UNL     1      10.173 -13.505  12.149  1.00  0.00     0.169 HD
ENDBRANCH  23  26
ENDBRANCH  21  22
ENDBRANCH  20  21
ENDBRANCH  19  20
ENDBRANCH  18  19
ENDBRANCH  17  18
ENDBRANCH  11  17
ENDBRANCH   1  10
BRANCH   8  33
HETATM   33  N9  UNL     1      16.149 -13.884  13.713  1.00  0.00    -0.235 N 
HETATM   34  N10 UNL     1      15.819 -15.109  13.749  1.00  0.00    -0.330 N 
ATOM     35 2H10 UNL     1      14.840 -15.380  13.841  1.00  0.00     0.178 HD
ATOM     36 1H10 UNL     1      16.571 -15.795  13.683  1.00  0.00     0.178 HD
ATOM     37  H9  UNL     1      17.123 -13.598  13.622  1.00  0.00     0.208 HD
ENDBRANCH   8  33
TORSDOF 9
ENDMDL
MODEL 4
REMARK VINA RESULT: -8.337887257      1.933      2.600
REMARK  9 active torsions:
REMARK  status: ('A' for Active; 'I' for Inactive)
REMARK       I    between atoms: N1_2  and  C2_4 
REMARK    1  A    between atoms: N3_6  and  C3_8 
REMARK    2  A    between atoms: N4_10  and  C5_12 
REMARK    3  A    between atoms: C5_12  and  C6_13 
REMARK    4  A    between atoms: C6_13  and  C7_14 
REMARK    5  A    between atoms: C7_14  and  C8_15 
REMARK    6  A    between atoms: C8_15  and  C9_16 
REMARK    7  A    between atoms: C9_16  and  C10_17 
REMARK    8  A    between atoms: C15_23  and  N5_24 
REMARK       I    between atoms: C16_26  and  N6_27 
REMARK       I    between atoms: C16_26  and  N8_31 
REMARK    9  A    between atoms: N8_31  and  N9_33 
ROOT
HETATM    1  N5  UNL     1      13.337 -11.926  15.928  1.00  0.00    -0.219 N 
ATOM      2  H5  UNL     1      13.302 -11.179  16.622  1.00  0.00     0.178 HD
HETATM    3  C16 UNL     1      14.236 -11.906  15.013  1.00  0.00     0.703 C 
HETATM    4  N6  UNL     1      15.163 -10.844  14.983  1.00  0.00    -0.125 N 
ATOM      5  H6  UNL     1      15.752 -10.659  15.796  1.00  0.00     0.197 HD
HETATM    6  C17 UNL     1      15.276 -10.052  13.855  1.00  0.00     0.196 C 
HETATM    7  N7  UNL     1      15.389  -9.385  12.909  1.00  0.00    -0.171 NA
HETATM    8  N8  UNL     1      14.249 -12.971  14.065  1.00  0.00    -0.117 N 
ATOM      9  H8  UNL     1      13.507 -13.036  13.369  1.00  0.00     0.207 HD
ENDROOT
BRANCH   1  10
HETATM   10  C15 UNL     1      12.386 -12.988  15.982  1.00  0.00     0.111 C 
HETATM   11  C10 UNL     1      11.231 -12.636  16.884  1.00  0.00     0.039 C 
HETATM   12  C11 UNL     1      12.079 -13.104  18.024  1.00  0.00    -0.054 C 
HETATM   13  C12 UNL     1      12.144 -12.815  19.307  1.00  0.00     0.011 C 
HETATM   14  C14 UNL     1      12.767 -14.000  17.044  1.00  0.00     0.062 C 
HETATM   15  C13 UNL     1      11.246 -11.826  19.917  1.00  0.00     0.062 C 
HETATM   16 CL1  UNL     1      13.335 -13.637  20.295  1.00  0.00    -0.089 Cl
BRANCH  11  17
HETATM   17  C9  UNL     1      10.028 -13.551  16.768  1.00  0.00     0.011 C 
BRANCH  17  18
HETATM   18  C8  UNL     1       8.787 -12.722  17.001  1.00  0.00     0.001 C 
BRANCH  18  19
HETATM   19  C7  UNL     1       8.091 -12.348  15.734  1.00  0.00     0.002 C 
BRANCH  19  20
HETATM   20  C6  UNL     1       8.232 -13.402  14.656  1.00  0.00     0.020 C 
BRANCH  20  21
HETATM   21  C5  UNL     1       9.327 -12.949  13.682  1.00  0.00     0.121 C 
BRANCH  21  22
HETATM   22  N4  UNL     1       9.137 -13.635  12.419  1.00  0.00    -0.380 N 
HETATM   23  C3  UNL     1      10.050 -14.392  11.932  1.00  0.00     0.075 C 
HETATM   24  C4  UNL     1       9.767 -15.054  10.632  1.00  0.00     0.089 C 
ATOM     25  H4  UNL     1       8.261 -13.513  11.909  1.00  0.00     0.160 HD
BRANCH  23  26
HETATM   26  N3  UNL     1      11.259 -14.563  12.633  1.00  0.00    -0.321 N 
HETATM   27  C2  UNL     1      11.472 -15.619  13.328  1.00  0.00     0.189 C 
HETATM   28  N1  UNL     1      10.464 -16.618  13.382  1.00  0.00    -0.369 N 
HETATM   29  N2  UNL     1      12.670 -15.843  14.054  1.00  0.00    -0.064 NA
HETATM   30  C1  UNL     1      10.857 -18.020  13.449  1.00  0.00     0.148 C 
ATOM     31  H1  UNL     1       9.478 -16.358  13.373  1.00  0.00     0.161 HD
ATOM     32  H3  UNL     1      11.975 -13.837  12.586  1.00  0.00     0.169 HD
ENDBRANCH  23  26
ENDBRANCH  21  22
ENDBRANCH  20  21
ENDBRANCH  19  20
ENDBRANCH  18  19
ENDBRANCH  17  18
ENDBRANCH  11  17
ENDBRANCH   1  10
BRANCH   8  33
HETATM   33  N9  UNL     1      15.268 -13.927  14.078  1.00  0.00    -0.235 N 
HETATM   34  N10 UNL     1      16.279 -13.704  13.345  1.00  0.00    -0.330 N 
ATOM     35 2H10 UNL     1      16.331 -12.859  12.776  1.00  0.00     0.178 HD
ATOM     36 1H10 UNL     1      17.023 -14.403  13.355  1.00  0.00     0.178 HD
ATOM     37  H9  UNL     1      15.201 -14.767  14.652  1.00  0.00     0.208 HD
ENDBRANCH   8  33
TORSDOF 9
ENDMDL
MODEL 5
REMARK VINA RESULT: -8.217481643      1.579      2.384
REMARK  9 active torsions:
REMARK  status: ('A' for Active; 'I' for Inactive)
REMARK       I    between atoms: N1_2  and  C2_4 
REMARK    1  A    between atoms: N3_6  and  C3_8 
REMARK    2  A    between atoms: N4_10  and  C5_12 
REMARK    3  A    between atoms: C5_12  and  C6_13 
REMARK    4  A    between atoms: C6_13  and  C7_14 
REMARK    5  A    between atoms: C7_14  and  C8_15 
REMARK    6  A    between atoms: C8_15  and  C9_16 
REMARK    7  A    between atoms: C9_16  and  C10_17 
REMARK    8  A    between atoms: C15_23  and  N5_24 
REMARK       I    between atoms: C16_26  and  N6_27 
REMARK       I    between atoms: C16_26  and  N8_31 
REMARK    9  A    between atoms: N8_31  and  N9_33 
ROOT
HETATM    1  N5  UNL     1      14.487 -11.937  16.065  1.00  0.00    -0.219 N 
ATOM      2  H5  UNL     1      14.679 -11.200  16.743  1.00  0.00     0.178 HD
HETATM    3  C16 UNL     1      15.148 -11.980  14.966  1.00  0.00     0.703 C 
HETATM    4  N6  UNL     1      16.133 -11.003  14.717  1.00  0.00    -0.125 N 
ATOM      5  H6  UNL     1      16.908 -10.883  15.370  1.00  0.00     0.197 HD
HETATM    6  C17 UNL     1      16.051 -10.207  13.589  1.00  0.00     0.196 C 
HETATM    7  N7  UNL     1      16.001  -9.537  12.639  1.00  0.00    -0.171 NA
HETATM    8  N8  UNL     1      14.848 -13.028  14.046  1.00  0.00    -0.117 N 
ATOM      9  H8  UNL     1      13.962 -13.017  13.541  1.00  0.00     0.207 HD
ENDROOT
BRANCH   1  10
HETATM   10  C15 UNL     1      13.484 -12.912  16.342  1.00  0.00     0.111 C 
HETATM   11  C10 UNL     1      12.343 -12.310  17.122  1.00  0.00     0.039 C 
HETATM   12  C11 UNL     1      13.161 -12.546  18.352  1.00  0.00    -0.054 C 
HETATM   13  C12 UNL     1      13.234 -11.977  19.537  1.00  0.00     0.011 C 
HETATM   14  C14 UNL     1      13.809 -13.673  17.612  1.00  0.00     0.062 C 
HETATM   15  C13 UNL     1      12.383 -10.834  19.892  1.00  0.00     0.062 C 
HETATM   16 CL1  UNL     1      14.377 -12.608  20.705  1.00  0.00    -0.089 Cl
BRANCH  11  17
HETATM   17  C9  UNL     1      11.097 -13.169  17.197  1.00  0.00     0.011 C 
BRANCH  17  18
HETATM   18  C8  UNL     1      10.045 -12.401  17.962  1.00  0.00     0.001 C 
BRANCH  18  19
HETATM   19  C7  UNL     1       8.657 -12.859  17.660  1.00  0.00     0.002 C 
BRANCH  19  20
HETATM   20  C6  UNL     1       8.579 -13.709  16.410  1.00  0.00     0.020 C 
BRANCH  20  21
HETATM   21  C5  UNL     1       8.080 -12.826  15.259  1.00  0.00     0.121 C 
BRANCH  21  22
HETATM   22  N4  UNL     1       7.627 -13.683  14.181  1.00  0.00    -0.380 N 
HETATM   23  C3  UNL     1       8.360 -13.896  13.151  1.00  0.00     0.075 C 
HETATM   24  C4  UNL     1       7.813 -14.788  12.096  1.00  0.00     0.089 C 
ATOM     25  H4  UNL     1       6.708 -14.123  14.243  1.00  0.00     0.160 HD
BRANCH  23  26
HETATM   26  N3  UNL     1       9.628 -13.291  13.062  1.00  0.00    -0.321 N 
HETATM   27  C2  UNL     1      10.691 -13.944  13.361  1.00  0.00     0.189 C 
HETATM   28  N1  UNL     1      10.568 -15.294  13.786  1.00  0.00    -0.369 N 
HETATM   29  N2  UNL     1      11.992 -13.385  13.290  1.00  0.00    -0.064 NA
HETATM   30  C1  UNL     1      11.600 -16.252  13.412  1.00  0.00     0.148 C 
ATOM     31  H1  UNL     1       9.768 -15.588  14.345  1.00  0.00     0.161 HD
ATOM     32  H3  UNL     1       9.703 -12.321  12.756  1.00  0.00     0.169 HD
ENDBRANCH  23  26
ENDBRANCH  21  22
ENDBRANCH  20  21
ENDBRANCH  19  20
ENDBRANCH  18  19
ENDBRANCH  17  18
ENDBRANCH  11  17
ENDBRANCH   1  10
BRANCH   8  33
HETATM   33  N9  UNL     1      15.753 -14.069  13.827  1.00  0.00    -0.235 N 
HETATM   34  N10 UNL     1      15.302 -15.253  13.904  1.00  0.00    -0.330 N 
ATOM     35 2H10 UNL     1      14.318 -15.420  14.116  1.00  0.00     0.178 HD
ATOM     36 1H10 UNL     1      15.963 -16.013  13.744  1.00  0.00     0.178 HD
ATOM     37  H9  UNL     1      16.733 -13.886  13.617  1.00  0.00     0.208 HD
ENDBRANCH   8  33
TORSDOF 9
ENDMDL
