MODEL 1
REMARK VINA RESULT: -7.231452310      0.000      0.000
REMARK  10 active torsions:
REMARK  status: ('A' for Active; 'I' for Inactive)
REMARK    1  A    between atoms: N1_2  and  C3_4 
REMARK    2  A    between atoms: C3_4  and  C4_5 
REMARK    3  A    between atoms: C4_5  and  C5_6 
REMARK    4  A    between atoms: C5_6  and  O1_7 
REMARK    5  A    between atoms: C5_6  and  C6_9 
REMARK    6  A    between atoms: C6_9  and  C7_10 
REMARK    7  A    between atoms: C7_10  and  C8_11 
REMARK    8  A    between atoms: C8_11  and  C9_12 
REMARK    9  A    between atoms: C9_12  and  C10_13 
REMARK   10  A    between atoms: C13_19  and  N3_20 
ROOT
HETATM    1  C3  UNL     1      12.973 -13.162  15.760  1.00  0.00     0.116 C 
HETATM    2  C11 UNL     1      13.528 -12.186  14.780  1.00  0.00     0.100 C 
HETATM    3  C12 UNL     1      14.835 -12.608  14.212  1.00  0.00     0.054 A 
HETATM    4  N2  UNL     1      15.662 -11.679  13.698  1.00  0.00    -0.194 N 
ATOM      5  H2  UNL     1      15.468 -10.678  13.669  1.00  0.00     0.184 HD
HETATM    6  C13 UNL     1      16.761 -12.250  13.239  1.00  0.00     0.676 A 
HETATM    7  N4  UNL     1      16.652 -13.551  13.451  1.00  0.00    -0.192 N 
ATOM      8  H4  UNL     1      17.348 -14.254  13.202  1.00  0.00     0.184 HD
HETATM    9  C14 UNL     1      15.452 -13.799  14.061  1.00  0.00     0.067 A 
HETATM   10  C15 UNL     1      14.990 -15.135  14.449  1.00  0.00     0.182 C 
HETATM   11  N5  UNL     1      13.567 -15.312  14.315  1.00  0.00    -0.353 N 
ATOM     12  H5  UNL     1      13.149 -15.950  13.639  1.00  0.00     0.162 HD
HETATM   13  C16 UNL     1      12.810 -14.528  15.197  1.00  0.00     0.246 C 
HETATM   14  O2  UNL     1      11.812 -15.080  15.584  1.00  0.00    -0.271 OA
ENDROOT
BRANCH   1  15
HETATM   15  N1  UNL     1      13.986 -13.337  16.788  1.00  0.00    -0.404 N 
HETATM   16  C1  UNL     1      13.677 -14.311  17.777  1.00  0.00     0.144 C 
HETATM   17  C2  UNL     1      14.545 -12.122  17.299  1.00  0.00     0.144 C 
ENDBRANCH   1  15
BRANCH   1  18
HETATM   18  C4  UNL     1      11.700 -12.635  16.334  1.00  0.00     0.073 C 
BRANCH  18  19
HETATM   19  C5  UNL     1      10.544 -12.418  15.474  1.00  0.00     0.121 C 
BRANCH  19  20
HETATM   20  O1  UNL     1      10.416 -11.183  14.851  1.00  0.00    -0.395 OA
ATOM     21  H1  UNL     1       9.893 -11.134  14.059  1.00  0.00     0.210 HD
ENDBRANCH  19  20
BRANCH  19  22
HETATM   22  C6  UNL     1       9.224 -12.673  16.169  1.00  0.00     0.032 C 
BRANCH  22  23
HETATM   23  C7  UNL     1       8.093 -12.686  15.219  1.00  0.00     0.002 C 
BRANCH  23  24
HETATM   24  C8  UNL     1       8.096 -13.923  14.332  1.00  0.00     0.001 C 
BRANCH  24  25
HETATM   25  C9  UNL     1       7.433 -13.631  13.040  1.00  0.00     0.011 C 
BRANCH  25  26
HETATM   26  C10 UNL     1       8.484 -13.344  11.971  1.00  0.00     0.085 C 
HETATM   27 BR1  UNL     1       7.652 -12.819  10.324  1.00  0.00    -0.097 Br
ENDBRANCH  25  26
ENDBRANCH  24  25
ENDBRANCH  23  24
ENDBRANCH  22  23
ENDBRANCH  19  22
ENDBRANCH  18  19
ENDBRANCH   1  18
BRANCH   6  28
HETATM   28  N3  UNL     1      17.770 -11.670  12.680  1.00  0.00    -0.234 N 
ATOM     29  H32 UNL     1      17.982 -10.674  12.742  1.00  0.00     0.174 HD
ATOM     30  H31 UNL     1      18.492 -12.103  12.105  1.00  0.00     0.174 HD
ENDBRANCH   6  28
TORSDOF 10
ENDMDL
MODEL 2
REMARK VINA RESULT: -7.087215440      1.410      1.690
REMARK  10 active torsions:
REMARK  status: ('A' for Active; 'I' for Inactive)
REMARK    1  A    between atoms: N1_2  and  C3_4 
REMARK    2  A    between atoms: C3_4  and  C4_5 
REMARK    3  A    between atoms: C4_5  and  C5_6 
REMARK    4  A    between atoms: C5_6  and  O1_7 
REMARK    5  A    between atoms: C5_6  and  C6_9 
REMARK    6  A    between atoms: C6_9  and  C7_10 
REMARK    7  A    between atoms: C7_10  and  C8_11 
REMARK    8  A    between atoms: C8_11  and  C9_12 
REMARK    9  A    between atoms: C9_12  and  C10_13 
REMARK   10  A    between atoms: C13_19  and  N3_20 
ROOT
HETATM    1  C3  UNL     1      12.179 -13.616  16.090  1.00  0.00     0.116 C 
HETATM    2  C11 UNL     1      12.131 -12.286  15.419  1.00  0.00     0.100 C 
HETATM    3  C12 UNL     1      13.430 -11.890  14.815  1.00  0.00     0.054 A 
HETATM    4  N2  UNL     1      13.684 -10.587  14.593  1.00  0.00    -0.194 N 
ATOM      5  H2  UNL     1      13.046  -9.822  14.814  1.00  0.00     0.184 HD
HETATM    6  C13 UNL     1      14.878 -10.441  14.048  1.00  0.00     0.676 A 
HETATM    7  N4  UNL     1      15.405 -11.647  13.914  1.00  0.00    -0.192 N 
ATOM      8  H4  UNL     1      16.324 -11.854  13.522  1.00  0.00     0.184 HD
HETATM    9  C14 UNL     1      14.514 -12.572  14.389  1.00  0.00     0.067 A 
HETATM   10  C15 UNL     1      14.760 -14.016  14.401  1.00  0.00     0.182 C 
HETATM   11  N5  UNL     1      13.577 -14.802  14.167  1.00  0.00    -0.353 N 
ATOM     12  H5  UNL     1      13.446 -15.374  13.333  1.00  0.00     0.162 HD
HETATM   13  C16 UNL     1      12.622 -14.712  15.189  1.00  0.00     0.246 C 
HETATM   14  O2  UNL     1      12.031 -15.744  15.379  1.00  0.00    -0.271 OA
ENDROOT
BRANCH   1  15
HETATM   15  N1  UNL     1      13.242 -13.540  17.080  1.00  0.00    -0.404 N 
HETATM   16  C1  UNL     1      13.473 -14.740  17.807  1.00  0.00     0.144 C 
HETATM   17  C2  UNL     1      13.244 -12.349  17.875  1.00  0.00     0.144 C 
ENDBRANCH   1  15
BRANCH   1  18
HETATM   18  C4  UNL     1      10.862 -13.909  16.728  1.00  0.00     0.073 C 
BRANCH  18  19
HETATM   19  C5  UNL     1       9.950 -12.821  17.055  1.00  0.00     0.121 C 
BRANCH  19  20
HETATM   20  O1  UNL     1       9.910 -12.375  18.371  1.00  0.00    -0.395 OA
ATOM     21  H1  UNL     1       9.217 -12.700  18.932  1.00  0.00     0.210 HD
ENDBRANCH  19  20
BRANCH  19  22
HETATM   22  C6  UNL     1       8.514 -13.107  16.670  1.00  0.00     0.032 C 
BRANCH  22  23
HETATM   23  C7  UNL     1       8.135 -12.431  15.412  1.00  0.00     0.002 C 
BRANCH  23  24
HETATM   24  C8  UNL     1       7.890 -13.415  14.277  1.00  0.00     0.001 C 
BRANCH  24  25
HETATM   25  C9  UNL     1       8.952 -13.293  13.252  1.00  0.00     0.011 C 
BRANCH  25  26
HETATM   26  C10 UNL     1       8.572 -14.102  12.015  1.00  0.00     0.085 C 
HETATM   27 BR1  UNL     1       7.820 -12.965  10.665  1.00  0.00    -0.097 Br
ENDBRANCH  25  26
ENDBRANCH  24  25
ENDBRANCH  23  24
ENDBRANCH  22  23
ENDBRANCH  19  22
ENDBRANCH  18  19
ENDBRANCH   1  18
BRANCH   6  28
HETATM   28  N3  UNL     1      15.451  -9.337  13.700  1.00  0.00    -0.234 N 
ATOM     29  H32 UNL     1      15.449  -8.948  12.757  1.00  0.00     0.174 HD
ATOM     30  H31 UNL     1      15.980  -8.700  14.295  1.00  0.00     0.174 HD
ENDBRANCH   6  28
TORSDOF 10
ENDMDL
MODEL 3
REMARK VINA RESULT: -7.046884475      2.274      2.710
REMARK  10 active torsions:
REMARK  status: ('A' for Active; 'I' for Inactive)
REMARK    1  A    between atoms: N1_2  and  C3_4 
REMARK    2  A    between atoms: C3_4  and  C4_5 
REMARK    3  A    between atoms: C4_5  and  C5_6 
REMARK    4  A    between atoms: C5_6  and  O1_7 
REMARK    5  A    between atoms: C5_6  and  C6_9 
REMARK    6  A    between atoms: C6_9  and  C7_10 
REMARK    7  A    between atoms: C7_10  and  C8_11 
REMARK    8  A    between atoms: C8_11  and  C9_12 
REMARK    9  A    between atoms: C9_12  and  C10_13 
REMARK   10  A    between atoms: C13_19  and  N3_20 
ROOT
HETATM    1  C3  UNL     1      13.726 -12.957  15.303  1.00  0.00     0.116 C 
HETATM    2  C11 UNL     1      14.040 -11.957  14.243  1.00  0.00     0.100 C 
HETATM    3  C12 UNL     1      15.418 -12.093  13.702  1.00  0.00     0.054 A 
HETATM    4  N2  UNL     1      16.001 -11.035  13.109  1.00  0.00    -0.194 N 
ATOM      5  H2  UNL     1      15.570 -10.117  12.999  1.00  0.00     0.184 HD
HETATM    6  C13 UNL     1      17.211 -11.356  12.690  1.00  0.00     0.676 A 
HETATM    7  N4  UNL     1      17.420 -12.624  13.009  1.00  0.00    -0.192 N 
ATOM      8  H4  UNL     1      18.269 -13.153  12.813  1.00  0.00     0.184 HD
HETATM    9  C14 UNL     1      16.308 -13.106  13.644  1.00  0.00     0.067 A 
HETATM   10  C15 UNL     1      16.179 -14.478  14.143  1.00  0.00     0.182 C 
HETATM   11  N5  UNL     1      14.845 -15.006  14.034  1.00  0.00    -0.353 N 
ATOM     12  H5  UNL     1      14.602 -15.780  13.415  1.00  0.00     0.162 HD
HETATM   13  C16 UNL     1      13.908 -14.363  14.854  1.00  0.00     0.246 C 
HETATM   14  O2  UNL     1      13.069 -15.108  15.292  1.00  0.00    -0.271 OA
ENDROOT
BRANCH   1  15
HETATM   15  N1  UNL     1      14.738 -12.796  16.335  1.00  0.00    -0.404 N 
HETATM   16  C1  UNL     1      14.508 -13.542  17.524  1.00  0.00     0.144 C 
HETATM   17  C2  UNL     1      15.175 -11.450  16.549  1.00  0.00     0.144 C 
ENDBRANCH   1  15
BRANCH   1  18
HETATM   18  C4  UNL     1      12.356 -12.711  15.842  1.00  0.00     0.073 C 
BRANCH  18  19
HETATM   19  C5  UNL     1      11.255 -12.422  14.933  1.00  0.00     0.121 C 
BRANCH  19  20
HETATM   20  O1  UNL     1      10.776 -11.118  14.880  1.00  0.00    -0.395 OA
ATOM     21  H1  UNL     1      10.387 -10.818  14.067  1.00  0.00     0.210 HD
ENDBRANCH  19  20
BRANCH  19  22
HETATM   22  C6  UNL     1      10.043 -13.301  15.161  1.00  0.00     0.032 C 
BRANCH  22  23
HETATM   23  C7  UNL     1       8.781 -12.577  14.911  1.00  0.00     0.002 C 
BRANCH  23  24
HETATM   24  C8  UNL     1       7.942 -12.423  16.171  1.00  0.00     0.001 C 
BRANCH  24  25
HETATM   25  C9  UNL     1       8.514 -13.231  17.273  1.00  0.00     0.011 C 
BRANCH  25  26
HETATM   26  C10 UNL     1       8.645 -12.374  18.529  1.00  0.00     0.085 C 
HETATM   27 BR1  UNL     1      10.491 -12.102  18.977  1.00  0.00    -0.097 Br
ENDBRANCH  25  26
ENDBRANCH  24  25
ENDBRANCH  23  24
ENDBRANCH  22  23
ENDBRANCH  19  22
ENDBRANCH  18  19
ENDBRANCH   1  18
BRANCH   6  28
HETATM   28  N3  UNL     1      18.056 -10.595  12.079  1.00  0.00    -0.234 N 
ATOM     29  H32 UNL     1      17.812  -9.865  11.411  1.00  0.00     0.174 HD
ATOM     30  H31 UNL     1      19.073 -10.605  12.166  1.00  0.00     0.174 HD
ENDBRANCH   6  28
TORSDOF 10
ENDMDL
MODEL 4
REMARK VINA RESULT: -6.945429187      0.833      1.119
REMARK  10 active torsions:
REMARK  status: ('A' for Active; 'I' for Inactive)
REMARK    1  A    between atoms: N1_2  and  C3_4 
REMARK    2  A    between atoms: C3_4  and  C4_5 
REMARK    3  A    between atoms: C4_5  and  C5_6 
REMARK    4  A    between atoms: C5_6  and  O1_7 
REMARK    5  A    between atoms: C5_6  and  C6_9 
REMARK    6  A    between atoms: C6_9  and  C7_10 
REMARK    7  A    between atoms: C7_10  and  C8_11 
REMARK    8  A    between atoms: C8_11  and  C9_12 
REMARK    9  A    between atoms: C9_12  and  C10_13 
REMARK   10  A    between atoms: C13_19  and  N3_20 
ROOT
HETATM    1  C3  UNL     1      12.856 -13.543  15.370  1.00  0.00     0.116 C 
HETATM    2  C11 UNL     1      13.447 -12.556  14.422  1.00  0.00     0.100 C 
HETATM    3  C12 UNL     1      14.860 -12.855  14.073  1.00  0.00     0.054 A 
HETATM    4  N2  UNL     1      15.654 -11.864  13.627  1.00  0.00    -0.194 N 
ATOM      5  H2  UNL     1      15.364 -10.893  13.510  1.00  0.00     0.184 HD
HETATM    6  C13 UNL     1      16.861 -12.329  13.365  1.00  0.00     0.676 A 
HETATM    7  N4  UNL     1      16.858 -13.624  13.638  1.00  0.00    -0.192 N 
ATOM      8  H4  UNL     1      17.652 -14.255  13.534  1.00  0.00     0.184 HD
HETATM    9  C14 UNL     1      15.613 -13.976  14.084  1.00  0.00     0.067 A 
HETATM   10  C15 UNL     1      15.238 -15.336  14.482  1.00  0.00     0.182 C 
HETATM   11  N5  UNL     1      13.878 -15.676  14.157  1.00  0.00    -0.353 N 
ATOM     12  H5  UNL     1      13.633 -16.386  13.468  1.00  0.00     0.162 HD
HETATM   13  C16 UNL     1      12.921 -14.943  14.873  1.00  0.00     0.246 C 
HETATM   14  O2  UNL     1      11.939 -15.584  15.146  1.00  0.00    -0.271 OA
ENDROOT
BRANCH   1  15
HETATM   15  N1  UNL     1      13.718 -13.557  16.541  1.00  0.00    -0.404 N 
HETATM   16  C1  UNL     1      13.413 -14.563  17.499  1.00  0.00     0.144 C 
HETATM   17  C2  UNL     1      14.006 -12.270  17.095  1.00  0.00     0.144 C 
ENDBRANCH   1  15
BRANCH   1  18
HETATM   18  C4  UNL     1      11.465 -13.136  15.723  1.00  0.00     0.073 C 
BRANCH  18  19
HETATM   19  C5  UNL     1      10.616 -12.494  14.728  1.00  0.00     0.121 C 
BRANCH  19  20
HETATM   20  O1  UNL     1      10.452 -11.116  14.800  1.00  0.00    -0.395 OA
ATOM     21  H1  UNL     1      10.922 -10.577  14.173  1.00  0.00     0.210 HD
ENDBRANCH  19  20
BRANCH  19  22
HETATM   22  C6  UNL     1       9.219 -13.076  14.668  1.00  0.00     0.032 C 
BRANCH  22  23
HETATM   23  C7  UNL     1       8.859 -13.506  13.302  1.00  0.00     0.002 C 
BRANCH  23  24
HETATM   24  C8  UNL     1      10.026 -14.153  12.571  1.00  0.00     0.001 C 
BRANCH  24  25
HETATM   25  C9  UNL     1       9.703 -14.328  11.136  1.00  0.00     0.011 C 
BRANCH  25  26
HETATM   26  C10 UNL     1       8.190 -14.363  10.947  1.00  0.00     0.085 C 
HETATM   27 BR1  UNL     1       7.621 -12.972   9.755  1.00  0.00    -0.097 Br
ENDBRANCH  25  26
ENDBRANCH  24  25
ENDBRANCH  23  24
ENDBRANCH  22  23
ENDBRANCH  19  22
ENDBRANCH  18  19
ENDBRANCH   1  18
BRANCH   6  28
HETATM   28  N3  UNL     1      17.877 -11.666  12.922  1.00  0.00    -0.234 N 
ATOM     29  H32 UNL     1      18.075 -11.485  11.938  1.00  0.00     0.174 HD
ATOM     30  H31 UNL     1      18.620 -11.232  13.471  1.00  0.00     0.174 HD
ENDBRANCH   6  28
TORSDOF 10
ENDMDL
MODEL 5
REMARK VINA RESULT: -6.883694453      3.430      6.366
REMARK  10 active torsions:
REMARK  status: ('A' for Active; 'I' for Inactive)
REMARK    1  A    between atoms: N1_2  and  C3_4 
REMARK    2  A    between atoms: C3_4  and  C4_5 
REMARK    3  A    between atoms: C4_5  and  C5_6 
REMARK    4  A    between atoms: C5_6  and  O1_7 
REMARK    5  A    between atoms: C5_6  and  C6_9 
REMARK    6  A    between atoms: C6_9  and  C7_10 
REMARK    7  A    between atoms: C7_10  and  C8_11 
REMARK    8  A    between atoms: C8_11  and  C9_12 
REMARK    9  A    between atoms: C9_12  and  C10_13 
REMARK   10  A    between atoms: C13_19  and  N3_20 
ROOT
HETATM    1  C3  UNL     1      13.726 -13.620  15.810  1.00  0.00     0.116 C 
HETATM    2  C11 UNL     1      12.964 -13.350  14.558  1.00  0.00     0.100 C 
HETATM    3  C12 UNL     1      11.504 -13.191  14.786  1.00  0.00     0.054 A 
HETATM    4  N2  UNL     1      10.650 -13.402  13.767  1.00  0.00    -0.194 N 
ATOM      5  H2  UNL     1      10.925 -13.675  12.823  1.00  0.00     0.184 HD
HETATM    6  C13 UNL     1       9.407 -13.204  14.164  1.00  0.00     0.676 A 
HETATM    7  N4  UNL     1       9.446 -12.865  15.443  1.00  0.00    -0.192 N 
ATOM      8  H4  UNL     1       8.637 -12.651  16.025  1.00  0.00     0.184 HD
HETATM    9  C14 UNL     1      10.752 -12.851  15.854  1.00  0.00     0.067 A 
HETATM   10  C15 UNL     1      11.179 -12.518  17.216  1.00  0.00     0.182 C 
HETATM   11  N5  UNL     1      12.433 -11.813  17.269  1.00  0.00    -0.353 N 
ATOM     12  H5  UNL     1      12.514 -10.846  17.583  1.00  0.00     0.162 HD
HETATM   13  C16 UNL     1      13.533 -12.575  16.850  1.00  0.00     0.246 C 
HETATM   14  O2  UNL     1      14.539 -12.333  17.466  1.00  0.00    -0.271 OA
ENDROOT
BRANCH   1  15
HETATM   15  N1  UNL     1      13.133 -14.807  16.406  1.00  0.00    -0.404 N 
HETATM   16  C1  UNL     1      13.643 -15.154  17.688  1.00  0.00     0.144 C 
HETATM   17  C2  UNL     1      12.959 -15.910  15.512  1.00  0.00     0.144 C 
ENDBRANCH   1  15
BRANCH   1  18
HETATM   18  C4  UNL     1      15.167 -13.835  15.490  1.00  0.00     0.073 C 
BRANCH  18  19
HETATM   19  C5  UNL     1      15.638 -13.709  14.117  1.00  0.00     0.121 C 
BRANCH  19  20
HETATM   20  O1  UNL     1      16.088 -14.855  13.472  1.00  0.00    -0.395 OA
ATOM     21  H1  UNL     1      15.456 -15.370  12.984  1.00  0.00     0.210 HD
ENDBRANCH  19  20
BRANCH  19  22
HETATM   22  C6  UNL     1      16.736 -12.680  13.952  1.00  0.00     0.032 C 
BRANCH  22  23
HETATM   23  C7  UNL     1      16.486 -11.471  14.762  1.00  0.00     0.002 C 
BRANCH  23  24
HETATM   24  C8  UNL     1      16.857 -10.193  14.024  1.00  0.00     0.001 C 
BRANCH  24  25
HETATM   25  C9  UNL     1      16.132 -10.112  12.735  1.00  0.00     0.011 C 
BRANCH  25  26
HETATM   26  C10 UNL     1      17.094  -9.699  11.625  1.00  0.00     0.085 C 
HETATM   27 BR1  UNL     1      16.760  -7.892  11.075  1.00  0.00    -0.097 Br
ENDBRANCH  25  26
ENDBRANCH  24  25
ENDBRANCH  23  24
ENDBRANCH  22  23
ENDBRANCH  19  22
ENDBRANCH  18  19
ENDBRANCH   1  18
BRANCH   6  28
HETATM   28  N3  UNL     1       8.332 -13.315  13.458  1.00  0.00    -0.234 N 
ATOM     29  H32 UNL     1       7.562 -13.954  13.657  1.00  0.00     0.174 HD
ATOM     30  H31 UNL     1       8.090 -12.795  12.614  1.00  0.00     0.174 HD
ENDBRANCH   6  28
TORSDOF 10
ENDMDL
