MODEL 1
REMARK VINA RESULT: -7.245071808      0.000      0.000
REMARK  16 active torsions:
REMARK  status: ('A' for Active; 'I' for Inactive)
REMARK    1  A    between atoms: N1_2  and  C2_5 
REMARK    2  A    between atoms: C2_5  and  C3_6 
REMARK    3  A    between atoms: C3_6  and  C4_7 
REMARK    4  A    between atoms: C4_7  and  C5_8 
REMARK    5  A    between atoms: C5_8  and  C6_9 
REMARK    6  A    between atoms: C6_9  and  N2_10 
REMARK       I    between atoms: N2_10  and  C7_12 
REMARK    7  A    between atoms: C7_12  and  C8_14 
REMARK    8  A    between atoms: C8_14  and  N3_15 
REMARK       I    between atoms: N3_15  and  C9_17 
REMARK    9  A    between atoms: C9_17  and  C10_19 
REMARK   10  A    between atoms: C10_19  and  N4_20 
REMARK   11  A    between atoms: C12_23  and  N5_24 
REMARK       I    between atoms: N5_24  and  C13_26 
REMARK   12  A    between atoms: C13_26  and  C14_28 
REMARK   13  A    between atoms: C14_28  and  N6_29 
REMARK   14  A    between atoms: N6_29  and  C15_32 
REMARK   15  A    between atoms: C15_32  and  C16_33 
REMARK       I    between atoms: N7_40  and  C23_41 
REMARK   16  A    between atoms: C23_41  and  C24_43 
ROOT
HETATM    1  N4  UNL     1      10.210 -15.086  13.566  1.00  0.00    -0.245 N 
HETATM    2  C11 UNL     1      10.668 -13.827  14.026  1.00  0.00     0.262 C 
HETATM    3  O3  UNL     1      11.760 -13.363  13.512  1.00  0.00    -0.269 OA
HETATM    4  C12 UNL     1       9.950 -13.064  15.046  1.00  0.00     0.188 C 
HETATM    5  C19 UNL     1       8.535 -13.475  15.189  1.00  0.00    -0.000 C 
HETATM    6  C20 UNL     1       8.417 -14.350  16.455  1.00  0.00     0.019 C 
HETATM    7  C21 UNL     1       7.626 -12.252  15.457  1.00  0.00     0.019 C 
HETATM    8  C22 UNL     1       7.967 -14.235  14.066  1.00  0.00     0.164 C 
HETATM    9  N7  UNL     1       8.815 -15.214  13.441  1.00  0.00    -0.252 N 
HETATM   10  C23 UNL     1       8.198 -16.296  12.729  1.00  0.00     0.262 C 
HETATM   11  O5  UNL     1       8.797 -17.238  12.190  1.00  0.00    -0.267 OA
ENDROOT
BRANCH   1  12
HETATM   12  C10 UNL     1      11.107 -16.151  13.285  1.00  0.00     0.255 C 
BRANCH  12  13
HETATM   13  C9  UNL     1      12.254 -16.228  14.194  1.00  0.00     0.237 C 
HETATM   14  N3  UNL     1      13.541 -15.797  13.822  1.00  0.00    -0.351 N 
ATOM     15  H3  UNL     1      13.685 -15.437  12.879  1.00  0.00     0.163 HD
HETATM   16  O2  UNL     1      12.122 -16.692  15.384  1.00  0.00    -0.272 OA
BRANCH  14  17
HETATM   17  C8  UNL     1      14.659 -15.845  14.723  1.00  0.00     0.225 C 
BRANCH  17  18
HETATM   18  C7  UNL     1      14.946 -14.479  15.270  1.00  0.00     0.235 C 
HETATM   19  N2  UNL     1      14.882 -13.381  14.328  1.00  0.00    -0.360 N 
ATOM     20  H2  UNL     1      14.645 -13.593  13.359  1.00  0.00     0.162 HD
HETATM   21  O1  UNL     1      15.215 -14.298  16.428  1.00  0.00    -0.272 OA
BRANCH  19  22
HETATM   22  C6  UNL     1      15.135 -11.992  14.684  1.00  0.00     0.122 C 
BRANCH  22  23
HETATM   23  C5  UNL     1      16.571 -11.679  14.605  1.00  0.00     0.020 C 
BRANCH  23  24
HETATM   24  C4  UNL     1      17.031 -10.373  14.117  1.00  0.00     0.003 C 
BRANCH  24  25
HETATM   25  C3  UNL     1      16.687  -9.926  12.765  1.00  0.00     0.027 C 
BRANCH  25  26
HETATM   26  C2  UNL     1      17.514 -10.309  11.591  1.00  0.00     0.231 C 
BRANCH  26  27
HETATM   27  N1  UNL     1      17.986  -9.033  11.003  1.00  0.00    -0.079 N 
HETATM   28  C1  UNL     1      16.996  -8.016  10.967  1.00  0.00     0.266 C 
ATOM     29  H12 UNL     1      18.376  -9.189  10.073  1.00  0.00     0.276 HD
ATOM     30  H11 UNL     1      18.822  -8.704  11.486  1.00  0.00     0.276 HD
ENDBRANCH  26  27
ENDBRANCH  25  26
ENDBRANCH  24  25
ENDBRANCH  23  24
ENDBRANCH  22  23
ENDBRANCH  19  22
ENDBRANCH  17  18
ENDBRANCH  14  17
ENDBRANCH  12  13
ENDBRANCH   1  12
BRANCH   4  31
HETATM   31  N5  UNL     1      10.700 -13.033  16.295  1.00  0.00    -0.345 N 
HETATM   32  C13 UNL     1      11.664 -12.129  16.720  1.00  0.00     0.244 C 
HETATM   33  O4  UNL     1      12.004 -11.156  16.036  1.00  0.00    -0.272 OA
ATOM     34  H5  UNL     1      10.487 -13.783  16.952  1.00  0.00     0.163 HD
BRANCH  32  35
HETATM   35  C14 UNL     1      12.323 -12.299  18.034  1.00  0.00     0.334 C 
BRANCH  35  36
HETATM   36  N6  UNL     1      13.742 -11.915  18.002  1.00  0.00    -0.067 N 
ATOM     37  H62 UNL     1      14.356 -12.681  17.723  1.00  0.00     0.277 HD
ATOM     38  H61 UNL     1      13.967 -11.280  17.236  1.00  0.00     0.277 HD
BRANCH  36  39
HETATM   39  C15 UNL     1      14.076 -11.361  19.325  1.00  0.00     0.237 C 
BRANCH  39  40
HETATM   40  C16 UNL     1      13.326 -12.085  20.385  1.00  0.00     0.011 A 
HETATM   41  C17 UNL     1      12.647 -11.340  21.529  1.00  0.00     0.007 A 
HETATM   42  C18 UNL     1      13.924 -12.023  21.770  1.00  0.00     0.007 A 
ENDBRANCH  39  40
ENDBRANCH  36  39
ENDBRANCH  35  36
ENDBRANCH  32  35
ENDBRANCH   4  31
BRANCH  10  43
HETATM   43  C24 UNL     1       6.737 -16.338  12.594  1.00  0.00     0.088 C 
HETATM   44  C25 UNL     1       6.139 -17.135  11.742  1.00  0.00     0.090 C 
HETATM   45 CL1  UNL     1       4.412 -17.160  11.611  1.00  0.00    -0.097 Cl
ENDBRANCH  10  43
TORSDOF 16
ENDMDL
MODEL 2
REMARK VINA RESULT: -7.239846978      3.618      8.253
REMARK  16 active torsions:
REMARK  status: ('A' for Active; 'I' for Inactive)
REMARK    1  A    between atoms: N1_2  and  C2_5 
REMARK    2  A    between atoms: C2_5  and  C3_6 
REMARK    3  A    between atoms: C3_6  and  C4_7 
REMARK    4  A    between atoms: C4_7  and  C5_8 
REMARK    5  A    between atoms: C5_8  and  C6_9 
REMARK    6  A    between atoms: C6_9  and  N2_10 
REMARK       I    between atoms: N2_10  and  C7_12 
REMARK    7  A    between atoms: C7_12  and  C8_14 
REMARK    8  A    between atoms: C8_14  and  N3_15 
REMARK       I    between atoms: N3_15  and  C9_17 
REMARK    9  A    between atoms: C9_17  and  C10_19 
REMARK   10  A    between atoms: C10_19  and  N4_20 
REMARK   11  A    between atoms: C12_23  and  N5_24 
REMARK       I    between atoms: N5_24  and  C13_26 
REMARK   12  A    between atoms: C13_26  and  C14_28 
REMARK   13  A    between atoms: C14_28  and  N6_29 
REMARK   14  A    between atoms: N6_29  and  C15_32 
REMARK   15  A    between atoms: C15_32  and  C16_33 
REMARK       I    between atoms: N7_40  and  C23_41 
REMARK   16  A    between atoms: C23_41  and  C24_43 
ROOT
HETATM    1  N4  UNL     1      14.713 -16.064  15.058  1.00  0.00    -0.245 N 
HETATM    2  C11 UNL     1      14.277 -16.871  13.978  1.00  0.00     0.262 C 
HETATM    3  O3  UNL     1      15.164 -17.240  13.112  1.00  0.00    -0.269 OA
HETATM    4  C12 UNL     1      12.882 -17.279  13.827  1.00  0.00     0.188 C 
HETATM    5  C19 UNL     1      12.110 -17.185  15.087  1.00  0.00    -0.000 C 
HETATM    6  C20 UNL     1      11.237 -15.915  15.019  1.00  0.00     0.019 C 
HETATM    7  C21 UNL     1      11.107 -18.358  15.212  1.00  0.00     0.019 C 
HETATM    8  C22 UNL     1      12.900 -17.120  16.325  1.00  0.00     0.164 C 
HETATM    9  N7  UNL     1      14.100 -16.327  16.296  1.00  0.00    -0.252 N 
HETATM   10  C23 UNL     1      14.610 -15.817  17.536  1.00  0.00     0.262 C 
HETATM   11  O5  UNL     1      15.597 -15.078  17.660  1.00  0.00    -0.267 OA
ENDROOT
BRANCH   1  12
HETATM   12  C10 UNL     1      15.681 -15.039  14.884  1.00  0.00     0.255 C 
BRANCH  12  13
HETATM   13  C9  UNL     1      15.119 -13.738  14.510  1.00  0.00     0.237 C 
HETATM   14  N3  UNL     1      13.899 -13.266  15.032  1.00  0.00    -0.351 N 
ATOM     15  H3  UNL     1      13.379 -13.859  15.677  1.00  0.00     0.163 HD
HETATM   16  O2  UNL     1      15.731 -12.967  13.686  1.00  0.00    -0.272 OA
BRANCH  14  17
HETATM   17  C8  UNL     1      13.363 -11.979  14.688  1.00  0.00     0.225 C 
BRANCH  17  18
HETATM   18  C7  UNL     1      12.110 -11.712  15.468  1.00  0.00     0.235 C 
HETATM   19  N2  UNL     1      10.867 -12.132  14.855  1.00  0.00    -0.360 N 
ATOM     20  H2  UNL     1      10.910 -12.582  13.941  1.00  0.00     0.162 HD
HETATM   21  O1  UNL     1      12.130 -11.179  16.545  1.00  0.00    -0.272 OA
BRANCH  19  22
HETATM   22  C6  UNL     1       9.559 -11.949  15.468  1.00  0.00     0.122 C 
BRANCH  22  23
HETATM   23  C5  UNL     1       9.303 -12.983  16.485  1.00  0.00     0.020 C 
BRANCH  23  24
HETATM   24  C4  UNL     1       8.088 -13.804  16.433  1.00  0.00     0.003 C 
BRANCH  24  25
HETATM   25  C3  UNL     1       7.966 -14.884  15.451  1.00  0.00     0.027 C 
BRANCH  25  26
HETATM   26  C2  UNL     1       7.609 -14.603  14.035  1.00  0.00     0.231 C 
BRANCH  26  27
HETATM   27  N1  UNL     1       7.038 -15.867  13.511  1.00  0.00    -0.079 N 
HETATM   28  C1  UNL     1       7.884 -16.995  13.683  1.00  0.00     0.266 C 
ATOM     29  H12 UNL     1       6.774 -15.762  12.531  1.00  0.00     0.276 HD
ATOM     30  H11 UNL     1       6.120 -16.041  13.918  1.00  0.00     0.276 HD
ENDBRANCH  26  27
ENDBRANCH  25  26
ENDBRANCH  24  25
ENDBRANCH  23  24
ENDBRANCH  22  23
ENDBRANCH  19  22
ENDBRANCH  17  18
ENDBRANCH  14  17
ENDBRANCH  12  13
ENDBRANCH   1  12
BRANCH   4  31
HETATM   31  N5  UNL     1      12.266 -16.609  12.689  1.00  0.00    -0.345 N 
HETATM   32  C13 UNL     1      11.759 -17.154  11.517  1.00  0.00     0.244 C 
HETATM   33  O4  UNL     1      11.754 -18.372  11.302  1.00  0.00    -0.272 OA
ATOM     34  H5  UNL     1      12.197 -15.595  12.763  1.00  0.00     0.163 HD
BRANCH  32  35
HETATM   35  C14 UNL     1      11.189 -16.277  10.469  1.00  0.00     0.334 C 
BRANCH  35  36
HETATM   36  N6  UNL     1      10.437 -15.146  11.034  1.00  0.00    -0.067 N 
ATOM     37  H62 UNL     1      10.489 -15.102  12.052  1.00  0.00     0.277 HD
ATOM     38  H61 UNL     1      10.869 -14.243  10.840  1.00  0.00     0.277 HD
BRANCH  36  39
HETATM   39  C15 UNL     1       9.056 -15.244  10.531  1.00  0.00     0.237 C 
BRANCH  39  40
HETATM   40  C16 UNL     1       8.387 -13.919  10.619  1.00  0.00     0.011 A 
HETATM   41  C17 UNL     1       6.932 -13.733  10.201  1.00  0.00     0.007 A 
HETATM   42  C18 UNL     1       8.003 -13.291   9.300  1.00  0.00     0.007 A 
ENDBRANCH  39  40
ENDBRANCH  36  39
ENDBRANCH  35  36
ENDBRANCH  32  35
ENDBRANCH   4  31
BRANCH  10  43
HETATM   43  C24 UNL     1      13.948 -16.176  18.797  1.00  0.00     0.088 C 
HETATM   44  C25 UNL     1      13.514 -15.269  19.638  1.00  0.00     0.090 C 
HETATM   45 CL1  UNL     1      12.736 -15.728  21.115  1.00  0.00    -0.097 Cl
ENDBRANCH  10  43
TORSDOF 16
ENDMDL
MODEL 3
REMARK VINA RESULT: -7.209263970      3.809      8.846
REMARK  16 active torsions:
REMARK  status: ('A' for Active; 'I' for Inactive)
REMARK    1  A    between atoms: N1_2  and  C2_5 
REMARK    2  A    between atoms: C2_5  and  C3_6 
REMARK    3  A    between atoms: C3_6  and  C4_7 
REMARK    4  A    between atoms: C4_7  and  C5_8 
REMARK    5  A    between atoms: C5_8  and  C6_9 
REMARK    6  A    between atoms: C6_9  and  N2_10 
REMARK       I    between atoms: N2_10  and  C7_12 
REMARK    7  A    between atoms: C7_12  and  C8_14 
REMARK    8  A    between atoms: C8_14  and  N3_15 
REMARK       I    between atoms: N3_15  and  C9_17 
REMARK    9  A    between atoms: C9_17  and  C10_19 
REMARK   10  A    between atoms: C10_19  and  N4_20 
REMARK   11  A    between atoms: C12_23  and  N5_24 
REMARK       I    between atoms: N5_24  and  C13_26 
REMARK   12  A    between atoms: C13_26  and  C14_28 
REMARK   13  A    between atoms: C14_28  and  N6_29 
REMARK   14  A    between atoms: N6_29  and  C15_32 
REMARK   15  A    between atoms: C15_32  and  C16_33 
REMARK       I    between atoms: N7_40  and  C23_41 
REMARK   16  A    between atoms: C23_41  and  C24_43 
ROOT
HETATM    1  N4  UNL     1      13.122 -12.563  16.160  1.00  0.00    -0.245 N 
HETATM    2  C11 UNL     1      13.790 -13.254  15.119  1.00  0.00     0.262 C 
HETATM    3  O3  UNL     1      13.760 -12.729  13.937  1.00  0.00    -0.269 OA
HETATM    4  C12 UNL     1      14.492 -14.515  15.349  1.00  0.00     0.188 C 
HETATM    5  C19 UNL     1      14.832 -14.739  16.772  1.00  0.00    -0.000 C 
HETATM    6  C20 UNL     1      13.826 -15.756  17.350  1.00  0.00     0.019 C 
HETATM    7  C21 UNL     1      16.217 -15.417  16.912  1.00  0.00     0.019 C 
HETATM    8  C22 UNL     1      14.812 -13.550  17.636  1.00  0.00     0.164 C 
HETATM    9  N7  UNL     1      13.758 -12.597  17.414  1.00  0.00    -0.252 N 
HETATM   10  C23 UNL     1      13.384 -11.730  18.494  1.00  0.00     0.262 C 
HETATM   11  O5  UNL     1      12.462 -10.901  18.468  1.00  0.00    -0.267 OA
ENDROOT
BRANCH   1  12
HETATM   12  C10 UNL     1      11.877 -11.913  15.948  1.00  0.00     0.255 C 
BRANCH  12  13
HETATM   13  C9  UNL     1      10.711 -12.795  16.060  1.00  0.00     0.237 C 
HETATM   14  N3  UNL     1       9.431 -12.412  15.617  1.00  0.00    -0.351 N 
ATOM     15  H3  UNL     1       9.306 -11.480  15.222  1.00  0.00     0.163 HD
HETATM   16  O2  UNL     1      10.819 -13.968  16.570  1.00  0.00    -0.272 OA
BRANCH  14  17
HETATM   17  C8  UNL     1       8.295 -13.287  15.701  1.00  0.00     0.225 C 
BRANCH  17  18
HETATM   18  C7  UNL     1       8.133 -14.054  14.423  1.00  0.00     0.235 C 
HETATM   19  N2  UNL     1       9.314 -14.721  13.917  1.00  0.00    -0.360 N 
ATOM     20  H2  UNL     1      10.179 -14.637  14.452  1.00  0.00     0.162 HD
HETATM   21  O1  UNL     1       7.081 -14.115  13.844  1.00  0.00    -0.272 OA
BRANCH  19  22
HETATM   22  C6  UNL     1       9.340 -15.506  12.691  1.00  0.00     0.122 C 
BRANCH  22  23
HETATM   23  C5  UNL     1      10.070 -14.798  11.626  1.00  0.00     0.020 C 
BRANCH  23  24
HETATM   24  C4  UNL     1       9.428 -14.509  10.338  1.00  0.00     0.003 C 
BRANCH  24  25
HETATM   25  C3  UNL     1       8.265 -13.621  10.274  1.00  0.00     0.027 C 
BRANCH  25  26
HETATM   26  C2  UNL     1       6.952 -14.102   9.769  1.00  0.00     0.231 C 
BRANCH  26  27
HETATM   27  N1  UNL     1       6.220 -14.587  10.963  1.00  0.00    -0.079 N 
HETATM   28  C1  UNL     1       6.099 -16.001  11.029  1.00  0.00     0.266 C 
ATOM     29  H12 UNL     1       5.302 -14.145  11.025  1.00  0.00     0.276 HD
ATOM     30  H11 UNL     1       6.643 -14.222  11.815  1.00  0.00     0.276 HD
ENDBRANCH  26  27
ENDBRANCH  25  26
ENDBRANCH  24  25
ENDBRANCH  23  24
ENDBRANCH  22  23
ENDBRANCH  19  22
ENDBRANCH  17  18
ENDBRANCH  14  17
ENDBRANCH  12  13
ENDBRANCH   1  12
BRANCH   4  31
HETATM   31  N5  UNL     1      13.791 -15.623  14.713  1.00  0.00    -0.345 N 
HETATM   32  C13 UNL     1      14.302 -16.675  13.966  1.00  0.00     0.244 C 
HETATM   33  O4  UNL     1      15.514 -16.812  13.759  1.00  0.00    -0.272 OA
ATOM     34  H5  UNL     1      12.778 -15.625  14.833  1.00  0.00     0.163 HD
BRANCH  32  35
HETATM   35  C14 UNL     1      13.396 -17.692  13.387  1.00  0.00     0.334 C 
BRANCH  35  36
HETATM   36  N6  UNL     1      12.670 -17.190  12.210  1.00  0.00    -0.067 N 
ATOM     37  H62 UNL     1      11.771 -16.769  12.446  1.00  0.00     0.277 HD
ATOM     38  H61 UNL     1      13.101 -16.361  11.800  1.00  0.00     0.277 HD
BRANCH  36  39
HETATM   39  C15 UNL     1      12.551 -18.308  11.259  1.00  0.00     0.237 C 
BRANCH  39  40
HETATM   40  C16 UNL     1      11.118 -18.595  10.986  1.00  0.00     0.011 A 
HETATM   41  C17 UNL     1      10.690 -19.449   9.797  1.00  0.00     0.007 A 
HETATM   42  C18 UNL     1      10.558 -17.989   9.721  1.00  0.00     0.007 A 
ENDBRANCH  39  40
ENDBRANCH  36  39
ENDBRANCH  35  36
ENDBRANCH  32  35
ENDBRANCH   4  31
BRANCH  10  43
HETATM   43  C24 UNL     1      14.126 -11.783  19.760  1.00  0.00     0.088 C 
HETATM   44  C25 UNL     1      13.547 -11.579  20.917  1.00  0.00     0.090 C 
HETATM   45 CL1  UNL     1      14.453 -11.652  22.390  1.00  0.00    -0.097 Cl
ENDBRANCH  10  43
TORSDOF 16
ENDMDL
MODEL 4
REMARK VINA RESULT: -7.174132574      3.846      7.922
REMARK  16 active torsions:
REMARK  status: ('A' for Active; 'I' for Inactive)
REMARK    1  A    between atoms: N1_2  and  C2_5 
REMARK    2  A    between atoms: C2_5  and  C3_6 
REMARK    3  A    between atoms: C3_6  and  C4_7 
REMARK    4  A    between atoms: C4_7  and  C5_8 
REMARK    5  A    between atoms: C5_8  and  C6_9 
REMARK    6  A    between atoms: C6_9  and  N2_10 
REMARK       I    between atoms: N2_10  and  C7_12 
REMARK    7  A    between atoms: C7_12  and  C8_14 
REMARK    8  A    between atoms: C8_14  and  N3_15 
REMARK       I    between atoms: N3_15  and  C9_17 
REMARK    9  A    between atoms: C9_17  and  C10_19 
REMARK   10  A    between atoms: C10_19  and  N4_20 
REMARK   11  A    between atoms: C12_23  and  N5_24 
REMARK       I    between atoms: N5_24  and  C13_26 
REMARK   12  A    between atoms: C13_26  and  C14_28 
REMARK   13  A    between atoms: C14_28  and  N6_29 
REMARK   14  A    between atoms: N6_29  and  C15_32 
REMARK   15  A    between atoms: C15_32  and  C16_33 
REMARK       I    between atoms: N7_40  and  C23_41 
REMARK   16  A    between atoms: C23_41  and  C24_43 
ROOT
HETATM    1  N4  UNL     1      14.759 -13.925  15.324  1.00  0.00    -0.245 N 
HETATM    2  C11 UNL     1      13.650 -13.745  14.460  1.00  0.00     0.262 C 
HETATM    3  O3  UNL     1      13.509 -12.588  13.900  1.00  0.00    -0.269 OA
HETATM    4  C12 UNL     1      12.688 -14.814  14.199  1.00  0.00     0.188 C 
HETATM    5  C19 UNL     1      13.215 -16.161  14.514  1.00  0.00    -0.000 C 
HETATM    6  C20 UNL     1      12.610 -16.608  15.861  1.00  0.00     0.019 C 
HETATM    7  C21 UNL     1      12.723 -17.205  13.483  1.00  0.00     0.019 C 
HETATM    8  C22 UNL     1      14.677 -16.272  14.622  1.00  0.00     0.164 C 
HETATM    9  N7  UNL     1      15.372 -15.190  15.267  1.00  0.00    -0.252 N 
HETATM   10  C23 UNL     1      16.658 -15.453  15.846  1.00  0.00     0.262 C 
HETATM   11  O5  UNL     1      17.344 -14.637  16.478  1.00  0.00    -0.267 OA
ENDROOT
BRANCH   1  12
HETATM   12  C10 UNL     1      15.193 -12.901  16.207  1.00  0.00     0.255 C 
BRANCH  12  13
HETATM   13  C9  UNL     1      14.474 -12.865  17.484  1.00  0.00     0.237 C 
HETATM   14  N3  UNL     1      13.781 -11.722  17.927  1.00  0.00    -0.351 N 
ATOM     15  H3  UNL     1      13.797 -10.883  17.348  1.00  0.00     0.163 HD
HETATM   16  O2  UNL     1      14.446 -13.892  18.254  1.00  0.00    -0.272 OA
BRANCH  14  17
HETATM   17  C8  UNL     1      13.054 -11.696  19.166  1.00  0.00     0.225 C 
BRANCH  17  18
HETATM   18  C7  UNL     1      13.894 -11.089  20.250  1.00  0.00     0.235 C 
HETATM   19  N2  UNL     1      14.060 -11.876  21.454  1.00  0.00    -0.360 N 
ATOM     20  H2  UNL     1      13.606 -12.789  21.498  1.00  0.00     0.162 HD
HETATM   21  O1  UNL     1      14.405 -10.007  20.131  1.00  0.00    -0.272 OA
BRANCH  19  22
HETATM   22  C6  UNL     1      14.838 -11.441  22.605  1.00  0.00     0.122 C 
BRANCH  22  23
HETATM   23  C5  UNL     1      14.991 -12.533  23.582  1.00  0.00     0.020 C 
BRANCH  23  24
HETATM   24  C4  UNL     1      16.137 -12.568  24.497  1.00  0.00     0.003 C 
BRANCH  24  25
HETATM   25  C3  UNL     1      17.368 -11.845  24.168  1.00  0.00     0.027 C 
BRANCH  25  26
HETATM   26  C2  UNL     1      18.613 -12.568  23.796  1.00  0.00     0.231 C 
BRANCH  26  27
HETATM   27  N1  UNL     1      19.655 -11.523  23.660  1.00  0.00    -0.079 N 
HETATM   28  C1  UNL     1      20.221 -11.112  24.897  1.00  0.00     0.266 C 
ATOM     29  H12 UNL     1      19.293 -10.719  23.146  1.00  0.00     0.276 HD
ATOM     30  H11 UNL     1      20.384 -11.825  23.015  1.00  0.00     0.276 HD
ENDBRANCH  26  27
ENDBRANCH  25  26
ENDBRANCH  24  25
ENDBRANCH  23  24
ENDBRANCH  22  23
ENDBRANCH  19  22
ENDBRANCH  17  18
ENDBRANCH  14  17
ENDBRANCH  12  13
ENDBRANCH   1  12
BRANCH   4  31
HETATM   31  N5  UNL     1      11.399 -14.511  14.807  1.00  0.00    -0.345 N 
HETATM   32  C13 UNL     1      10.176 -14.258  14.199  1.00  0.00     0.244 C 
HETATM   33  O4  UNL     1      10.031 -14.284  12.971  1.00  0.00    -0.272 OA
ATOM     34  H5  UNL     1      11.393 -14.482  15.826  1.00  0.00     0.163 HD
BRANCH  32  35
HETATM   35  C14 UNL     1       8.983 -13.948  15.017  1.00  0.00     0.334 C 
BRANCH  35  36
HETATM   36  N6  UNL     1       8.945 -12.540  15.441  1.00  0.00    -0.067 N 
ATOM     37  H62 UNL     1       9.813 -12.232  15.881  1.00  0.00     0.277 HD
ATOM     38  H61 UNL     1       8.956 -11.887  14.657  1.00  0.00     0.277 HD
BRANCH  36  39
HETATM   39  C15 UNL     1       7.768 -12.376  16.310  1.00  0.00     0.237 C 
BRANCH  39  40
HETATM   40  C16 UNL     1       8.008 -13.033  17.622  1.00  0.00     0.011 A 
HETATM   41  C17 UNL     1       7.879 -12.264  18.933  1.00  0.00     0.007 A 
HETATM   42  C18 UNL     1       9.213 -12.544  18.390  1.00  0.00     0.007 A 
ENDBRANCH  39  40
ENDBRANCH  36  39
ENDBRANCH  35  36
ENDBRANCH  32  35
ENDBRANCH   4  31
BRANCH  10  43
HETATM   43  C24 UNL     1      17.261 -16.784  15.703  1.00  0.00     0.088 C 
HETATM   44  C25 UNL     1      17.496 -17.557  16.734  1.00  0.00     0.090 C 
HETATM   45 CL1  UNL     1      18.207 -19.123  16.528  1.00  0.00    -0.097 Cl
ENDBRANCH  10  43
TORSDOF 16
ENDMDL
MODEL 5
REMARK VINA RESULT: -7.065986099      3.717      8.421
REMARK  16 active torsions:
REMARK  status: ('A' for Active; 'I' for Inactive)
REMARK    1  A    between atoms: N1_2  and  C2_5 
REMARK    2  A    between atoms: C2_5  and  C3_6 
REMARK    3  A    between atoms: C3_6  and  C4_7 
REMARK    4  A    between atoms: C4_7  and  C5_8 
REMARK    5  A    between atoms: C5_8  and  C6_9 
REMARK    6  A    between atoms: C6_9  and  N2_10 
REMARK       I    between atoms: N2_10  and  C7_12 
REMARK    7  A    between atoms: C7_12  and  C8_14 
REMARK    8  A    between atoms: C8_14  and  N3_15 
REMARK       I    between atoms: N3_15  and  C9_17 
REMARK    9  A    between atoms: C9_17  and  C10_19 
REMARK   10  A    between atoms: C10_19  and  N4_20 
REMARK   11  A    between atoms: C12_23  and  N5_24 
REMARK       I    between atoms: N5_24  and  C13_26 
REMARK   12  A    between atoms: C13_26  and  C14_28 
REMARK   13  A    between atoms: C14_28  and  N6_29 
REMARK   14  A    between atoms: N6_29  and  C15_32 
REMARK   15  A    between atoms: C15_32  and  C16_33 
REMARK       I    between atoms: N7_40  and  C23_41 
REMARK   16  A    between atoms: C23_41  and  C24_43 
ROOT
HETATM    1  N4  UNL     1      15.364 -13.362  17.125  1.00  0.00    -0.245 N 
HETATM    2  C11 UNL     1      15.784 -14.639  16.679  1.00  0.00     0.262 C 
HETATM    3  O3  UNL     1      16.948 -14.726  16.122  1.00  0.00    -0.269 OA
HETATM    4  C12 UNL     1      14.947 -15.828  16.829  1.00  0.00     0.188 C 
HETATM    5  C19 UNL     1      13.898 -15.674  17.862  1.00  0.00    -0.000 C 
HETATM    6  C20 UNL     1      12.556 -15.416  17.145  1.00  0.00     0.019 C 
HETATM    7  C21 UNL     1      13.691 -16.993  18.645  1.00  0.00     0.019 C 
HETATM    8  C22 UNL     1      14.102 -14.588  18.832  1.00  0.00     0.164 C 
HETATM    9  N7  UNL     1      14.635 -13.351  18.329  1.00  0.00    -0.252 N 
HETATM   10  C23 UNL     1      14.382 -12.148  19.069  1.00  0.00     0.262 C 
HETATM   11  O5  UNL     1      14.729 -11.007  18.731  1.00  0.00    -0.267 OA
ENDROOT
BRANCH   1  12
HETATM   12  C10 UNL     1      15.637 -12.182  16.383  1.00  0.00     0.255 C 
BRANCH  12  13
HETATM   13  C9  UNL     1      14.592 -11.822  15.420  1.00  0.00     0.237 C 
HETATM   14  N3  UNL     1      13.238 -12.155  15.617  1.00  0.00    -0.351 N 
ATOM     15  H3  UNL     1      12.979 -12.684  16.450  1.00  0.00     0.163 HD
HETATM   16  O2  UNL     1      14.877 -11.174  14.350  1.00  0.00    -0.272 OA
BRANCH  14  17
HETATM   17  C8  UNL     1      12.210 -11.777  14.688  1.00  0.00     0.225 C 
BRANCH  17  18
HETATM   18  C7  UNL     1      11.456 -12.989  14.225  1.00  0.00     0.235 C 
HETATM   19  N2  UNL     1      10.015 -12.943  14.365  1.00  0.00    -0.360 N 
ATOM     20  H2  UNL     1       9.597 -12.102  14.762  1.00  0.00     0.162 HD
HETATM   21  O1  UNL     1      12.012 -13.948  13.763  1.00  0.00    -0.272 OA
BRANCH  19  22
HETATM   22  C6  UNL     1       9.129 -14.029  13.972  1.00  0.00     0.122 C 
BRANCH  22  23
HETATM   23  C5  UNL     1       7.894 -14.020  14.774  1.00  0.00     0.020 C 
BRANCH  23  24
HETATM   24  C4  UNL     1       7.698 -13.030  15.840  1.00  0.00     0.003 C 
BRANCH  24  25
HETATM   25  C3  UNL     1       8.056 -13.353  17.223  1.00  0.00     0.027 C 
BRANCH  25  26
HETATM   26  C2  UNL     1       7.983 -12.329  18.299  1.00  0.00     0.231 C 
BRANCH  26  27
HETATM   27  N1  UNL     1       9.286 -12.396  19.001  1.00  0.00    -0.079 N 
HETATM   28  C1  UNL     1      10.399 -12.563  18.134  1.00  0.00     0.266 C 
ATOM     29  H12 UNL     1       9.273 -13.126  19.714  1.00  0.00     0.276 HD
ATOM     30  H11 UNL     1       9.415 -11.578  19.597  1.00  0.00     0.276 HD
ENDBRANCH  26  27
ENDBRANCH  25  26
ENDBRANCH  24  25
ENDBRANCH  23  24
ENDBRANCH  22  23
ENDBRANCH  19  22
ENDBRANCH  17  18
ENDBRANCH  14  17
ENDBRANCH  12  13
ENDBRANCH   1  12
BRANCH   4  31
HETATM   31  N5  UNL     1      14.459 -16.286  15.535  1.00  0.00    -0.345 N 
HETATM   32  C13 UNL     1      14.979 -17.260  14.693  1.00  0.00     0.244 C 
HETATM   33  O4  UNL     1      15.986 -17.916  14.984  1.00  0.00    -0.272 OA
ATOM     34  H5  UNL     1      13.614 -15.825  15.198  1.00  0.00     0.163 HD
BRANCH  32  35
HETATM   35  C14 UNL     1      14.328 -17.555  13.397  1.00  0.00     0.334 C 
BRANCH  35  36
HETATM   36  N6  UNL     1      13.185 -16.668  13.130  1.00  0.00    -0.067 N 
ATOM     37  H62 UNL     1      12.880 -16.152  13.956  1.00  0.00     0.277 HD
ATOM     38  H61 UNL     1      13.431 -15.863  12.555  1.00  0.00     0.277 HD
BRANCH  36  39
HETATM   39  C15 UNL     1      12.118 -17.494  12.540  1.00  0.00     0.237 C 
BRANCH  39  40
HETATM   40  C16 UNL     1      11.309 -18.126  13.615  1.00  0.00     0.011 A 
HETATM   41  C17 UNL     1       9.829 -17.799  13.793  1.00  0.00     0.007 A 
HETATM   42  C18 UNL     1      10.815 -17.195  14.697  1.00  0.00     0.007 A 
ENDBRANCH  39  40
ENDBRANCH  36  39
ENDBRANCH  35  36
ENDBRANCH  32  35
ENDBRANCH   4  31
BRANCH  10  43
HETATM   43  C24 UNL     1      13.659 -12.218  20.345  1.00  0.00     0.088 C 
HETATM   44  C25 UNL     1      14.051 -11.555  21.405  1.00  0.00     0.090 C 
HETATM   45 CL1  UNL     1      13.172 -11.659  22.893  1.00  0.00    -0.097 Cl
ENDBRANCH  10  43
TORSDOF 16
ENDMDL
