MODEL 1
REMARK VINA RESULT: -7.697252049      0.000      0.000
REMARK  16 active torsions:
REMARK  status: ('A' for Active; 'I' for Inactive)
REMARK    1  A    between atoms: C2_2  and  C3_3 
REMARK    2  A    between atoms: C3_3  and  N1_4 
REMARK       I    between atoms: N1_4  and  C4_6 
REMARK    3  A    between atoms: C4_6  and  C5_8 
REMARK       I    between atoms: N2_13  and  C9_14 
REMARK    4  A    between atoms: C9_14  and  C10_16 
REMARK    5  A    between atoms: C10_16  and  C11_17 
REMARK    6  A    between atoms: C10_16  and  N3_19 
REMARK    7  A    between atoms: N3_19  and  S1_21 
REMARK    8  A    between atoms: S1_21  and  N4_24 
REMARK    9  A    between atoms: N4_24  and  C13_25 
REMARK   10  A    between atoms: N4_24  and  C17_29 
REMARK   11  A    between atoms: C13_25  and  C14_26 
REMARK   12  A    between atoms: C17_29  and  C18_30 
REMARK   13  A    between atoms: C17_29  and  C22_40 
REMARK   14  A    between atoms: C18_30  and  C19_31 
REMARK   15  A    between atoms: C19_31  and  C20_32 
REMARK   16  A    between atoms: C20_32  and  N5_33 
REMARK       I    between atoms: N5_33  and  C21_35 
ROOT
HETATM    1  S1  UNL     1      12.180 -12.171  17.007  1.00  0.00     0.322 S 
HETATM    2  O3  UNL     1      12.130 -11.138  18.194  1.00  0.00    -0.182 OA
HETATM    3  O4  UNL     1      12.175 -11.229  15.805  1.00  0.00    -0.182 OA
ENDROOT
BRANCH   1   4
HETATM    4  N3  UNL     1      10.678 -12.978  16.988  1.00  0.00    -0.289 N 
ATOM      5  H3  UNL     1      10.310 -13.520  17.771  1.00  0.00     0.174 HD
BRANCH   4   6
HETATM    6  C10 UNL     1       9.985 -12.800  15.724  1.00  0.00     0.186 C 
BRANCH   6   7
HETATM    7  C9  UNL     1       9.763 -13.978  14.897  1.00  0.00     0.247 C 
HETATM    8  N2  UNL     1      10.631 -14.531  13.974  1.00  0.00    -0.312 N 
HETATM    9  C5  UNL     1      10.577 -15.503  12.950  1.00  0.00     0.085 C 
HETATM   10  C8  UNL     1      12.105 -14.400  14.067  1.00  0.00     0.169 C 
HETATM   11  C6  UNL     1      11.251 -16.663  13.676  1.00  0.00     0.102 C 
HETATM   12  C7  UNL     1      12.408 -15.893  14.353  1.00  0.00     0.194 C 
HETATM   13  F1  UNL     1      13.626 -16.267  13.885  1.00  0.00    -0.247 F 
HETATM   14  O2  UNL     1       8.652 -14.615  14.996  1.00  0.00    -0.271 OA
BRANCH   9  15
HETATM   15  C4  UNL     1       9.517 -15.770  12.054  1.00  0.00     0.264 C 
HETATM   16  N1  UNL     1       8.453 -14.878  11.860  1.00  0.00    -0.353 N 
ATOM     17  H1  UNL     1       8.437 -14.031  12.428  1.00  0.00     0.163 HD
HETATM   18  O1  UNL     1       9.492 -16.842  11.356  1.00  0.00    -0.266 OA
BRANCH  16  19
HETATM   19  C3  UNL     1       7.382 -15.070  10.919  1.00  0.00     0.149 C 
BRANCH  19  20
HETATM   20  C2  UNL     1       7.076 -13.829  10.178  1.00  0.00    -0.018 C 
HETATM   21  C1  UNL     1       7.972 -13.126   9.461  1.00  0.00     0.008 C 
ENDBRANCH  19  20
ENDBRANCH  16  19
ENDBRANCH   9  15
ENDBRANCH   6   7
BRANCH   6  22
HETATM   22  C11 UNL     1       8.523 -12.408  16.269  1.00  0.00     0.031 C 
HETATM   23  C12 UNL     1       8.483 -12.686  17.735  1.00  0.00     0.007 C 
ENDBRANCH   6  22
ENDBRANCH   4   6
ENDBRANCH   1   4
BRANCH   1  24
HETATM   24  N4  UNL     1      13.608 -13.020  17.134  1.00  0.00    -0.258 N 
BRANCH  24  25
HETATM   25  C13 UNL     1      13.835 -13.708  18.333  1.00  0.00     0.082 C 
BRANCH  25  26
HETATM   26  C14 UNL     1      13.079 -14.907  18.774  1.00  0.00     0.017 C 
HETATM   27  C15 UNL     1      13.228 -15.366  20.197  1.00  0.00     0.015 C 
HETATM   28  C16 UNL     1      13.346 -16.141  17.885  1.00  0.00     0.015 C 
ENDBRANCH  25  26
ENDBRANCH  24  25
BRANCH  24  29
HETATM   29  C17 UNL     1      14.705 -12.823  16.304  1.00  0.00     0.203 C 
BRANCH  29  30
HETATM   30  C18 UNL     1      15.785 -13.924  16.300  1.00  0.00     0.039 C 
BRANCH  30  31
HETATM   31  C19 UNL     1      16.070 -14.348  14.894  1.00  0.00     0.022 C 
BRANCH  31  32
HETATM   32  C20 UNL     1      17.111 -13.538  14.206  1.00  0.00     0.122 C 
BRANCH  32  33
HETATM   33  N5  UNL     1      16.583 -12.624  13.228  1.00  0.00    -0.365 N 
HETATM   34  C21 UNL     1      17.538 -11.730  12.607  1.00  0.00     0.181 C 
HETATM   35  N6  UNL     1      18.573 -12.315  12.147  1.00  0.00    -0.374 N 
HETATM   36  N7  UNL     1      17.311 -10.349  12.576  1.00  0.00    -0.064 NA
ATOM     37  H62 UNL     1      18.737 -13.321  12.170  1.00  0.00     0.158 HD
ATOM     38  H61 UNL     1      19.245 -11.685  11.710  1.00  0.00     0.158 HD
ATOM     39  H5  UNL     1      15.593 -12.607  12.986  1.00  0.00     0.162 HD
ENDBRANCH  32  33
ENDBRANCH  31  32
ENDBRANCH  30  31
ENDBRANCH  29  30
BRANCH  29  40
HETATM   40  C22 UNL     1      15.401 -11.508  16.599  1.00  0.00     0.198 C 
HETATM   41  O5  UNL     1      15.912 -10.803  15.714  1.00  0.00    -0.646 OA
HETATM   42  O6  UNL     1      15.462 -11.094  17.911  1.00  0.00    -0.646 OA
ENDBRANCH  29  40
ENDBRANCH  24  29
ENDBRANCH   1  24
TORSDOF 16
ENDMDL
MODEL 2
REMARK VINA RESULT: -7.438499695      2.274      8.163
REMARK  16 active torsions:
REMARK  status: ('A' for Active; 'I' for Inactive)
REMARK    1  A    between atoms: C2_2  and  C3_3 
REMARK    2  A    between atoms: C3_3  and  N1_4 
REMARK       I    between atoms: N1_4  and  C4_6 
REMARK    3  A    between atoms: C4_6  and  C5_8 
REMARK       I    between atoms: N2_13  and  C9_14 
REMARK    4  A    between atoms: C9_14  and  C10_16 
REMARK    5  A    between atoms: C10_16  and  C11_17 
REMARK    6  A    between atoms: C10_16  and  N3_19 
REMARK    7  A    between atoms: N3_19  and  S1_21 
REMARK    8  A    between atoms: S1_21  and  N4_24 
REMARK    9  A    between atoms: N4_24  and  C13_25 
REMARK   10  A    between atoms: N4_24  and  C17_29 
REMARK   11  A    between atoms: C13_25  and  C14_26 
REMARK   12  A    between atoms: C17_29  and  C18_30 
REMARK   13  A    between atoms: C17_29  and  C22_40 
REMARK   14  A    between atoms: C18_30  and  C19_31 
REMARK   15  A    between atoms: C19_31  and  C20_32 
REMARK   16  A    between atoms: C20_32  and  N5_33 
REMARK       I    between atoms: N5_33  and  C21_35 
ROOT
HETATM    1  S1  UNL     1      10.561 -15.358  13.495  1.00  0.00     0.322 S 
HETATM    2  O3  UNL     1      10.971 -16.305  14.684  1.00  0.00    -0.182 OA
HETATM    3  O4  UNL     1      11.510 -15.840  12.401  1.00  0.00    -0.182 OA
ENDROOT
BRANCH   1   4
HETATM    4  N3  UNL     1      11.073 -13.786  13.914  1.00  0.00    -0.289 N 
ATOM      5  H3  UNL     1      10.799 -12.942  13.411  1.00  0.00     0.174 HD
BRANCH   4   6
HETATM    6  C10 UNL     1      11.946 -13.795  15.076  1.00  0.00     0.186 C 
BRANCH   6   7
HETATM    7  C9  UNL     1      13.338 -13.413  14.884  1.00  0.00     0.247 C 
HETATM    8  N2  UNL     1      14.347 -13.420  15.829  1.00  0.00    -0.312 N 
HETATM    9  C5  UNL     1      15.668 -12.929  15.943  1.00  0.00     0.085 C 
HETATM   10  C8  UNL     1      14.357 -14.332  16.998  1.00  0.00     0.169 C 
HETATM   11  C6  UNL     1      16.434 -14.227  15.702  1.00  0.00     0.102 C 
HETATM   12  C7  UNL     1      15.576 -15.183  16.562  1.00  0.00     0.194 C 
HETATM   13  F1  UNL     1      16.259 -15.682  17.624  1.00  0.00    -0.247 F 
HETATM   14  O2  UNL     1      13.728 -13.016  13.727  1.00  0.00    -0.271 OA
BRANCH   9  15
HETATM   15  C4  UNL     1      16.193 -11.714  15.449  1.00  0.00     0.264 C 
HETATM   16  N1  UNL     1      16.794 -11.611  14.186  1.00  0.00    -0.353 N 
ATOM     17  H1  UNL     1      16.887 -12.466  13.636  1.00  0.00     0.163 HD
HETATM   18  O1  UNL     1      16.123 -10.635  16.133  1.00  0.00    -0.266 OA
BRANCH  16  19
HETATM   19  C3  UNL     1      17.289 -10.390  13.610  1.00  0.00     0.149 C 
BRANCH  19  20
HETATM   20  C2  UNL     1      17.125 -10.373  12.141  1.00  0.00    -0.018 C 
HETATM   21  C1  UNL     1      17.202  -9.267  11.378  1.00  0.00     0.008 C 
ENDBRANCH  19  20
ENDBRANCH  16  19
ENDBRANCH   9  15
ENDBRANCH   6   7
BRANCH   6  22
HETATM   22  C11 UNL     1      11.303 -12.577  15.906  1.00  0.00     0.031 C 
HETATM   23  C12 UNL     1      10.773 -11.577  14.931  1.00  0.00     0.007 C 
ENDBRANCH   6  22
ENDBRANCH   4   6
ENDBRANCH   1   4
BRANCH   1  24
HETATM   24  N4  UNL     1       8.967 -15.670  13.125  1.00  0.00    -0.258 N 
BRANCH  24  25
HETATM   25  C13 UNL     1       8.569 -15.464  11.797  1.00  0.00     0.082 C 
BRANCH  25  26
HETATM   26  C14 UNL     1       7.821 -14.276  11.315  1.00  0.00     0.017 C 
HETATM   27  C15 UNL     1       6.339 -14.401  11.100  1.00  0.00     0.015 C 
HETATM   28  C16 UNL     1       8.406 -13.690  10.012  1.00  0.00     0.015 C 
ENDBRANCH  25  26
ENDBRANCH  24  25
BRANCH  24  29
HETATM   29  C17 UNL     1       7.958 -15.785  14.073  1.00  0.00     0.203 C 
BRANCH  29  30
HETATM   30  C18 UNL     1       8.117 -14.962  15.368  1.00  0.00     0.039 C 
BRANCH  30  31
HETATM   31  C19 UNL     1       7.700 -13.546  15.121  1.00  0.00     0.022 C 
BRANCH  31  32
HETATM   32  C20 UNL     1       7.650 -12.698  16.342  1.00  0.00     0.122 C 
BRANCH  32  33
HETATM   33  N5  UNL     1       8.267 -13.300  17.494  1.00  0.00    -0.365 N 
HETATM   34  C21 UNL     1       8.481 -12.433  18.632  1.00  0.00     0.181 C 
HETATM   35  N6  UNL     1       7.449 -11.774  18.983  1.00  0.00    -0.374 N 
HETATM   36  N7  UNL     1       9.741 -12.337  19.234  1.00  0.00    -0.064 NA
ATOM     37  H62 UNL     1       6.530 -11.843  18.545  1.00  0.00     0.158 HD
ATOM     38  H61 UNL     1       7.599 -11.162  19.786  1.00  0.00     0.158 HD
ATOM     39  H5  UNL     1       8.538 -14.283  17.507  1.00  0.00     0.162 HD
ENDBRANCH  32  33
ENDBRANCH  31  32
ENDBRANCH  30  31
ENDBRANCH  29  30
BRANCH  29  40
HETATM   40  C22 UNL     1       7.735 -17.230  14.480  1.00  0.00     0.198 C 
HETATM   41  O5  UNL     1       8.438 -18.164  14.063  1.00  0.00    -0.646 OA
HETATM   42  O6  UNL     1       6.699 -17.500  15.347  1.00  0.00    -0.646 OA
ENDBRANCH  29  40
ENDBRANCH  24  29
ENDBRANCH   1  24
TORSDOF 16
ENDMDL
MODEL 3
REMARK VINA RESULT: -7.406634870      2.761      5.427
REMARK  16 active torsions:
REMARK  status: ('A' for Active; 'I' for Inactive)
REMARK    1  A    between atoms: C2_2  and  C3_3 
REMARK    2  A    between atoms: C3_3  and  N1_4 
REMARK       I    between atoms: N1_4  and  C4_6 
REMARK    3  A    between atoms: C4_6  and  C5_8 
REMARK       I    between atoms: N2_13  and  C9_14 
REMARK    4  A    between atoms: C9_14  and  C10_16 
REMARK    5  A    between atoms: C10_16  and  C11_17 
REMARK    6  A    between atoms: C10_16  and  N3_19 
REMARK    7  A    between atoms: N3_19  and  S1_21 
REMARK    8  A    between atoms: S1_21  and  N4_24 
REMARK    9  A    between atoms: N4_24  and  C13_25 
REMARK   10  A    between atoms: N4_24  and  C17_29 
REMARK   11  A    between atoms: C13_25  and  C14_26 
REMARK   12  A    between atoms: C17_29  and  C18_30 
REMARK   13  A    between atoms: C17_29  and  C22_40 
REMARK   14  A    between atoms: C18_30  and  C19_31 
REMARK   15  A    between atoms: C19_31  and  C20_32 
REMARK   16  A    between atoms: C20_32  and  N5_33 
REMARK       I    between atoms: N5_33  and  C21_35 
ROOT
HETATM    1  S1  UNL     1      13.976 -14.298  15.054  1.00  0.00     0.322 S 
HETATM    2  O3  UNL     1      15.249 -15.017  14.471  1.00  0.00    -0.182 OA
HETATM    3  O4  UNL     1      13.476 -15.350  16.040  1.00  0.00    -0.182 OA
ENDROOT
BRANCH   1   4
HETATM    4  N3  UNL     1      12.824 -14.233  13.798  1.00  0.00    -0.289 N 
ATOM      5  H3  UNL     1      12.953 -13.711  12.931  1.00  0.00     0.174 HD
BRANCH   4   6
HETATM    6  C10 UNL     1      11.639 -15.012  14.112  1.00  0.00     0.186 C 
BRANCH   6   7
HETATM    7  C9  UNL     1      10.345 -14.474  13.715  1.00  0.00     0.247 C 
HETATM    8  N2  UNL     1       9.133 -14.644  14.358  1.00  0.00    -0.312 N 
HETATM    9  C5  UNL     1       7.768 -14.407  14.081  1.00  0.00     0.085 C 
HETATM   10  C8  UNL     1       9.016 -14.891  15.815  1.00  0.00     0.169 C 
HETATM   11  C6  UNL     1       7.567 -13.138  14.904  1.00  0.00     0.102 C 
HETATM   12  C7  UNL     1       8.340 -13.546  16.179  1.00  0.00     0.194 C 
HETATM   13  F1  UNL     1       7.531 -13.656  17.265  1.00  0.00    -0.247 F 
HETATM   14  O2  UNL     1      10.262 -13.751  12.657  1.00  0.00    -0.271 OA
BRANCH   9  15
HETATM   15  C4  UNL     1       7.090 -14.547  12.850  1.00  0.00     0.264 C 
HETATM   16  N1  UNL     1       7.737 -14.957  11.676  1.00  0.00    -0.353 N 
ATOM     17  H1  UNL     1       8.745 -15.113  11.722  1.00  0.00     0.163 HD
HETATM   18  O1  UNL     1       5.833 -14.323  12.754  1.00  0.00    -0.266 OA
BRANCH  16  19
HETATM   19  C3  UNL     1       7.086 -15.176  10.412  1.00  0.00     0.149 C 
BRANCH  19  20
HETATM   20  C2  UNL     1       7.017 -13.936   9.611  1.00  0.00    -0.018 C 
HETATM   21  C1  UNL     1       8.037 -13.074   9.449  1.00  0.00     0.008 C 
ENDBRANCH  19  20
ENDBRANCH  16  19
ENDBRANCH   9  15
ENDBRANCH   6   7
BRANCH   6  22
HETATM   22  C11 UNL     1      11.872 -16.266  13.131  1.00  0.00     0.031 C 
HETATM   23  C12 UNL     1      11.386 -17.496  13.824  1.00  0.00     0.007 C 
ENDBRANCH   6  22
ENDBRANCH   4   6
ENDBRANCH   1   4
BRANCH   1  24
HETATM   24  N4  UNL     1      14.484 -12.910  15.823  1.00  0.00    -0.258 N 
BRANCH  24  25
HETATM   25  C13 UNL     1      15.845 -12.588  15.721  1.00  0.00     0.082 C 
BRANCH  25  26
HETATM   26  C14 UNL     1      16.410 -11.612  14.755  1.00  0.00     0.017 C 
HETATM   27  C15 UNL     1      15.462 -10.793  13.925  1.00  0.00     0.015 C 
HETATM   28  C16 UNL     1      17.409 -12.258  13.770  1.00  0.00     0.015 C 
ENDBRANCH  25  26
ENDBRANCH  24  25
BRANCH  24  29
HETATM   29  C17 UNL     1      13.756 -12.256  16.809  1.00  0.00     0.203 C 
BRANCH  29  30
HETATM   30  C18 UNL     1      13.763 -12.885  18.217  1.00  0.00     0.039 C 
BRANCH  30  31
HETATM   31  C19 UNL     1      14.397 -11.941  19.189  1.00  0.00     0.022 C 
BRANCH  31  32
HETATM   32  C20 UNL     1      13.520 -10.817  19.616  1.00  0.00     0.122 C 
BRANCH  32  33
HETATM   33  N5  UNL     1      12.194 -11.227  19.997  1.00  0.00    -0.365 N 
HETATM   34  C21 UNL     1      12.039 -11.716  21.350  1.00  0.00     0.181 C 
HETATM   35  N6  UNL     1      12.532 -10.947  22.239  1.00  0.00    -0.374 N 
HETATM   36  N7  UNL     1      11.426 -12.949  21.601  1.00  0.00    -0.064 NA
ATOM     37  H62 UNL     1      12.979 -10.048  22.056  1.00  0.00     0.158 HD
ATOM     38  H61 UNL     1      12.422 -11.291  23.193  1.00  0.00     0.158 HD
ATOM     39  H5  UNL     1      11.408 -11.175  19.349  1.00  0.00     0.162 HD
ENDBRANCH  32  33
ENDBRANCH  31  32
ENDBRANCH  30  31
ENDBRANCH  29  30
BRANCH  29  40
HETATM   40  C22 UNL     1      12.305 -12.072  16.403  1.00  0.00     0.198 C 
HETATM   41  O5  UNL     1      11.967 -11.583  15.313  1.00  0.00    -0.646 OA
HETATM   42  O6  UNL     1      11.334 -12.467  17.296  1.00  0.00    -0.646 OA
ENDBRANCH  29  40
ENDBRANCH  24  29
ENDBRANCH   1  24
TORSDOF 16
ENDMDL
MODEL 4
REMARK VINA RESULT: -7.321458278      2.740      3.688
REMARK  16 active torsions:
REMARK  status: ('A' for Active; 'I' for Inactive)
REMARK    1  A    between atoms: C2_2  and  C3_3 
REMARK    2  A    between atoms: C3_3  and  N1_4 
REMARK       I    between atoms: N1_4  and  C4_6 
REMARK    3  A    between atoms: C4_6  and  C5_8 
REMARK       I    between atoms: N2_13  and  C9_14 
REMARK    4  A    between atoms: C9_14  and  C10_16 
REMARK    5  A    between atoms: C10_16  and  C11_17 
REMARK    6  A    between atoms: C10_16  and  N3_19 
REMARK    7  A    between atoms: N3_19  and  S1_21 
REMARK    8  A    between atoms: S1_21  and  N4_24 
REMARK    9  A    between atoms: N4_24  and  C13_25 
REMARK   10  A    between atoms: N4_24  and  C17_29 
REMARK   11  A    between atoms: C13_25  and  C14_26 
REMARK   12  A    between atoms: C17_29  and  C18_30 
REMARK   13  A    between atoms: C17_29  and  C22_40 
REMARK   14  A    between atoms: C18_30  and  C19_31 
REMARK   15  A    between atoms: C19_31  and  C20_32 
REMARK   16  A    between atoms: C20_32  and  N5_33 
REMARK       I    between atoms: N5_33  and  C21_35 
ROOT
HETATM    1  S1  UNL     1      11.399 -13.321  15.011  1.00  0.00     0.322 S 
HETATM    2  O3  UNL     1      10.724 -11.932  14.702  1.00  0.00    -0.182 OA
HETATM    3  O4  UNL     1      11.818 -13.757  13.610  1.00  0.00    -0.182 OA
ENDROOT
BRANCH   1   4
HETATM    4  N3  UNL     1      10.151 -14.382  15.489  1.00  0.00    -0.289 N 
ATOM      5  H3  UNL     1      10.304 -15.246  16.009  1.00  0.00     0.174 HD
BRANCH   4   6
HETATM    6  C10 UNL     1       8.846 -13.905  15.065  1.00  0.00     0.186 C 
BRANCH   6   7
HETATM    7  C9  UNL     1       8.071 -14.749  14.166  1.00  0.00     0.247 C 
HETATM    8  N2  UNL     1       7.968 -14.637  12.791  1.00  0.00    -0.312 N 
HETATM    9  C5  UNL     1       7.163 -15.177  11.763  1.00  0.00     0.085 C 
HETATM   10  C8  UNL     1       9.032 -14.046  11.944  1.00  0.00     0.169 C 
HETATM   11  C6  UNL     1       8.141 -16.205  11.201  1.00  0.00     0.102 C 
HETATM   12  C7  UNL     1       9.429 -15.350  11.207  1.00  0.00     0.194 C 
HETATM   13  F1  UNL     1       9.900 -15.109   9.956  1.00  0.00    -0.247 F 
HETATM   14  O2  UNL     1       7.389 -15.723  14.649  1.00  0.00    -0.271 OA
BRANCH   9  15
HETATM   15  C4  UNL     1       5.784 -15.482  11.802  1.00  0.00     0.264 C 
HETATM   16  N1  UNL     1       5.262 -16.673  11.278  1.00  0.00    -0.353 N 
ATOM     17  H1  UNL     1       5.910 -17.310  10.814  1.00  0.00     0.163 HD
HETATM   18  O1  UNL     1       4.943 -14.685  12.345  1.00  0.00    -0.266 OA
BRANCH  16  19
HETATM   19  C3  UNL     1       3.878 -17.062  11.345  1.00  0.00     0.149 C 
BRANCH  19  20
HETATM   20  C2  UNL     1       3.663 -18.149  12.323  1.00  0.00    -0.018 C 
HETATM   21  C1  UNL     1       2.635 -18.203  13.189  1.00  0.00     0.008 C 
ENDBRANCH  19  20
ENDBRANCH  16  19
ENDBRANCH   9  15
ENDBRANCH   6   7
BRANCH   6  22
HETATM   22  C11 UNL     1       8.062 -13.984  16.467  1.00  0.00     0.031 C 
HETATM   23  C12 UNL     1       8.054 -12.619  17.073  1.00  0.00     0.007 C 
ENDBRANCH   6  22
ENDBRANCH   4   6
ENDBRANCH   1   4
BRANCH   1  24
HETATM   24  N4  UNL     1      12.709 -13.039  16.000  1.00  0.00    -0.258 N 
BRANCH  24  25
HETATM   25  C13 UNL     1      12.467 -12.358  17.200  1.00  0.00     0.082 C 
BRANCH  25  26
HETATM   26  C14 UNL     1      11.721 -12.921  18.354  1.00  0.00     0.017 C 
HETATM   27  C15 UNL     1      11.118 -11.971  19.350  1.00  0.00     0.015 C 
HETATM   28  C16 UNL     1      12.553 -13.938  19.164  1.00  0.00     0.015 C 
ENDBRANCH  25  26
ENDBRANCH  24  25
BRANCH  24  29
HETATM   29  C17 UNL     1      14.032 -13.122  15.579  1.00  0.00     0.203 C 
BRANCH  29  30
HETATM   30  C18 UNL     1      15.116 -13.116  16.677  1.00  0.00     0.039 C 
BRANCH  30  31
HETATM   31  C19 UNL     1      15.582 -14.514  16.935  1.00  0.00     0.022 C 
BRANCH  31  32
HETATM   32  C20 UNL     1      16.915 -14.834  16.359  1.00  0.00     0.122 C 
BRANCH  32  33
HETATM   33  N5  UNL     1      16.915 -15.989  15.499  1.00  0.00    -0.365 N 
HETATM   34  C21 UNL     1      16.220 -15.847  14.238  1.00  0.00     0.181 C 
HETATM   35  N6  UNL     1      16.551 -14.809  13.576  1.00  0.00    -0.374 N 
HETATM   36  N7  UNL     1      15.252 -16.778  13.844  1.00  0.00    -0.064 NA
ATOM     37  H62 UNL     1      17.256 -14.130  13.863  1.00  0.00     0.158 HD
ATOM     38  H61 UNL     1      16.061 -14.709  12.687  1.00  0.00     0.158 HD
ATOM     39  H5  UNL     1      17.378 -16.857  15.764  1.00  0.00     0.162 HD
ENDBRANCH  32  33
ENDBRANCH  31  32
ENDBRANCH  30  31
ENDBRANCH  29  30
BRANCH  29  40
HETATM   40  C22 UNL     1      14.376 -12.019  14.596  1.00  0.00     0.198 C 
HETATM   41  O5  UNL     1      13.917 -10.869  14.687  1.00  0.00    -0.646 OA
HETATM   42  O6  UNL     1      15.233 -12.324  13.562  1.00  0.00    -0.646 OA
ENDBRANCH  29  40
ENDBRANCH  24  29
ENDBRANCH   1  24
TORSDOF 16
ENDMDL
MODEL 5
REMARK VINA RESULT: -7.311706853      2.058      3.079
REMARK  16 active torsions:
REMARK  status: ('A' for Active; 'I' for Inactive)
REMARK    1  A    between atoms: C2_2  and  C3_3 
REMARK    2  A    between atoms: C3_3  and  N1_4 
REMARK       I    between atoms: N1_4  and  C4_6 
REMARK    3  A    between atoms: C4_6  and  C5_8 
REMARK       I    between atoms: N2_13  and  C9_14 
REMARK    4  A    between atoms: C9_14  and  C10_16 
REMARK    5  A    between atoms: C10_16  and  C11_17 
REMARK    6  A    between atoms: C10_16  and  N3_19 
REMARK    7  A    between atoms: N3_19  and  S1_21 
REMARK    8  A    between atoms: S1_21  and  N4_24 
REMARK    9  A    between atoms: N4_24  and  C13_25 
REMARK   10  A    between atoms: N4_24  and  C17_29 
REMARK   11  A    between atoms: C13_25  and  C14_26 
REMARK   12  A    between atoms: C17_29  and  C18_30 
REMARK   13  A    between atoms: C17_29  and  C22_40 
REMARK   14  A    between atoms: C18_30  and  C19_31 
REMARK   15  A    between atoms: C19_31  and  C20_32 
REMARK   16  A    between atoms: C20_32  and  N5_33 
REMARK       I    between atoms: N5_33  and  C21_35 
ROOT
HETATM    1  S1  UNL     1      12.989 -12.040  15.028  1.00  0.00     0.322 S 
HETATM    2  O3  UNL     1      11.597 -11.304  15.047  1.00  0.00    -0.182 OA
HETATM    3  O4  UNL     1      13.848 -11.012  14.297  1.00  0.00    -0.182 OA
ENDROOT
BRANCH   1   4
HETATM    4  N3  UNL     1      12.832 -13.371  13.973  1.00  0.00    -0.289 N 
ATOM      5  H3  UNL     1      13.377 -13.491  13.119  1.00  0.00     0.174 HD
BRANCH   4   6
HETATM    6  C10 UNL     1      11.828 -14.312  14.438  1.00  0.00     0.186 C 
BRANCH   6   7
HETATM    7  C9  UNL     1      10.467 -14.157  13.943  1.00  0.00     0.247 C 
HETATM    8  N2  UNL     1       9.293 -14.450  14.611  1.00  0.00    -0.312 N 
HETATM    9  C5  UNL     1       7.921 -14.572  14.295  1.00  0.00     0.085 C 
HETATM   10  C8  UNL     1       9.170 -14.415  16.088  1.00  0.00     0.169 C 
HETATM   11  C6  UNL     1       7.423 -13.236  14.839  1.00  0.00     0.102 C 
HETATM   12  C7  UNL     1       8.211 -13.201  16.168  1.00  0.00     0.194 C 
HETATM   13  F1  UNL     1       7.399 -13.260  17.256  1.00  0.00    -0.247 F 
HETATM   14  O2  UNL     1      10.278 -13.699  12.758  1.00  0.00    -0.271 OA
BRANCH   9  15
HETATM   15  C4  UNL     1       7.339 -15.102  13.122  1.00  0.00     0.264 C 
HETATM   16  N1  UNL     1       7.479 -14.488  11.869  1.00  0.00    -0.353 N 
ATOM     17  H1  UNL     1       7.985 -13.603  11.830  1.00  0.00     0.163 HD
HETATM   18  O1  UNL     1       6.668 -16.191  13.147  1.00  0.00    -0.266 OA
BRANCH  16  19
HETATM   19  C3  UNL     1       6.961 -15.015  10.635  1.00  0.00     0.149 C 
BRANCH  19  20
HETATM   20  C2  UNL     1       6.999 -14.010   9.552  1.00  0.00    -0.018 C 
HETATM   21  C1  UNL     1       7.957 -13.076   9.411  1.00  0.00     0.008 C 
ENDBRANCH  19  20
ENDBRANCH  16  19
ENDBRANCH   9  15
ENDBRANCH   6   7
BRANCH   6  22
HETATM   22  C11 UNL     1      12.365 -15.652  13.728  1.00  0.00     0.031 C 
HETATM   23  C12 UNL     1      13.271 -16.355  14.684  1.00  0.00     0.007 C 
ENDBRANCH   6  22
ENDBRANCH   4   6
ENDBRANCH   1   4
BRANCH   1  24
HETATM   24  N4  UNL     1      13.472 -12.251  16.609  1.00  0.00    -0.258 N 
BRANCH  24  25
HETATM   25  C13 UNL     1      12.525 -11.977  17.606  1.00  0.00     0.082 C 
BRANCH  25  26
HETATM   26  C14 UNL     1      11.542 -12.959  18.128  1.00  0.00     0.017 C 
HETATM   27  C15 UNL     1      10.455 -12.469  19.043  1.00  0.00     0.015 C 
HETATM   28  C16 UNL     1      12.213 -14.152  18.845  1.00  0.00     0.015 C 
ENDBRANCH  25  26
ENDBRANCH  24  25
BRANCH  24  29
HETATM   29  C17 UNL     1      14.799 -12.345  17.010  1.00  0.00     0.203 C 
BRANCH  29  30
HETATM   30  C18 UNL     1      15.401 -13.761  17.110  1.00  0.00     0.039 C 
BRANCH  30  31
HETATM   31  C19 UNL     1      16.005 -14.148  15.796  1.00  0.00     0.022 C 
BRANCH  31  32
HETATM   32  C20 UNL     1      16.769 -13.061  15.127  1.00  0.00     0.122 C 
BRANCH  32  33
HETATM   33  N5  UNL     1      16.294 -12.744  13.806  1.00  0.00    -0.365 N 
HETATM   34  C21 UNL     1      17.179 -11.950  12.981  1.00  0.00     0.181 C 
HETATM   35  N6  UNL     1      18.372 -12.394  12.923  1.00  0.00    -0.374 N 
HETATM   36  N7  UNL     1      16.721 -10.785  12.355  1.00  0.00    -0.064 NA
ATOM     37  H62 UNL     1      18.705 -13.243  13.379  1.00  0.00     0.158 HD
ATOM     38  H61 UNL     1      18.995 -11.835  12.341  1.00  0.00     0.158 HD
ATOM     39  H5  UNL     1      15.385 -13.062  13.471  1.00  0.00     0.162 HD
ENDBRANCH  32  33
ENDBRANCH  31  32
ENDBRANCH  30  31
ENDBRANCH  29  30
BRANCH  29  40
HETATM   40  C22 UNL     1      15.029 -11.659  18.344  1.00  0.00     0.198 C 
HETATM   41  O5  UNL     1      14.793 -12.207  19.432  1.00  0.00    -0.646 OA
HETATM   42  O6  UNL     1      15.518 -10.372  18.328  1.00  0.00    -0.646 OA
ENDBRANCH  29  40
ENDBRANCH  24  29
ENDBRANCH   1  24
TORSDOF 16
ENDMDL
