MODEL 1
REMARK VINA RESULT: -7.437544727      0.000      0.000
REMARK  16 active torsions:
REMARK  status: ('A' for Active; 'I' for Inactive)
REMARK    1  A    between atoms: C1_4  and  N2_5 
REMARK    2  A    between atoms: C1_4  and  C2_8 
REMARK    3  A    between atoms: C9_18  and  C10_19 
REMARK    4  A    between atoms: C10_19  and  C11_20 
REMARK    5  A    between atoms: C11_20  and  C12_21 
REMARK    6  A    between atoms: C12_21  and  C13_22 
REMARK    7  A    between atoms: C13_22  and  N4_23 
REMARK    8  A    between atoms: N4_23  and  S1_25 
REMARK    9  A    between atoms: S1_25  and  N5_28 
REMARK   10  A    between atoms: N5_28  and  C14_30 
REMARK   11  A    between atoms: C14_30  and  C15_31 
REMARK   12  A    between atoms: C15_31  and  C16_32 
REMARK   13  A    between atoms: C16_32  and  C17_33 
REMARK   14  A    between atoms: C17_33  and  C18_34 
REMARK   15  A    between atoms: C18_34  and  N6_35 
REMARK       I    between atoms: N6_35  and  C19_37 
REMARK   16  A    between atoms: C19_37  and  C20_39 
ROOT
HETATM    1  C11 UNL     1       7.518 -13.599  14.876  1.00  0.00     0.002 C 
ENDROOT
BRANCH   1   2
HETATM    2  C10 UNL     1       7.622 -14.685  13.864  1.00  0.00     0.017 C 
BRANCH   2   3
HETATM    3  C9  UNL     1       7.437 -14.442  12.467  1.00  0.00     0.112 C 
HETATM    4  C5  UNL     1       8.685 -14.333  11.582  1.00  0.00     0.075 C 
HETATM    5  C4  UNL     1       9.942 -14.065  12.193  1.00  0.00     0.042 C 
HETATM    6  C6  UNL     1       8.342 -13.645  10.294  1.00  0.00     0.058 C 
HETATM    7  O5  UNL     1       8.862 -15.717  11.174  1.00  0.00    -0.366 OA
HETATM    8  C3  UNL     1      10.954 -14.762  11.270  1.00  0.00     0.043 C 
HETATM    9  C2  UNL     1      10.045 -15.730  10.544  1.00  0.00     0.189 C 
HETATM   10  C7  UNL     1       7.178 -14.269   9.610  1.00  0.00     0.125 C 
HETATM   11  N3  UNL     1       6.439 -15.252  10.349  1.00  0.00    -0.361 N 
HETATM   12  C8  UNL     1       6.462 -15.325  11.757  1.00  0.00     0.224 C 
ATOM     13  H3  UNL     1       5.872 -15.927   9.835  1.00  0.00     0.162 HD
HETATM   14  O1  UNL     1       5.821 -16.042  12.424  1.00  0.00    -0.273 OA
BRANCH   9  15
HETATM   15  C1  UNL     1      10.679 -17.149  10.523  1.00  0.00     0.098 C 
HETATM   16  N1  UNL     1      11.663 -17.402  11.269  1.00  0.00    -0.387 N 
ATOM     17  H12 UNL     1      12.078 -18.333  11.255  1.00  0.00     0.157 HD
ATOM     18  H11 UNL     1      12.101 -16.780  11.948  1.00  0.00     0.157 HD
BRANCH  15  19
HETATM   19  N2  UNL     1      10.086 -17.989   9.605  1.00  0.00    -0.387 N 
ATOM     20  H22 UNL     1      10.530 -17.954   8.688  1.00  0.00     0.157 HD
ATOM     21  H21 UNL     1       9.311 -18.633   9.765  1.00  0.00     0.157 HD
ENDBRANCH  15  19
ENDBRANCH   9  15
ENDBRANCH   2   3
ENDBRANCH   1   2
BRANCH   1  22
HETATM   22  C12 UNL     1       8.455 -14.093  15.910  1.00  0.00     0.020 C 
BRANCH  22  23
HETATM   23  C13 UNL     1       9.332 -13.136  16.653  1.00  0.00     0.133 C 
BRANCH  23  24
HETATM   24  N4  UNL     1       9.833 -12.216  15.695  1.00  0.00    -0.303 N 
ATOM     25  H4  UNL     1       9.253 -11.588  15.139  1.00  0.00     0.173 HD
BRANCH  24  26
HETATM   26  S1  UNL     1      11.458 -12.296  15.599  1.00  0.00     0.314 S 
HETATM   27  O2  UNL     1      12.273 -11.069  15.811  1.00  0.00    -0.183 OA
HETATM   28  O3  UNL     1      11.622 -13.070  17.199  1.00  0.00    -0.183 OA
BRANCH  26  29
HETATM   29  N5  UNL     1      12.438 -13.455  14.871  1.00  0.00    -0.303 N 
ATOM     30  H5  UNL     1      13.068 -13.155  14.127  1.00  0.00     0.173 HD
BRANCH  29  31
HETATM   31  C14 UNL     1      12.437 -14.865  15.246  1.00  0.00     0.133 C 
BRANCH  31  32
HETATM   32  C15 UNL     1      14.015 -14.890  15.228  1.00  0.00     0.021 C 
BRANCH  32  33
HETATM   33  C16 UNL     1      14.591 -14.710  16.518  1.00  0.00     0.007 C 
BRANCH  33  34
HETATM   34  C17 UNL     1      15.858 -13.808  16.520  1.00  0.00     0.044 C 
BRANCH  34  35
HETATM   35  C18 UNL     1      15.460 -12.450  16.540  1.00  0.00     0.064 C 
BRANCH  35  36
HETATM   36  N6  UNL     1      15.975 -11.407  15.669  1.00  0.00    -0.340 N 
HETATM   37  C19 UNL     1      15.595 -11.267  14.341  1.00  0.00     0.231 C 
HETATM   38  O4  UNL     1      14.905 -12.112  13.660  1.00  0.00    -0.272 OA
ATOM     39  H6  UNL     1      16.649 -10.745  16.053  1.00  0.00     0.167 HD
BRANCH  37  40
HETATM   40  C20 UNL     1      15.940 -10.032  13.693  1.00  0.00     0.188 C 
HETATM   41 BR1  UNL     1      17.184 -10.263  12.229  1.00  0.00    -0.087 Br
ENDBRANCH  37  40
ENDBRANCH  35  36
ENDBRANCH  34  35
ENDBRANCH  33  34
ENDBRANCH  32  33
ENDBRANCH  31  32
ENDBRANCH  29  31
ENDBRANCH  26  29
ENDBRANCH  24  26
ENDBRANCH  23  24
ENDBRANCH  22  23
ENDBRANCH   1  22
TORSDOF 16
ENDMDL
MODEL 2
REMARK VINA RESULT: -7.425308411      0.870      1.080
REMARK  16 active torsions:
REMARK  status: ('A' for Active; 'I' for Inactive)
REMARK    1  A    between atoms: C1_4  and  N2_5 
REMARK    2  A    between atoms: C1_4  and  C2_8 
REMARK    3  A    between atoms: C9_18  and  C10_19 
REMARK    4  A    between atoms: C10_19  and  C11_20 
REMARK    5  A    between atoms: C11_20  and  C12_21 
REMARK    6  A    between atoms: C12_21  and  C13_22 
REMARK    7  A    between atoms: C13_22  and  N4_23 
REMARK    8  A    between atoms: N4_23  and  S1_25 
REMARK    9  A    between atoms: S1_25  and  N5_28 
REMARK   10  A    between atoms: N5_28  and  C14_30 
REMARK   11  A    between atoms: C14_30  and  C15_31 
REMARK   12  A    between atoms: C15_31  and  C16_32 
REMARK   13  A    between atoms: C16_32  and  C17_33 
REMARK   14  A    between atoms: C17_33  and  C18_34 
REMARK   15  A    between atoms: C18_34  and  N6_35 
REMARK       I    between atoms: N6_35  and  C19_37 
REMARK   16  A    between atoms: C19_37  and  C20_39 
ROOT
HETATM    1  C11 UNL     1       7.630 -13.550  14.954  1.00  0.00     0.002 C 
ENDROOT
BRANCH   1   2
HETATM    2  C10 UNL     1       7.789 -14.664  13.979  1.00  0.00     0.017 C 
BRANCH   2   3
HETATM    3  C9  UNL     1       7.525 -14.495  12.584  1.00  0.00     0.112 C 
HETATM    4  C5  UNL     1       8.720 -14.333  11.637  1.00  0.00     0.075 C 
HETATM    5  C4  UNL     1       9.979 -13.947  12.177  1.00  0.00     0.042 C 
HETATM    6  C6  UNL     1       8.270 -13.727  10.341  1.00  0.00     0.058 C 
HETATM    7  O5  UNL     1       8.983 -15.716  11.277  1.00  0.00    -0.366 OA
HETATM    8  C3  UNL     1      11.000 -14.607  11.235  1.00  0.00     0.043 C 
HETATM    9  C2  UNL     1      10.135 -15.669  10.592  1.00  0.00     0.189 C 
HETATM   10  C7  UNL     1       7.128 -14.463   9.738  1.00  0.00     0.125 C 
HETATM   11  N3  UNL     1       6.497 -15.465  10.549  1.00  0.00    -0.361 N 
HETATM   12  C8  UNL     1       6.588 -15.476  11.956  1.00  0.00     0.224 C 
ATOM     13  H3  UNL     1       5.960 -16.201  10.089  1.00  0.00     0.162 HD
HETATM   14  O1  UNL     1       6.033 -16.209  12.680  1.00  0.00    -0.273 OA
BRANCH   9  15
HETATM   15  C1  UNL     1      10.871 -17.037  10.597  1.00  0.00     0.098 C 
HETATM   16  N1  UNL     1      10.373 -18.014   9.976  1.00  0.00    -0.387 N 
ATOM     17  H12 UNL     1      10.857 -18.912   9.979  1.00  0.00     0.157 HD
ATOM     18  H11 UNL     1       9.525 -18.021   9.410  1.00  0.00     0.157 HD
BRANCH  15  19
HETATM   19  N2  UNL     1      12.018 -17.028  11.362  1.00  0.00    -0.387 N 
ATOM     20  H22 UNL     1      11.840 -17.213  12.349  1.00  0.00     0.157 HD
ATOM     21  H21 UNL     1      12.977 -16.898  11.040  1.00  0.00     0.157 HD
ENDBRANCH  15  19
ENDBRANCH   9  15
ENDBRANCH   2   3
ENDBRANCH   1   2
BRANCH   1  22
HETATM   22  C12 UNL     1       8.490 -14.027  16.061  1.00  0.00     0.020 C 
BRANCH  22  23
HETATM   23  C13 UNL     1       9.183 -13.047  16.954  1.00  0.00     0.133 C 
BRANCH  23  24
HETATM   24  N4  UNL     1      10.575 -13.298  16.831  1.00  0.00    -0.303 N 
ATOM     25  H4  UNL     1      11.092 -13.972  17.397  1.00  0.00     0.173 HD
BRANCH  24  26
HETATM   26  S1  UNL     1      11.238 -12.368  15.670  1.00  0.00     0.314 S 
HETATM   27  O2  UNL     1      10.414 -11.332  14.990  1.00  0.00    -0.183 OA
HETATM   28  O3  UNL     1      12.128 -11.353  16.839  1.00  0.00    -0.183 OA
BRANCH  26  29
HETATM   29  N5  UNL     1      12.623 -12.622  14.746  1.00  0.00    -0.303 N 
ATOM     30  H5  UNL     1      13.176 -11.810  14.474  1.00  0.00     0.173 HD
BRANCH  29  31
HETATM   31  C14 UNL     1      13.076 -13.940  14.315  1.00  0.00     0.133 C 
BRANCH  31  32
HETATM   32  C15 UNL     1      14.013 -14.053  15.580  1.00  0.00     0.021 C 
BRANCH  32  33
HETATM   33  C16 UNL     1      15.240 -14.722  15.308  1.00  0.00     0.007 C 
BRANCH  33  34
HETATM   34  C17 UNL     1      16.502 -13.912  15.721  1.00  0.00     0.044 C 
BRANCH  34  35
HETATM   35  C18 UNL     1      16.242 -12.531  15.551  1.00  0.00     0.064 C 
BRANCH  35  36
HETATM   36  N6  UNL     1      16.554 -11.754  14.364  1.00  0.00    -0.340 N 
HETATM   37  C19 UNL     1      15.749 -10.725  13.894  1.00  0.00     0.231 C 
HETATM   38  O4  UNL     1      14.566 -10.441  14.311  1.00  0.00    -0.272 OA
ATOM     39  H6  UNL     1      17.407 -11.975  13.851  1.00  0.00     0.167 HD
BRANCH  37  40
HETATM   40  C20 UNL     1      16.320  -9.853  12.905  1.00  0.00     0.188 C 
HETATM   41 BR1  UNL     1      17.659 -10.718  11.809  1.00  0.00    -0.087 Br
ENDBRANCH  37  40
ENDBRANCH  35  36
ENDBRANCH  34  35
ENDBRANCH  33  34
ENDBRANCH  32  33
ENDBRANCH  31  32
ENDBRANCH  29  31
ENDBRANCH  26  29
ENDBRANCH  24  26
ENDBRANCH  23  24
ENDBRANCH  22  23
ENDBRANCH   1  22
TORSDOF 16
ENDMDL
MODEL 3
REMARK VINA RESULT: -7.212707862      1.953      2.395
REMARK  16 active torsions:
REMARK  status: ('A' for Active; 'I' for Inactive)
REMARK    1  A    between atoms: C1_4  and  N2_5 
REMARK    2  A    between atoms: C1_4  and  C2_8 
REMARK    3  A    between atoms: C9_18  and  C10_19 
REMARK    4  A    between atoms: C10_19  and  C11_20 
REMARK    5  A    between atoms: C11_20  and  C12_21 
REMARK    6  A    between atoms: C12_21  and  C13_22 
REMARK    7  A    between atoms: C13_22  and  N4_23 
REMARK    8  A    between atoms: N4_23  and  S1_25 
REMARK    9  A    between atoms: S1_25  and  N5_28 
REMARK   10  A    between atoms: N5_28  and  C14_30 
REMARK   11  A    between atoms: C14_30  and  C15_31 
REMARK   12  A    between atoms: C15_31  and  C16_32 
REMARK   13  A    between atoms: C16_32  and  C17_33 
REMARK   14  A    between atoms: C17_33  and  C18_34 
REMARK   15  A    between atoms: C18_34  and  N6_35 
REMARK       I    between atoms: N6_35  and  C19_37 
REMARK   16  A    between atoms: C19_37  and  C20_39 
ROOT
HETATM    1  C11 UNL     1       7.691 -12.915  15.972  1.00  0.00     0.002 C 
ENDROOT
BRANCH   1   2
HETATM    2  C10 UNL     1       8.199 -14.246  15.538  1.00  0.00     0.017 C 
BRANCH   2   3
HETATM    3  C9  UNL     1       8.165 -14.663  14.171  1.00  0.00     0.112 C 
HETATM    4  C5  UNL     1       9.409 -14.416  13.310  1.00  0.00     0.075 C 
HETATM    5  C4  UNL     1      10.363 -13.450  13.738  1.00  0.00     0.042 C 
HETATM    6  C6  UNL     1       9.049 -14.485  11.856  1.00  0.00     0.058 C 
HETATM    7  O5  UNL     1      10.147 -15.650  13.522  1.00  0.00    -0.366 OA
HETATM    8  C3  UNL     1      11.695 -13.979  13.184  1.00  0.00     0.043 C 
HETATM    9  C2  UNL     1      11.337 -15.430  12.944  1.00  0.00     0.189 C 
HETATM   10  C7  UNL     1       8.324 -15.736  11.510  1.00  0.00     0.125 C 
HETATM   11  N3  UNL     1       7.890 -16.560  12.603  1.00  0.00    -0.361 N 
HETATM   12  C8  UNL     1       7.712 -16.063  13.910  1.00  0.00     0.224 C 
ATOM     13  H3  UNL     1       7.703 -17.548  12.426  1.00  0.00     0.162 HD
HETATM   14  O1  UNL     1       7.282 -16.655  14.823  1.00  0.00    -0.273 OA
BRANCH   9  15
HETATM   15  C1  UNL     1      12.443 -16.359  13.516  1.00  0.00     0.098 C 
HETATM   16  N1  UNL     1      12.749 -16.284  14.736  1.00  0.00    -0.387 N 
ATOM     17  H12 UNL     1      13.475 -16.894  15.112  1.00  0.00     0.157 HD
ATOM     18  H11 UNL     1      12.321 -15.690  15.446  1.00  0.00     0.157 HD
BRANCH  15  19
HETATM   19  N2  UNL     1      13.021 -17.161  12.556  1.00  0.00    -0.387 N 
ATOM     20  H22 UNL     1      12.340 -17.582  11.925  1.00  0.00     0.157 HD
ATOM     21  H21 UNL     1      14.016 -17.330  12.406  1.00  0.00     0.157 HD
ENDBRANCH  15  19
ENDBRANCH   9  15
ENDBRANCH   2   3
ENDBRANCH   1   2
BRANCH   1  22
HETATM   22  C12 UNL     1       8.676 -12.572  17.023  1.00  0.00     0.020 C 
BRANCH  22  23
HETATM   23  C13 UNL     1       9.978 -13.304  17.103  1.00  0.00     0.133 C 
BRANCH  23  24
HETATM   24  N4  UNL     1      10.892 -12.438  17.759  1.00  0.00    -0.303 N 
ATOM     25  H4  UNL     1      10.748 -12.043  18.688  1.00  0.00     0.173 HD
BRANCH  24  26
HETATM   26  S1  UNL     1      12.202 -12.158  16.831  1.00  0.00     0.314 S 
HETATM   27  O2  UNL     1      12.164 -11.084  15.802  1.00  0.00    -0.183 OA
HETATM   28  O3  UNL     1      13.082 -11.319  18.138  1.00  0.00    -0.183 OA
BRANCH  26  29
HETATM   29  N5  UNL     1      13.520 -13.152  16.500  1.00  0.00    -0.303 N 
ATOM     30  H5  UNL     1      13.411 -13.877  15.791  1.00  0.00     0.173 HD
BRANCH  29  31
HETATM   31  C14 UNL     1      14.810 -13.033  17.171  1.00  0.00     0.133 C 
BRANCH  31  32
HETATM   32  C15 UNL     1      15.083 -14.573  16.958  1.00  0.00     0.021 C 
BRANCH  32  33
HETATM   33  C16 UNL     1      16.412 -14.850  16.529  1.00  0.00     0.007 C 
BRANCH  33  34
HETATM   34  C17 UNL     1      16.487 -15.709  15.235  1.00  0.00     0.044 C 
BRANCH  34  35
HETATM   35  C18 UNL     1      16.206 -14.889  14.117  1.00  0.00     0.064 C 
BRANCH  35  36
HETATM   36  N6  UNL     1      16.893 -13.653  13.782  1.00  0.00    -0.340 N 
HETATM   37  C19 UNL     1      16.256 -12.422  13.712  1.00  0.00     0.231 C 
HETATM   38  O4  UNL     1      14.986 -12.226  13.748  1.00  0.00    -0.272 OA
ATOM     39  H6  UNL     1      17.894 -13.693  13.588  1.00  0.00     0.167 HD
BRANCH  37  40
HETATM   40  C20 UNL     1      17.096 -11.257  13.671  1.00  0.00     0.188 C 
HETATM   41 BR1  UNL     1      17.593 -10.739  11.875  1.00  0.00    -0.087 Br
ENDBRANCH  37  40
ENDBRANCH  35  36
ENDBRANCH  34  35
ENDBRANCH  33  34
ENDBRANCH  32  33
ENDBRANCH  31  32
ENDBRANCH  29  31
ENDBRANCH  26  29
ENDBRANCH  24  26
ENDBRANCH  23  24
ENDBRANCH  22  23
ENDBRANCH   1  22
TORSDOF 16
ENDMDL
MODEL 4
REMARK VINA RESULT: -7.188768075      1.030      1.165
REMARK  16 active torsions:
REMARK  status: ('A' for Active; 'I' for Inactive)
REMARK    1  A    between atoms: C1_4  and  N2_5 
REMARK    2  A    between atoms: C1_4  and  C2_8 
REMARK    3  A    between atoms: C9_18  and  C10_19 
REMARK    4  A    between atoms: C10_19  and  C11_20 
REMARK    5  A    between atoms: C11_20  and  C12_21 
REMARK    6  A    between atoms: C12_21  and  C13_22 
REMARK    7  A    between atoms: C13_22  and  N4_23 
REMARK    8  A    between atoms: N4_23  and  S1_25 
REMARK    9  A    between atoms: S1_25  and  N5_28 
REMARK   10  A    between atoms: N5_28  and  C14_30 
REMARK   11  A    between atoms: C14_30  and  C15_31 
REMARK   12  A    between atoms: C15_31  and  C16_32 
REMARK   13  A    between atoms: C16_32  and  C17_33 
REMARK   14  A    between atoms: C17_33  and  C18_34 
REMARK   15  A    between atoms: C18_34  and  N6_35 
REMARK       I    between atoms: N6_35  and  C19_37 
REMARK   16  A    between atoms: C19_37  and  C20_39 
ROOT
HETATM    1  C11 UNL     1       7.627 -13.472  14.973  1.00  0.00     0.002 C 
ENDROOT
BRANCH   1   2
HETATM    2  C10 UNL     1       7.764 -14.605  14.017  1.00  0.00     0.017 C 
BRANCH   2   3
HETATM    3  C9  UNL     1       7.520 -14.451  12.616  1.00  0.00     0.112 C 
HETATM    4  C5  UNL     1       8.728 -14.300  11.684  1.00  0.00     0.075 C 
HETATM    5  C4  UNL     1       9.980 -13.909  12.237  1.00  0.00     0.042 C 
HETATM    6  C6  UNL     1       8.296 -13.708  10.376  1.00  0.00     0.058 C 
HETATM    7  O5  UNL     1       8.994 -15.687  11.343  1.00  0.00    -0.366 OA
HETATM    8  C3  UNL     1      11.012 -14.579  11.317  1.00  0.00     0.043 C 
HETATM    9  C2  UNL     1      10.156 -15.648  10.674  1.00  0.00     0.189 C 
HETATM   10  C7  UNL     1       7.161 -14.450   9.765  1.00  0.00     0.125 C 
HETATM   11  N3  UNL     1       6.519 -15.444  10.579  1.00  0.00    -0.361 N 
HETATM   12  C8  UNL     1       6.591 -15.439  11.987  1.00  0.00     0.224 C 
ATOM     13  H3  UNL     1       5.989 -16.184  10.119  1.00  0.00     0.162 HD
HETATM   14  O1  UNL     1       6.026 -16.164  12.711  1.00  0.00    -0.273 OA
BRANCH   9  15
HETATM   15  C1  UNL     1      10.891 -17.017  10.704  1.00  0.00     0.098 C 
HETATM   16  N1  UNL     1      12.026 -17.102  11.247  1.00  0.00    -0.387 N 
ATOM     17  H12 UNL     1      12.508 -18.000  11.267  1.00  0.00     0.157 HD
ATOM     18  H11 UNL     1      12.539 -16.363  11.728  1.00  0.00     0.157 HD
BRANCH  15  19
HETATM   19  N2  UNL     1      10.198 -18.015  10.054  1.00  0.00    -0.387 N 
ATOM     20  H22 UNL     1       9.517 -18.481  10.652  1.00  0.00     0.157 HD
ATOM     21  H21 UNL     1      10.275 -18.286   9.074  1.00  0.00     0.157 HD
ENDBRANCH  15  19
ENDBRANCH   9  15
ENDBRANCH   2   3
ENDBRANCH   1   2
BRANCH   1  22
HETATM   22  C12 UNL     1       8.461 -13.955  16.096  1.00  0.00     0.020 C 
BRANCH  22  23
HETATM   23  C13 UNL     1       9.953 -13.885  16.010  1.00  0.00     0.133 C 
BRANCH  23  24
HETATM   24  N4  UNL     1      10.357 -12.792  16.822  1.00  0.00    -0.303 N 
ATOM     25  H4  UNL     1       9.819 -12.427  17.608  1.00  0.00     0.173 HD
BRANCH  24  26
HETATM   26  S1  UNL     1      11.793 -12.197  16.332  1.00  0.00     0.314 S 
HETATM   27  O2  UNL     1      11.834 -11.025  15.416  1.00  0.00    -0.183 OA
HETATM   28  O3  UNL     1      12.116 -11.396  17.894  1.00  0.00    -0.183 OA
BRANCH  26  29
HETATM   29  N5  UNL     1      13.313 -12.922  16.322  1.00  0.00    -0.303 N 
ATOM     30  H5  UNL     1      14.065 -12.456  15.816  1.00  0.00     0.173 HD
BRANCH  29  31
HETATM   31  C14 UNL     1      13.612 -14.181  16.997  1.00  0.00     0.133 C 
BRANCH  31  32
HETATM   32  C15 UNL     1      15.130 -13.768  17.131  1.00  0.00     0.021 C 
BRANCH  32  33
HETATM   33  C16 UNL     1      16.010 -14.648  16.439  1.00  0.00     0.007 C 
BRANCH  33  34
HETATM   34  C17 UNL     1      16.977 -13.926  15.458  1.00  0.00     0.044 C 
BRANCH  34  35
HETATM   35  C18 UNL     1      16.294 -13.657  14.248  1.00  0.00     0.064 C 
BRANCH  35  36
HETATM   36  N6  UNL     1      16.416 -12.441  13.462  1.00  0.00    -0.340 N 
HETATM   37  C19 UNL     1      15.848 -11.231  13.839  1.00  0.00     0.231 C 
HETATM   38  O4  UNL     1      15.011 -11.055  14.799  1.00  0.00    -0.272 OA
ATOM     39  H6  UNL     1      16.945 -12.478  12.591  1.00  0.00     0.167 HD
BRANCH  37  40
HETATM   40  C20 UNL     1      16.295 -10.058  13.139  1.00  0.00     0.188 C 
HETATM   41 BR1  UNL     1      17.549 -10.450  11.719  1.00  0.00    -0.087 Br
ENDBRANCH  37  40
ENDBRANCH  35  36
ENDBRANCH  34  35
ENDBRANCH  33  34
ENDBRANCH  32  33
ENDBRANCH  31  32
ENDBRANCH  29  31
ENDBRANCH  26  29
ENDBRANCH  24  26
ENDBRANCH  23  24
ENDBRANCH  22  23
ENDBRANCH   1  22
TORSDOF 16
ENDMDL
MODEL 5
REMARK VINA RESULT: -7.065880948      3.146      7.473
REMARK  16 active torsions:
REMARK  status: ('A' for Active; 'I' for Inactive)
REMARK    1  A    between atoms: C1_4  and  N2_5 
REMARK    2  A    between atoms: C1_4  and  C2_8 
REMARK    3  A    between atoms: C9_18  and  C10_19 
REMARK    4  A    between atoms: C10_19  and  C11_20 
REMARK    5  A    between atoms: C11_20  and  C12_21 
REMARK    6  A    between atoms: C12_21  and  C13_22 
REMARK    7  A    between atoms: C13_22  and  N4_23 
REMARK    8  A    between atoms: N4_23  and  S1_25 
REMARK    9  A    between atoms: S1_25  and  N5_28 
REMARK   10  A    between atoms: N5_28  and  C14_30 
REMARK   11  A    between atoms: C14_30  and  C15_31 
REMARK   12  A    between atoms: C15_31  and  C16_32 
REMARK   13  A    between atoms: C16_32  and  C17_33 
REMARK   14  A    between atoms: C17_33  and  C18_34 
REMARK   15  A    between atoms: C18_34  and  N6_35 
REMARK       I    between atoms: N6_35  and  C19_37 
REMARK   16  A    between atoms: C19_37  and  C20_39 
ROOT
HETATM    1  C11 UNL     1      11.001 -13.706  14.174  1.00  0.00     0.002 C 
ENDROOT
BRANCH   1   2
HETATM    2  C10 UNL     1      12.385 -13.163  14.257  1.00  0.00     0.017 C 
BRANCH   2   3
HETATM    3  C9  UNL     1      13.114 -13.127  15.487  1.00  0.00     0.112 C 
HETATM    4  C5  UNL     1      14.599 -13.508  15.457  1.00  0.00     0.075 C 
HETATM    5  C4  UNL     1      15.096 -14.258  14.355  1.00  0.00     0.042 C 
HETATM    6  C6  UNL     1      15.068 -13.851  16.840  1.00  0.00     0.058 C 
HETATM    7  O5  UNL     1      15.216 -12.214  15.216  1.00  0.00    -0.366 OA
HETATM    8  C3  UNL     1      16.560 -13.805  14.233  1.00  0.00     0.043 C 
HETATM    9  C2  UNL     1      16.508 -12.498  14.994  1.00  0.00     0.189 C 
HETATM   10  C7  UNL     1      14.745 -12.789  17.828  1.00  0.00     0.125 C 
HETATM   11  N3  UNL     1      13.872 -11.736  17.391  1.00  0.00    -0.361 N 
HETATM   12  C8  UNL     1      12.989 -11.880  16.302  1.00  0.00     0.224 C 
ATOM     13  H3  UNL     1      13.892 -10.846  17.890  1.00  0.00     0.162 HD
HETATM   14  O1  UNL     1      12.194 -11.098  15.947  1.00  0.00    -0.273 OA
BRANCH   9  15
HETATM   15  C1  UNL     1      17.220 -11.377  14.187  1.00  0.00     0.098 C 
HETATM   16  N1  UNL     1      17.124 -10.179  14.567  1.00  0.00    -0.387 N 
ATOM     17  H12 UNL     1      17.592  -9.444  14.038  1.00  0.00     0.157 HD
ATOM     18  H11 UNL     1      16.647  -9.830  15.398  1.00  0.00     0.157 HD
BRANCH  15  19
HETATM   19  N2  UNL     1      17.864 -11.850  13.064  1.00  0.00    -0.387 N 
ATOM     20  H22 UNL     1      18.802 -11.465  12.951  1.00  0.00     0.157 HD
ATOM     21  H21 UNL     1      17.520 -12.539  12.396  1.00  0.00     0.157 HD
ENDBRANCH  15  19
ENDBRANCH   9  15
ENDBRANCH   2   3
ENDBRANCH   1   2
BRANCH   1  22
HETATM   22  C12 UNL     1      11.016 -14.293  12.815  1.00  0.00     0.020 C 
BRANCH  22  23
HETATM   23  C13 UNL     1      10.054 -15.380  12.453  1.00  0.00     0.133 C 
BRANCH  23  24
HETATM   24  N4  UNL     1       8.910 -14.745  11.903  1.00  0.00    -0.303 N 
ATOM     25  H4  UNL     1       8.893 -14.263  11.004  1.00  0.00     0.173 HD
BRANCH  24  26
HETATM   26  S1  UNL     1       7.626 -14.886  12.896  1.00  0.00     0.314 S 
HETATM   27  O2  UNL     1       6.355 -15.468  12.385  1.00  0.00    -0.183 OA
HETATM   28  O3  UNL     1       8.305 -16.300  13.750  1.00  0.00    -0.183 OA
BRANCH  26  29
HETATM   29  N5  UNL     1       7.293 -14.096  14.346  1.00  0.00    -0.303 N 
ATOM     30  H5  UNL     1       6.564 -13.383  14.349  1.00  0.00     0.173 HD
BRANCH  29  31
HETATM   31  C14 UNL     1       7.991 -14.375  15.596  1.00  0.00     0.133 C 
BRANCH  31  32
HETATM   32  C15 UNL     1       7.715 -12.905  16.099  1.00  0.00     0.021 C 
BRANCH  32  33
HETATM   33  C16 UNL     1       8.043 -12.713  17.471  1.00  0.00     0.007 C 
BRANCH  33  34
HETATM   34  C17 UNL     1       9.569 -12.763  17.765  1.00  0.00     0.044 C 
BRANCH  34  35
HETATM   35  C18 UNL     1       9.804 -12.292  19.079  1.00  0.00     0.064 C 
BRANCH  35  36
HETATM   36  N6  UNL     1      11.018 -12.506  19.848  1.00  0.00    -0.340 N 
HETATM   37  C19 UNL     1      11.984 -11.526  20.035  1.00  0.00     0.231 C 
HETATM   38  O4  UNL     1      12.037 -10.393  19.429  1.00  0.00    -0.272 OA
ATOM     39  H6  UNL     1      11.168 -13.422  20.271  1.00  0.00     0.167 HD
BRANCH  37  40
HETATM   40  C20 UNL     1      12.969 -11.770  21.052  1.00  0.00     0.188 C 
HETATM   41 BR1  UNL     1      13.221 -13.651  21.432  1.00  0.00    -0.087 Br
ENDBRANCH  37  40
ENDBRANCH  35  36
ENDBRANCH  34  35
ENDBRANCH  33  34
ENDBRANCH  32  33
ENDBRANCH  31  32
ENDBRANCH  29  31
ENDBRANCH  26  29
ENDBRANCH  24  26
ENDBRANCH  23  24
ENDBRANCH  22  23
ENDBRANCH   1  22
TORSDOF 16
ENDMDL
