MODEL 1
REMARK VINA RESULT: -8.968409301      0.000      0.000
REMARK  10 active torsions:
REMARK  status: ('A' for Active; 'I' for Inactive)
REMARK       I    between atoms: C1_2  and  N1_3 
REMARK    1  A    between atoms: C1_2  and  C9_16 
REMARK    2  A    between atoms: N1_3  and  N2_5 
REMARK    3  A    between atoms: C2_7  and  C3_8 
REMARK    4  A    between atoms: C6_11  and  O2_12 
REMARK       I    between atoms: C9_16  and  N3_18 
REMARK    5  A    between atoms: N3_18  and  C10_20 
REMARK    6  A    between atoms: C12_29  and  C13_30 
REMARK    7  A    between atoms: C13_30  and  O5_31 
REMARK    8  A    between atoms: C13_30  and  C14_33 
REMARK    9  A    between atoms: C16_35  and  N7_36 
REMARK   10  A    between atoms: C18_40  and  N8_41 
ROOT
HETATM    1  C10 UNL     1       3.541  -4.352   8.651  1.00  0.00     0.206 C 
HETATM    2  C11 UNL     1       3.991  -4.771   7.297  1.00  0.00     0.262 C 
HETATM    3  O4  UNL     1       5.014  -4.260   6.776  1.00  0.00    -0.269 OA
HETATM    4  N4  UNL     1       3.214  -5.765   6.641  1.00  0.00    -0.254 N 
ATOM      5  H4  UNL     1       3.321  -5.879   5.633  1.00  0.00     0.191 HD
HETATM    6  N5  UNL     1       2.313  -6.589   7.309  1.00  0.00    -0.244 N 
ATOM      7  H5  UNL     1       1.919  -7.429   6.885  1.00  0.00     0.208 HD
HETATM    8  N6  UNL     1       1.997  -6.188   8.576  1.00  0.00    -0.312 N 
ATOM      9  H6  UNL     1       1.056  -6.303   8.956  1.00  0.00     0.182 HD
HETATM   10  C12 UNL     1       3.043  -5.603   9.339  1.00  0.00     0.166 C 
ENDROOT
BRANCH   1  11
HETATM   11  N3  UNL     1       2.406  -3.435   8.559  1.00  0.00    -0.337 N 
HETATM   12  C9  UNL     1       2.616  -2.028   8.619  1.00  0.00     0.311 C 
HETATM   13  O3  UNL     1       3.771  -1.565   8.752  1.00  0.00    -0.262 OA
ATOM     14  H3  UNL     1       1.461  -3.805   8.452  1.00  0.00     0.163 HD
BRANCH  12  15
HETATM   15  C1  UNL     1       1.500  -1.112   8.529  1.00  0.00     0.327 C 
HETATM   16  O1  UNL     1       0.658  -1.074   9.469  1.00  0.00    -0.261 OA
HETATM   17  N1  UNL     1       1.302  -0.244   7.424  1.00  0.00    -0.262 N 
ATOM     18  H1  UNL     1       1.993  -0.289   6.674  1.00  0.00     0.190 HD
BRANCH  17  19
HETATM   19  N2  UNL     1       0.273   0.647   7.266  1.00  0.00    -0.308 N 
HETATM   20  C2  UNL     1       0.017   1.385   6.264  1.00  0.00     0.118 C 
ATOM     21  H2  UNL     1      -0.370   0.728   8.054  1.00  0.00     0.186 HD
BRANCH  20  22
HETATM   22  C3  UNL     1      -1.118   2.303   6.210  1.00  0.00    -0.019 A 
HETATM   23  C4  UNL     1      -2.364   1.862   6.573  1.00  0.00     0.015 A 
HETATM   24  C5  UNL     1      -3.478   2.705   6.539  1.00  0.00     0.037 A 
HETATM   25  C6  UNL     1      -3.307   4.017   6.124  1.00  0.00     0.065 A 
HETATM   26  C7  UNL     1      -2.053   4.482   5.751  1.00  0.00     0.037 A 
HETATM   27  C8  UNL     1      -0.965   3.610   5.801  1.00  0.00     0.015 A 
BRANCH  25  28
HETATM   28  O2  UNL     1      -4.414   4.870   6.084  1.00  0.00    -0.361 OA
ATOM     29  H2  UNL     1      -4.624   5.319   5.273  1.00  0.00     0.217 HD
ENDBRANCH  25  28
ENDBRANCH  20  22
ENDBRANCH  17  19
ENDBRANCH  12  15
ENDBRANCH   1  11
BRANCH  10  30
HETATM   30  C13 UNL     1       4.176  -6.559   9.632  1.00  0.00     0.178 C 
BRANCH  30  31
HETATM   31  O5  UNL     1       5.219  -5.816  10.230  1.00  0.00    -0.389 OA
ATOM     32  H5  UNL     1       5.807  -6.433  10.650  1.00  0.00     0.210 HD
ENDBRANCH  30  31
BRANCH  30  33
HETATM   33  C14 UNL     1       3.786  -7.588  10.624  1.00  0.00    -0.023 A 
HETATM   34  C15 UNL     1       4.157  -8.898  10.526  1.00  0.00     0.046 A 
HETATM   35  C16 UNL     1       3.763  -9.799  11.473  1.00  0.00     0.105 A 
HETATM   36  C17 UNL     1       2.988  -9.408  12.542  1.00  0.00     0.072 A 
HETATM   37  C18 UNL     1       2.597  -8.091  12.670  1.00  0.00     0.105 A 
HETATM   38  C19 UNL     1       3.008  -7.190  11.693  1.00  0.00     0.046 A 
BRANCH  35  39
HETATM   39  N7  UNL     1       4.165 -11.158  11.346  1.00  0.00    -0.116 N 
HETATM   40  O6  UNL     1       3.395 -12.049  10.940  1.00  0.00    -0.532 OA
HETATM   41  O7  UNL     1       5.446 -11.519  11.676  1.00  0.00    -0.532 OA
ENDBRANCH  35  39
BRANCH  37  42
HETATM   42  N8  UNL     1       1.797  -7.671  13.767  1.00  0.00    -0.116 N 
HETATM   43  O8  UNL     1       0.966  -6.768  13.632  1.00  0.00    -0.532 OA
HETATM   44  O9  UNL     1       1.945  -8.268  14.979  1.00  0.00    -0.532 OA
ENDBRANCH  37  42
ENDBRANCH  30  33
ENDBRANCH  10  30
TORSDOF 10
ENDMDL
MODEL 2
REMARK VINA RESULT: -8.964550725      3.778      5.445
REMARK  10 active torsions:
REMARK  status: ('A' for Active; 'I' for Inactive)
REMARK       I    between atoms: C1_2  and  N1_3 
REMARK    1  A    between atoms: C1_2  and  C9_16 
REMARK    2  A    between atoms: N1_3  and  N2_5 
REMARK    3  A    between atoms: C2_7  and  C3_8 
REMARK    4  A    between atoms: C6_11  and  O2_12 
REMARK       I    between atoms: C9_16  and  N3_18 
REMARK    5  A    between atoms: N3_18  and  C10_20 
REMARK    6  A    between atoms: C12_29  and  C13_30 
REMARK    7  A    between atoms: C13_30  and  O5_31 
REMARK    8  A    between atoms: C13_30  and  C14_33 
REMARK    9  A    between atoms: C16_35  and  N7_36 
REMARK   10  A    between atoms: C18_40  and  N8_41 
ROOT
HETATM    1  C10 UNL     1       2.016  -7.753  12.165  1.00  0.00     0.206 C 
HETATM    2  C11 UNL     1       2.406  -7.395  13.555  1.00  0.00     0.262 C 
HETATM    3  O4  UNL     1       1.829  -7.924  14.537  1.00  0.00    -0.269 OA
HETATM    4  N4  UNL     1       3.450  -6.440  13.704  1.00  0.00    -0.254 N 
ATOM      5  H4  UNL     1       3.557  -5.975  14.605  1.00  0.00     0.191 HD
HETATM    6  N5  UNL     1       4.331  -6.111  12.678  1.00  0.00    -0.244 N 
ATOM      7  H5  UNL     1       5.195  -5.595  12.842  1.00  0.00     0.208 HD
HETATM    8  N6  UNL     1       3.951  -6.532  11.436  1.00  0.00    -0.312 N 
ATOM      9  H6  UNL     1       4.127  -5.970  10.602  1.00  0.00     0.182 HD
HETATM   10  C12 UNL     1       3.297  -7.792  11.361  1.00  0.00     0.166 C 
ENDROOT
BRANCH   1  11
HETATM   11  N3  UNL     1       1.177  -6.710  11.577  1.00  0.00    -0.337 N 
HETATM   12  C9  UNL     1       0.425  -6.977  10.397  1.00  0.00     0.311 C 
HETATM   13  O3  UNL     1       0.477  -8.103   9.855  1.00  0.00    -0.262 OA
ATOM     14  H3  UNL     1       1.130  -5.789  12.013  1.00  0.00     0.163 HD
BRANCH  12  15
HETATM   15  C1  UNL     1      -0.409  -5.953   9.807  1.00  0.00     0.327 C 
HETATM   16  O1  UNL     1      -1.157  -6.253   8.835  1.00  0.00    -0.261 OA
HETATM   17  N1  UNL     1      -0.427  -4.612  10.271  1.00  0.00    -0.262 N 
ATOM     18  H1  UNL     1       0.183  -4.388  11.057  1.00  0.00     0.190 HD
BRANCH  17  19
HETATM   19  N2  UNL     1      -1.186  -3.589   9.765  1.00  0.00    -0.308 N 
HETATM   20  C2  UNL     1      -2.068  -2.893  10.359  1.00  0.00     0.118 C 
ATOM     21  H2  UNL     1      -1.021  -3.356   8.785  1.00  0.00     0.186 HD
BRANCH  20  22
HETATM   22  C3  UNL     1      -2.818  -1.821   9.712  1.00  0.00    -0.019 A 
HETATM   23  C4  UNL     1      -2.143  -0.817   9.067  1.00  0.00     0.015 A 
HETATM   24  C5  UNL     1      -2.819   0.230   8.432  1.00  0.00     0.037 A 
HETATM   25  C6  UNL     1      -4.205   0.242   8.465  1.00  0.00     0.065 A 
HETATM   26  C7  UNL     1      -4.906  -0.765   9.114  1.00  0.00     0.037 A 
HETATM   27  C8  UNL     1      -4.195  -1.793   9.734  1.00  0.00     0.015 A 
BRANCH  25  28
HETATM   28  O2  UNL     1      -4.893   1.284   7.834  1.00  0.00    -0.361 OA
ATOM     29  H2  UNL     1      -4.458   1.779   7.149  1.00  0.00     0.217 HD
ENDBRANCH  25  28
ENDBRANCH  20  22
ENDBRANCH  17  19
ENDBRANCH  12  15
ENDBRANCH   1  11
BRANCH  10  30
HETATM   30  C13 UNL     1       4.176  -8.946  11.783  1.00  0.00     0.178 C 
BRANCH  30  31
HETATM   31  O5  UNL     1       3.624  -9.497  12.962  1.00  0.00    -0.389 OA
ATOM     32  H5  UNL     1       4.341  -9.835  13.484  1.00  0.00     0.210 HD
ENDBRANCH  30  31
BRANCH  30  33
HETATM   33  C14 UNL     1       4.170 -10.038  10.780  1.00  0.00    -0.023 A 
HETATM   34  C15 UNL     1       4.864  -9.978   9.606  1.00  0.00     0.046 A 
HETATM   35  C16 UNL     1       4.815 -11.018   8.723  1.00  0.00     0.105 A 
HETATM   36  C17 UNL     1       4.071 -12.143   8.995  1.00  0.00     0.072 A 
HETATM   37  C18 UNL     1       3.358 -12.235  10.173  1.00  0.00     0.105 A 
HETATM   38  C19 UNL     1       3.420 -11.164  11.060  1.00  0.00     0.046 A 
BRANCH  35  39
HETATM   39  N7  UNL     1       5.548 -10.927   7.507  1.00  0.00    -0.116 N 
HETATM   40  O6  UNL     1       6.749 -11.248   7.422  1.00  0.00    -0.532 OA
HETATM   41  O7  UNL     1       4.925 -10.473   6.373  1.00  0.00    -0.532 OA
ENDBRANCH  35  39
BRANCH  37  42
HETATM   42  N8  UNL     1       2.584 -13.389  10.470  1.00  0.00    -0.116 N 
HETATM   43  O8  UNL     1       1.852 -13.419  11.463  1.00  0.00    -0.532 OA
HETATM   44  O9  UNL     1       2.648 -14.474   9.654  1.00  0.00    -0.532 OA
ENDBRANCH  37  42
ENDBRANCH  30  33
ENDBRANCH  10  30
TORSDOF 10
ENDMDL
MODEL 3
REMARK VINA RESULT: -8.952172596      3.791      5.589
REMARK  10 active torsions:
REMARK  status: ('A' for Active; 'I' for Inactive)
REMARK       I    between atoms: C1_2  and  N1_3 
REMARK    1  A    between atoms: C1_2  and  C9_16 
REMARK    2  A    between atoms: N1_3  and  N2_5 
REMARK    3  A    between atoms: C2_7  and  C3_8 
REMARK    4  A    between atoms: C6_11  and  O2_12 
REMARK       I    between atoms: C9_16  and  N3_18 
REMARK    5  A    between atoms: N3_18  and  C10_20 
REMARK    6  A    between atoms: C12_29  and  C13_30 
REMARK    7  A    between atoms: C13_30  and  O5_31 
REMARK    8  A    between atoms: C13_30  and  C14_33 
REMARK    9  A    between atoms: C16_35  and  N7_36 
REMARK   10  A    between atoms: C18_40  and  N8_41 
ROOT
HETATM    1  C10 UNL     1       1.997  -7.787  12.240  1.00  0.00     0.206 C 
HETATM    2  C11 UNL     1       2.413  -7.409  13.617  1.00  0.00     0.262 C 
HETATM    3  O4  UNL     1       1.842  -7.910  14.618  1.00  0.00    -0.269 OA
HETATM    4  N4  UNL     1       3.474  -6.469  13.733  1.00  0.00    -0.254 N 
ATOM      5  H4  UNL     1       3.602  -5.988  14.623  1.00  0.00     0.191 HD
HETATM    6  N5  UNL     1       4.345  -6.174  12.688  1.00  0.00    -0.244 N 
ATOM      7  H5  UNL     1       5.219  -5.669  12.830  1.00  0.00     0.208 HD
HETATM    8  N6  UNL     1       3.940  -6.612  11.460  1.00  0.00    -0.312 N 
ATOM      9  H6  UNL     1       4.113  -6.069  10.613  1.00  0.00     0.182 HD
HETATM   10  C12 UNL     1       3.265  -7.862  11.419  1.00  0.00     0.166 C 
ENDROOT
BRANCH   1  11
HETATM   11  N3  UNL     1       1.166  -6.742  11.645  1.00  0.00    -0.337 N 
HETATM   12  C9  UNL     1       0.460  -6.993  10.433  1.00  0.00     0.311 C 
HETATM   13  O3  UNL     1       0.546  -8.107   9.869  1.00  0.00    -0.262 OA
ATOM     14  H3  UNL     1       1.092  -5.831  12.098  1.00  0.00     0.163 HD
BRANCH  12  15
HETATM   15  C1  UNL     1      -0.365  -5.967   9.835  1.00  0.00     0.327 C 
HETATM   16  O1  UNL     1      -1.105  -6.266   8.856  1.00  0.00    -0.261 OA
HETATM   17  N1  UNL     1      -0.383  -4.625  10.297  1.00  0.00    -0.262 N 
ATOM     18  H1  UNL     1       0.222  -4.403  11.088  1.00  0.00     0.190 HD
BRANCH  17  19
HETATM   19  N2  UNL     1      -1.134  -3.600   9.783  1.00  0.00    -0.308 N 
HETATM   20  C2  UNL     1      -2.116  -2.998  10.319  1.00  0.00     0.118 C 
ATOM     21  H2  UNL     1      -0.870  -3.280   8.851  1.00  0.00     0.186 HD
BRANCH  20  22
HETATM   22  C3  UNL     1      -2.844  -1.911   9.671  1.00  0.00    -0.019 A 
HETATM   23  C4  UNL     1      -2.155  -0.968   8.953  1.00  0.00     0.015 A 
HETATM   24  C5  UNL     1      -2.811   0.090   8.315  1.00  0.00     0.037 A 
HETATM   25  C6  UNL     1      -4.191   0.175   8.418  1.00  0.00     0.065 A 
HETATM   26  C7  UNL     1      -4.906  -0.771   9.140  1.00  0.00     0.037 A 
HETATM   27  C8  UNL     1      -4.215  -1.811   9.762  1.00  0.00     0.015 A 
BRANCH  25  28
HETATM   28  O2  UNL     1      -4.858   1.229   7.784  1.00  0.00    -0.361 OA
ATOM     29  H2  UNL     1      -5.115   1.134   6.874  1.00  0.00     0.217 HD
ENDBRANCH  25  28
ENDBRANCH  20  22
ENDBRANCH  17  19
ENDBRANCH  12  15
ENDBRANCH   1  11
BRANCH  10  30
HETATM   30  C13 UNL     1       4.132  -9.022  11.850  1.00  0.00     0.178 C 
BRANCH  30  31
HETATM   31  O5  UNL     1       3.611  -9.516  13.068  1.00  0.00    -0.389 OA
ATOM     32  H5  UNL     1       3.503  -8.777  13.655  1.00  0.00     0.210 HD
ENDBRANCH  30  31
BRANCH  30  33
HETATM   33  C14 UNL     1       4.062 -10.149  10.889  1.00  0.00    -0.023 A 
HETATM   34  C15 UNL     1       3.342 -11.285  11.122  1.00  0.00     0.046 A 
HETATM   35  C16 UNL     1       3.320 -12.289  10.196  1.00  0.00     0.105 A 
HETATM   36  C17 UNL     1       4.020 -12.178   9.016  1.00  0.00     0.072 A 
HETATM   37  C18 UNL     1       4.758 -11.042   8.751  1.00  0.00     0.105 A 
HETATM   38  C19 UNL     1       4.767 -10.031   9.708  1.00  0.00     0.046 A 
BRANCH  35  39
HETATM   39  N7  UNL     1       2.561 -13.462  10.465  1.00  0.00    -0.116 N 
HETATM   40  O6  UNL     1       2.548 -14.442   9.697  1.00  0.00    -0.532 OA
HETATM   41  O7  UNL     1       1.810 -13.534  11.610  1.00  0.00    -0.532 OA
ENDBRANCH  35  39
BRANCH  37  42
HETATM   42  N8  UNL     1       5.486 -10.911   7.538  1.00  0.00    -0.116 N 
HETATM   43  O8  UNL     1       6.630 -11.364   7.436  1.00  0.00    -0.532 OA
HETATM   44  O9  UNL     1       4.920 -10.280   6.475  1.00  0.00    -0.532 OA
ENDBRANCH  37  42
ENDBRANCH  30  33
ENDBRANCH  10  30
TORSDOF 10
ENDMDL
MODEL 4
REMARK VINA RESULT: -8.913777185      3.291      5.184
REMARK  10 active torsions:
REMARK  status: ('A' for Active; 'I' for Inactive)
REMARK       I    between atoms: C1_2  and  N1_3 
REMARK    1  A    between atoms: C1_2  and  C9_16 
REMARK    2  A    between atoms: N1_3  and  N2_5 
REMARK    3  A    between atoms: C2_7  and  C3_8 
REMARK    4  A    between atoms: C6_11  and  O2_12 
REMARK       I    between atoms: C9_16  and  N3_18 
REMARK    5  A    between atoms: N3_18  and  C10_20 
REMARK    6  A    between atoms: C12_29  and  C13_30 
REMARK    7  A    between atoms: C13_30  and  O5_31 
REMARK    8  A    between atoms: C13_30  and  C14_33 
REMARK    9  A    between atoms: C16_35  and  N7_36 
REMARK   10  A    between atoms: C18_40  and  N8_41 
ROOT
HETATM    1  C10 UNL     1       1.899  -7.388  11.704  1.00  0.00     0.206 C 
HETATM    2  C11 UNL     1       2.178  -6.936  13.093  1.00  0.00     0.262 C 
HETATM    3  O4  UNL     1       1.382  -7.207  14.027  1.00  0.00    -0.269 OA
HETATM    4  N4  UNL     1       3.375  -6.196  13.300  1.00  0.00    -0.254 N 
ATOM      5  H4  UNL     1       3.465  -5.647  14.154  1.00  0.00     0.191 HD
HETATM    6  N5  UNL     1       4.428  -6.185  12.390  1.00  0.00    -0.244 N 
ATOM      7  H5  UNL     1       5.355  -5.833  12.629  1.00  0.00     0.208 HD
HETATM    8  N6  UNL     1       4.126  -6.681  11.154  1.00  0.00    -0.312 N 
ATOM      9  H6  UNL     1       4.522  -6.279  10.303  1.00  0.00     0.182 HD
HETATM   10  C12 UNL     1       3.232  -7.785  11.111  1.00  0.00     0.166 C 
ENDROOT
BRANCH   1  11
HETATM   11  N3  UNL     1       1.383  -6.286  10.894  1.00  0.00    -0.337 N 
HETATM   12  C9  UNL     1       0.460  -6.543   9.840  1.00  0.00     0.311 C 
HETATM   13  O3  UNL     1       0.084  -7.711   9.599  1.00  0.00    -0.262 OA
ATOM     14  H3  UNL     1       1.686  -5.330  11.084  1.00  0.00     0.163 HD
BRANCH  12  15
HETATM   15  C1  UNL     1      -0.056  -5.460   9.032  1.00  0.00     0.327 C 
HETATM   16  O1  UNL     1      -1.303  -5.265   8.988  1.00  0.00    -0.261 OA
HETATM   17  N1  UNL     1       0.779  -4.596   8.276  1.00  0.00    -0.262 N 
ATOM     18  H1  UNL     1       1.783  -4.768   8.324  1.00  0.00     0.190 HD
BRANCH  17  19
HETATM   19  N2  UNL     1       0.365  -3.553   7.489  1.00  0.00    -0.308 N 
HETATM   20  C2  UNL     1       1.076  -2.753   6.804  1.00  0.00     0.118 C 
ATOM     21  H2  UNL     1      -0.642  -3.400   7.447  1.00  0.00     0.186 HD
BRANCH  20  22
HETATM   22  C3  UNL     1       0.520  -1.671   5.997  1.00  0.00    -0.019 A 
HETATM   23  C4  UNL     1      -0.534  -1.926   5.157  1.00  0.00     0.015 A 
HETATM   24  C5  UNL     1      -1.099  -0.921   4.366  1.00  0.00     0.037 A 
HETATM   25  C6  UNL     1      -0.573   0.359   4.441  1.00  0.00     0.065 A 
HETATM   26  C7  UNL     1       0.494   0.637   5.285  1.00  0.00     0.037 A 
HETATM   27  C8  UNL     1       1.030  -0.393   6.059  1.00  0.00     0.015 A 
BRANCH  25  28
HETATM   28  O2  UNL     1      -1.130   1.373   3.655  1.00  0.00    -0.361 OA
ATOM     29  H2  UNL     1      -0.636   1.711   2.917  1.00  0.00     0.217 HD
ENDBRANCH  25  28
ENDBRANCH  20  22
ENDBRANCH  17  19
ENDBRANCH  12  15
ENDBRANCH   1  11
BRANCH  10  30
HETATM   30  C13 UNL     1       3.783  -9.025  11.774  1.00  0.00     0.178 C 
BRANCH  30  31
HETATM   31  O5  UNL     1       2.880  -9.400  12.796  1.00  0.00    -0.389 OA
ATOM     32  H5  UNL     1       3.365  -9.425  13.613  1.00  0.00     0.210 HD
ENDBRANCH  30  31
BRANCH  30  33
HETATM   33  C14 UNL     1       3.839 -10.173  10.838  1.00  0.00    -0.023 A 
HETATM   34  C15 UNL     1       3.199 -11.356  11.068  1.00  0.00     0.046 A 
HETATM   35  C16 UNL     1       3.292 -12.377  10.165  1.00  0.00     0.105 A 
HETATM   36  C17 UNL     1       4.029 -12.235   9.011  1.00  0.00     0.072 A 
HETATM   37  C18 UNL     1       4.688 -11.052   8.750  1.00  0.00     0.105 A 
HETATM   38  C19 UNL     1       4.581 -10.024   9.683  1.00  0.00     0.046 A 
BRANCH  35  39
HETATM   39  N7  UNL     1       2.615 -13.599  10.431  1.00  0.00    -0.116 N 
HETATM   40  O6  UNL     1       2.699 -14.590   9.680  1.00  0.00    -0.532 OA
HETATM   41  O7  UNL     1       1.834 -13.710  11.553  1.00  0.00    -0.532 OA
ENDBRANCH  35  39
BRANCH  37  42
HETATM   42  N8  UNL     1       5.454 -10.889   7.563  1.00  0.00    -0.116 N 
HETATM   43  O8  UNL     1       4.966 -10.347   6.567  1.00  0.00    -0.532 OA
HETATM   44  O9  UNL     1       6.738 -11.332   7.522  1.00  0.00    -0.532 OA
ENDBRANCH  37  42
ENDBRANCH  30  33
ENDBRANCH  10  30
TORSDOF 10
ENDMDL
MODEL 5
REMARK VINA RESULT: -8.885124965      3.273      5.077
REMARK  10 active torsions:
REMARK  status: ('A' for Active; 'I' for Inactive)
REMARK       I    between atoms: C1_2  and  N1_3 
REMARK    1  A    between atoms: C1_2  and  C9_16 
REMARK    2  A    between atoms: N1_3  and  N2_5 
REMARK    3  A    between atoms: C2_7  and  C3_8 
REMARK    4  A    between atoms: C6_11  and  O2_12 
REMARK       I    between atoms: C9_16  and  N3_18 
REMARK    5  A    between atoms: N3_18  and  C10_20 
REMARK    6  A    between atoms: C12_29  and  C13_30 
REMARK    7  A    between atoms: C13_30  and  O5_31 
REMARK    8  A    between atoms: C13_30  and  C14_33 
REMARK    9  A    between atoms: C16_35  and  N7_36 
REMARK   10  A    between atoms: C18_40  and  N8_41 
ROOT
HETATM    1  C10 UNL     1       1.889  -7.317  11.767  1.00  0.00     0.206 C 
HETATM    2  C11 UNL     1       2.196  -6.896  13.161  1.00  0.00     0.262 C 
HETATM    3  O4  UNL     1       1.408  -7.169  14.100  1.00  0.00    -0.269 OA
HETATM    4  N4  UNL     1       3.409  -6.182  13.364  1.00  0.00    -0.254 N 
ATOM      5  H4  UNL     1       3.521  -5.651  14.227  1.00  0.00     0.191 HD
HETATM    6  N5  UNL     1       4.450  -6.174  12.440  1.00  0.00    -0.244 N 
ATOM      7  H5  UNL     1       5.386  -5.844  12.672  1.00  0.00     0.208 HD
HETATM    8  N6  UNL     1       4.122  -6.641  11.199  1.00  0.00    -0.312 N 
ATOM      9  H6  UNL     1       4.514  -6.231  10.351  1.00  0.00     0.182 HD
HETATM   10  C12 UNL     1       3.207  -7.728  11.148  1.00  0.00     0.166 C 
ENDROOT
BRANCH   1  11
HETATM   11  N3  UNL     1       1.384  -6.190  10.985  1.00  0.00    -0.337 N 
HETATM   12  C9  UNL     1       0.412  -6.405   9.966  1.00  0.00     0.311 C 
HETATM   13  O3  UNL     1      -0.016  -7.558   9.732  1.00  0.00    -0.262 OA
ATOM     14  H3  UNL     1       1.729  -5.248  11.169  1.00  0.00     0.163 HD
BRANCH  12  15
HETATM   15  C1  UNL     1      -0.095  -5.298   9.185  1.00  0.00     0.327 C 
HETATM   16  O1  UNL     1      -1.284  -4.911   9.366  1.00  0.00    -0.261 OA
HETATM   17  N1  UNL     1       0.685  -4.619   8.214  1.00  0.00    -0.262 N 
ATOM     18  H1  UNL     1       1.643  -4.946   8.082  1.00  0.00     0.190 HD
BRANCH  17  19
HETATM   19  N2  UNL     1       0.277  -3.566   7.437  1.00  0.00    -0.308 N 
HETATM   20  C2  UNL     1       0.991  -2.768   6.753  1.00  0.00     0.118 C 
ATOM     21  H2  UNL     1      -0.730  -3.404   7.403  1.00  0.00     0.186 HD
BRANCH  20  22
HETATM   22  C3  UNL     1       0.439  -1.675   5.958  1.00  0.00    -0.019 A 
HETATM   23  C4  UNL     1      -0.659  -1.900   5.168  1.00  0.00     0.015 A 
HETATM   24  C5  UNL     1      -1.222  -0.884   4.390  1.00  0.00     0.037 A 
HETATM   25  C6  UNL     1      -0.647   0.377   4.426  1.00  0.00     0.065 A 
HETATM   26  C7  UNL     1       0.466   0.624   5.220  1.00  0.00     0.037 A 
HETATM   27  C8  UNL     1       0.997  -0.416   5.982  1.00  0.00     0.015 A 
BRANCH  25  28
HETATM   28  O2  UNL     1      -1.200   1.402   3.652  1.00  0.00    -0.361 OA
ATOM     29  H2  UNL     1      -0.912   2.296   3.793  1.00  0.00     0.217 HD
ENDBRANCH  25  28
ENDBRANCH  20  22
ENDBRANCH  17  19
ENDBRANCH  12  15
ENDBRANCH   1  11
BRANCH  10  30
HETATM   30  C13 UNL     1       3.743  -8.990  11.782  1.00  0.00     0.178 C 
BRANCH  30  31
HETATM   31  O5  UNL     1       2.790  -9.432  12.728  1.00  0.00    -0.389 OA
ATOM     32  H5  UNL     1       2.730  -8.768  13.406  1.00  0.00     0.210 HD
ENDBRANCH  30  31
BRANCH  30  33
HETATM   33  C14 UNL     1       3.877 -10.088  10.794  1.00  0.00    -0.023 A 
HETATM   34  C15 UNL     1       4.629  -9.984   9.660  1.00  0.00     0.046 A 
HETATM   35  C16 UNL     1       4.710 -11.032   8.788  1.00  0.00     0.105 A 
HETATM   36  C17 UNL     1       4.041 -12.210   9.034  1.00  0.00     0.072 A 
HETATM   37  C18 UNL     1       3.273 -12.346  10.173  1.00  0.00     0.105 A 
HETATM   38  C19 UNL     1       3.203 -11.266  11.047  1.00  0.00     0.046 A 
BRANCH  35  39
HETATM   39  N7  UNL     1       5.501 -10.895   7.614  1.00  0.00    -0.116 N 
HETATM   40  O6  UNL     1       6.692 -11.256   7.561  1.00  0.00    -0.532 OA
HETATM   41  O7  UNL     1       4.946 -10.347   6.485  1.00  0.00    -0.532 OA
ENDBRANCH  35  39
BRANCH  37  42
HETATM   42  N8  UNL     1       2.576 -13.555  10.442  1.00  0.00    -0.116 N 
HETATM   43  O8  UNL     1       1.866 -13.664  11.445  1.00  0.00    -0.532 OA
HETATM   44  O9  UNL     1       2.689 -14.605   9.586  1.00  0.00    -0.532 OA
ENDBRANCH  37  42
ENDBRANCH  30  33
ENDBRANCH  10  30
TORSDOF 10
ENDMDL
