MODEL 1
REMARK VINA RESULT: -8.982907526      0.000      0.000
REMARK  12 active torsions:
REMARK  status: ('A' for Active; 'I' for Inactive)
REMARK       I    between atoms: N1_2  and  C2_4 
REMARK    1  A    between atoms: C2_4  and  C3_6 
REMARK    2  A    between atoms: C3_6  and  N2_7 
REMARK    3  A    between atoms: C4_8  and  O2_9 
REMARK    4  A    between atoms: C5_11  and  O3_12 
REMARK    5  A    between atoms: C6_14  and  C7_15 
REMARK       I    between atoms: C7_15  and  N3_17 
REMARK    6  A    between atoms: N3_17  and  C8_19 
REMARK    7  A    between atoms: C8_19  and  C9_20 
REMARK    8  A    between atoms: C9_20  and  S1_21 
REMARK    9  A    between atoms: S1_21  and  C10_22 
REMARK   10  A    between atoms: C15_36  and  N7_37 
REMARK   11  A    between atoms: C16_40  and  O9_41 
REMARK   12  A    between atoms: C17_43  and  N8_44 
ROOT
HETATM    1  C7  UNL     1       3.566  -9.508  11.992  1.00  0.00     0.258 C 
HETATM    2  O4  UNL     1       2.383  -9.752  12.428  1.00  0.00    -0.267 OA
HETATM    3  N3  UNL     1       4.304  -8.632  12.803  1.00  0.00    -0.356 N 
ATOM      4  H3  UNL     1       5.255  -8.404  12.516  1.00  0.00     0.162 HD
ENDROOT
BRANCH   3   5
HETATM    5  C8  UNL     1       3.808  -8.038  14.011  1.00  0.00     0.133 C 
BRANCH   5   6
HETATM    6  C9  UNL     1       4.102  -6.620  14.260  1.00  0.00     0.100 C 
BRANCH   6   7
HETATM    7  S1  UNL     1       2.785  -5.475  13.696  1.00  0.00    -0.108 SA
BRANCH   7   8
HETATM    8  C10 UNL     1       2.629  -5.770  11.924  1.00  0.00     0.107 A 
HETATM    9  N4  UNL     1       3.484  -5.201  11.095  1.00  0.00    -0.334 N 
HETATM   10  C11 UNL     1       3.348  -5.411   9.782  1.00  0.00     0.128 A 
ATOM     11  H4  UNL     1       4.235  -4.611  11.450  1.00  0.00     0.168 HD
HETATM   12  N5  UNL     1       4.254  -4.803   8.962  1.00  0.00    -0.307 N 
HETATM   13  C14 UNL     1       2.336  -6.206   9.296  1.00  0.00     0.119 A 
HETATM   14  C12 UNL     1       4.111  -5.012   7.653  1.00  0.00     0.226 A 
ATOM     15  H5  UNL     1       5.002  -4.216   9.332  1.00  0.00     0.171 HD
HETATM   16  N6  UNL     1       4.958  -4.445   6.830  1.00  0.00    -0.365 N 
HETATM   17  O5  UNL     1       3.154  -5.766   7.184  1.00  0.00    -0.242 OA
ATOM     18  H62 UNL     1       5.706  -3.856   7.196  1.00  0.00     0.159 HD
ATOM     19  H61 UNL     1       4.849  -4.606   5.828  1.00  0.00     0.159 HD
HETATM   20  C13 UNL     1       2.258  -6.375   7.924  1.00  0.00     0.307 A 
HETATM   21  O6  UNL     1       1.360  -7.088   7.442  1.00  0.00    -0.259 OA
HETATM   22  C15 UNL     1       1.459  -6.790  10.154  1.00  0.00     0.158 A 
HETATM   23  C16 UNL     1       1.600  -6.574  11.505  1.00  0.00     0.134 A 
BRANCH  22  24
HETATM   24  N7  UNL     1       0.403  -7.616   9.705  1.00  0.00    -0.111 N 
HETATM   25  O7  UNL     1      -0.779  -7.163   9.617  1.00  0.00    -0.532 OA
HETATM   26  O8  UNL     1       0.570  -8.960   9.379  1.00  0.00    -0.532 OA
ENDBRANCH  22  24
BRANCH  23  27
HETATM   27  O9  UNL     1       0.746  -7.137  12.413  1.00  0.00    -0.356 OA
ATOM     28  H9  UNL     1       0.704  -8.080  12.514  1.00  0.00     0.218 HD
ENDBRANCH  23  27
ENDBRANCH   7   8
ENDBRANCH   6   7
ENDBRANCH   5   6
ENDBRANCH   3   5
BRANCH   1  29
HETATM   29  C6  UNL     1       3.968 -10.143  10.760  1.00  0.00     0.115 A 
HETATM   30  C5  UNL     1       4.714  -9.551   9.726  1.00  0.00     0.136 A 
HETATM   31  C4  UNL     1       4.911 -10.504   8.736  1.00  0.00     0.179 A 
HETATM   32  N2  UNL     1       4.325 -11.646   9.113  1.00  0.00    -0.301 N 
HETATM   33  C17 UNL     1       3.746 -11.446  10.338  1.00  0.00     0.143 A 
BRANCH  30  34
HETATM   34  O3  UNL     1       5.171  -8.253   9.692  1.00  0.00    -0.356 OA
ATOM     35  H3  UNL     1       5.394  -7.725  10.449  1.00  0.00     0.218 HD
ENDBRANCH  30  34
BRANCH  31  36
HETATM   36  O2  UNL     1       5.605 -10.279   7.560  1.00  0.00    -0.344 OA
ATOM     37  H2  UNL     1       6.547 -10.319   7.440  1.00  0.00     0.219 HD
ENDBRANCH  31  36
BRANCH  32  38
HETATM   38  C3  UNL     1       4.373 -12.913   8.379  1.00  0.00     0.235 C 
BRANCH  38  39
HETATM   39  C2  UNL     1       3.643 -12.924   7.112  1.00  0.00     0.235 C 
HETATM   40  N1  UNL     1       2.286 -13.312   7.113  1.00  0.00    -0.364 N 
HETATM   41  C1  UNL     1       1.537 -13.334   5.886  1.00  0.00     0.149 C 
ATOM     42  H1  UNL     1       1.835 -13.577   7.989  1.00  0.00     0.161 HD
HETATM   43  O1  UNL     1       4.167 -12.604   6.039  1.00  0.00    -0.272 OA
ENDBRANCH  38  39
ENDBRANCH  32  38
BRANCH  33  44
HETATM   44  N8  UNL     1       3.041 -12.451  11.053  1.00  0.00    -0.291 N 
HETATM   45  N9  UNL     1       1.788 -12.481  11.234  1.00  0.00    -0.344 N 
ATOM     46  H92 UNL     1       1.255 -11.713  10.826  1.00  0.00     0.176 HD
ATOM     47  H91 UNL     1       1.281 -13.203  11.748  1.00  0.00     0.176 HD
ATOM     48  H8  UNL     1       3.589 -13.212  11.454  1.00  0.00     0.188 HD
ENDBRANCH  33  44
ENDBRANCH   1  29
TORSDOF 12
ENDMDL
MODEL 2
REMARK VINA RESULT: -8.790364491      2.357      5.909
REMARK  12 active torsions:
REMARK  status: ('A' for Active; 'I' for Inactive)
REMARK       I    between atoms: N1_2  and  C2_4 
REMARK    1  A    between atoms: C2_4  and  C3_6 
REMARK    2  A    between atoms: C3_6  and  N2_7 
REMARK    3  A    between atoms: C4_8  and  O2_9 
REMARK    4  A    between atoms: C5_11  and  O3_12 
REMARK    5  A    between atoms: C6_14  and  C7_15 
REMARK       I    between atoms: C7_15  and  N3_17 
REMARK    6  A    between atoms: N3_17  and  C8_19 
REMARK    7  A    between atoms: C8_19  and  C9_20 
REMARK    8  A    between atoms: C9_20  and  S1_21 
REMARK    9  A    between atoms: S1_21  and  C10_22 
REMARK   10  A    between atoms: C15_36  and  N7_37 
REMARK   11  A    between atoms: C16_40  and  O9_41 
REMARK   12  A    between atoms: C17_43  and  N8_44 
ROOT
HETATM    1  C7  UNL     1       3.108  -5.564  11.749  1.00  0.00     0.258 C 
HETATM    2  O4  UNL     1       1.963  -5.621  12.327  1.00  0.00    -0.267 OA
HETATM    3  N3  UNL     1       4.193  -5.803  12.607  1.00  0.00    -0.356 N 
ATOM      4  H3  UNL     1       5.131  -5.780  12.208  1.00  0.00     0.162 HD
ENDROOT
BRANCH   3   5
HETATM    5  C8  UNL     1       4.069  -6.078  14.010  1.00  0.00     0.133 C 
BRANCH   5   6
HETATM    6  C9  UNL     1       4.366  -7.438  14.481  1.00  0.00     0.100 C 
BRANCH   6   7
HETATM    7  S1  UNL     1       3.011  -8.639  14.193  1.00  0.00    -0.108 SA
BRANCH   7   8
HETATM    8  C10 UNL     1       3.235  -9.207  12.496  1.00  0.00     0.107 A 
HETATM    9  N4  UNL     1       2.435  -8.753  11.550  1.00  0.00    -0.334 N 
HETATM   10  C11 UNL     1       2.598  -9.195  10.300  1.00  0.00     0.128 A 
ATOM     11  H4  UNL     1       1.705  -8.076  11.770  1.00  0.00     0.168 HD
HETATM   12  N5  UNL     1       1.748  -8.699   9.353  1.00  0.00    -0.307 N 
HETATM   13  C14 UNL     1       3.581 -10.108   9.997  1.00  0.00     0.119 A 
HETATM   14  C12 UNL     1       1.912  -9.146   8.108  1.00  0.00     0.226 A 
ATOM     15  H5  UNL     1       1.023  -8.020   9.588  1.00  0.00     0.171 HD
HETATM   16  N6  UNL     1       1.116  -8.697   7.169  1.00  0.00    -0.365 N 
HETATM   17  O5  UNL     1       2.843 -10.012   7.813  1.00  0.00    -0.242 OA
ATOM     18  H62 UNL     1       0.388  -8.021   7.400  1.00  0.00     0.159 HD
ATOM     19  H61 UNL     1       1.242  -9.039   6.216  1.00  0.00     0.159 HD
HETATM   20  C13 UNL     1       3.686 -10.520   8.679  1.00  0.00     0.307 A 
HETATM   21  O6  UNL     1       4.564 -11.343   8.361  1.00  0.00    -0.259 OA
HETATM   22  C15 UNL     1       4.402 -10.572  10.974  1.00  0.00     0.158 A 
HETATM   23  C16 UNL     1       4.234 -10.116  12.261  1.00  0.00     0.134 A 
BRANCH  22  24
HETATM   24  N7  UNL     1       5.427 -11.510  10.715  1.00  0.00    -0.111 N 
HETATM   25  O7  UNL     1       5.269 -12.736  10.999  1.00  0.00    -0.532 OA
HETATM   26  O8  UNL     1       6.667 -11.159  10.183  1.00  0.00    -0.532 OA
ENDBRANCH  22  24
BRANCH  23  27
HETATM   27  O9  UNL     1       5.033 -10.549  13.284  1.00  0.00    -0.356 OA
ATOM     28  H9  UNL     1       4.973 -11.444  13.596  1.00  0.00     0.218 HD
ENDBRANCH  23  27
ENDBRANCH   7   8
ENDBRANCH   6   7
ENDBRANCH   5   6
ENDBRANCH   3   5
BRANCH   1  29
HETATM   29  C6  UNL     1       3.130  -5.267  10.337  1.00  0.00     0.115 A 
HETATM   30  C5  UNL     1       4.010  -5.816   9.387  1.00  0.00     0.136 A 
HETATM   31  C4  UNL     1       3.682  -5.292   8.143  1.00  0.00     0.179 A 
HETATM   32  N2  UNL     1       2.649  -4.455   8.286  1.00  0.00    -0.301 N 
HETATM   33  C17 UNL     1       2.302  -4.425   9.611  1.00  0.00     0.143 A 
BRANCH  30  34
HETATM   34  O3  UNL     1       5.022  -6.713   9.638  1.00  0.00    -0.356 OA
ATOM     35  H3  UNL     1       5.214  -7.111  10.479  1.00  0.00     0.218 HD
ENDBRANCH  30  34
BRANCH  31  36
HETATM   36  O2  UNL     1       4.337  -5.605   6.966  1.00  0.00    -0.344 OA
ATOM     37  H2  UNL     1       5.273  -5.561   6.807  1.00  0.00     0.219 HD
ENDBRANCH  31  36
BRANCH  32  38
HETATM   38  C3  UNL     1       1.957  -3.759   7.198  1.00  0.00     0.235 C 
BRANCH  38  39
HETATM   39  C2  UNL     1       0.573  -4.176   6.976  1.00  0.00     0.235 C 
HETATM   40  N1  UNL     1       0.330  -5.388   6.295  1.00  0.00    -0.364 N 
HETATM   41  C1  UNL     1      -1.018  -5.830   6.060  1.00  0.00     0.149 C 
ATOM     42  H1  UNL     1       1.114  -5.952   5.969  1.00  0.00     0.161 HD
HETATM   43  O1  UNL     1      -0.393  -3.511   7.366  1.00  0.00    -0.272 OA
ENDBRANCH  38  39
ENDBRANCH  32  38
BRANCH  33  44
HETATM   44  N8  UNL     1       1.233  -3.646  10.131  1.00  0.00    -0.291 N 
HETATM   45  N9  UNL     1       0.081  -4.083  10.426  1.00  0.00    -0.344 N 
ATOM     46  H92 UNL     1      -0.076  -5.079  10.272  1.00  0.00     0.176 HD
ATOM     47  H91 UNL     1      -0.686  -3.523  10.798  1.00  0.00     0.176 HD
ATOM     48  H8  UNL     1       1.408  -2.652  10.278  1.00  0.00     0.188 HD
ENDBRANCH  33  44
ENDBRANCH   1  29
TORSDOF 12
ENDMDL
MODEL 3
REMARK VINA RESULT: -8.528203344      2.531      6.434
REMARK  12 active torsions:
REMARK  status: ('A' for Active; 'I' for Inactive)
REMARK       I    between atoms: N1_2  and  C2_4 
REMARK    1  A    between atoms: C2_4  and  C3_6 
REMARK    2  A    between atoms: C3_6  and  N2_7 
REMARK    3  A    between atoms: C4_8  and  O2_9 
REMARK    4  A    between atoms: C5_11  and  O3_12 
REMARK    5  A    between atoms: C6_14  and  C7_15 
REMARK       I    between atoms: C7_15  and  N3_17 
REMARK    6  A    between atoms: N3_17  and  C8_19 
REMARK    7  A    between atoms: C8_19  and  C9_20 
REMARK    8  A    between atoms: C9_20  and  S1_21 
REMARK    9  A    between atoms: S1_21  and  C10_22 
REMARK   10  A    between atoms: C15_36  and  N7_37 
REMARK   11  A    between atoms: C16_40  and  O9_41 
REMARK   12  A    between atoms: C17_43  and  N8_44 
ROOT
HETATM    1  C7  UNL     1       2.834  -5.522  11.499  1.00  0.00     0.258 C 
HETATM    2  O4  UNL     1       1.678  -5.714  12.026  1.00  0.00    -0.267 OA
HETATM    3  N3  UNL     1       3.899  -5.619  12.409  1.00  0.00    -0.356 N 
ATOM      4  H3  UNL     1       4.845  -5.484  12.053  1.00  0.00     0.162 HD
ENDROOT
BRANCH   3   5
HETATM    5  C8  UNL     1       3.744  -5.897  13.808  1.00  0.00     0.133 C 
BRANCH   5   6
HETATM    6  C9  UNL     1       4.207  -7.196  14.315  1.00  0.00     0.100 C 
BRANCH   6   7
HETATM    7  S1  UNL     1       2.987  -8.551  14.119  1.00  0.00    -0.108 SA
BRANCH   7   8
HETATM    8  C10 UNL     1       3.218  -9.156  12.436  1.00  0.00     0.107 A 
HETATM    9  N4  UNL     1       2.427  -8.716  11.476  1.00  0.00    -0.334 N 
HETATM   10  C11 UNL     1       2.594  -9.185  10.236  1.00  0.00     0.128 A 
ATOM     11  H4  UNL     1       1.700  -8.030  11.677  1.00  0.00     0.168 HD
HETATM   12  N5  UNL     1       1.753  -8.703   9.274  1.00  0.00    -0.307 N 
HETATM   13  C14 UNL     1       3.572 -10.110   9.958  1.00  0.00     0.119 A 
HETATM   14  C12 UNL     1       1.922  -9.176   8.039  1.00  0.00     0.226 A 
ATOM     15  H5  UNL     1       1.032  -8.014   9.490  1.00  0.00     0.171 HD
HETATM   16  N6  UNL     1       1.135  -8.742   7.086  1.00  0.00    -0.365 N 
HETATM   17  O5  UNL     1       2.849 -10.055   7.768  1.00  0.00    -0.242 OA
ATOM     18  H62 UNL     1       0.410  -8.056   7.299  1.00  0.00     0.159 HD
ATOM     19  H61 UNL     1       1.264  -9.105   6.141  1.00  0.00     0.159 HD
HETATM   20  C13 UNL     1       3.684 -10.551   8.649  1.00  0.00     0.307 A 
HETATM   21  O6  UNL     1       4.557 -11.386   8.354  1.00  0.00    -0.259 OA
HETATM   22  C15 UNL     1       4.385 -10.560  10.950  1.00  0.00     0.158 A 
HETATM   23  C16 UNL     1       4.212 -10.076  12.226  1.00  0.00     0.134 A 
BRANCH  22  24
HETATM   24  N7  UNL     1       5.405 -11.509  10.716  1.00  0.00    -0.111 N 
HETATM   25  O7  UNL     1       5.237 -12.728  11.026  1.00  0.00    -0.532 OA
HETATM   26  O8  UNL     1       6.650 -11.178  10.185  1.00  0.00    -0.532 OA
ENDBRANCH  22  24
BRANCH  23  27
HETATM   27  O9  UNL     1       5.001 -10.493  13.262  1.00  0.00    -0.356 OA
ATOM     28  H9  UNL     1       5.579  -9.882  13.704  1.00  0.00     0.218 HD
ENDBRANCH  23  27
ENDBRANCH   7   8
ENDBRANCH   6   7
ENDBRANCH   5   6
ENDBRANCH   3   5
BRANCH   1  29
HETATM   29  C6  UNL     1       2.886  -5.234  10.086  1.00  0.00     0.115 A 
HETATM   30  C5  UNL     1       3.842  -5.718   9.176  1.00  0.00     0.136 A 
HETATM   31  C4  UNL     1       3.520  -5.232   7.915  1.00  0.00     0.179 A 
HETATM   32  N2  UNL     1       2.419  -4.478   8.011  1.00  0.00    -0.301 N 
HETATM   33  C17 UNL     1       2.021  -4.467   9.321  1.00  0.00     0.143 A 
BRANCH  30  34
HETATM   34  O3  UNL     1       4.912  -6.529   9.473  1.00  0.00    -0.356 OA
ATOM     35  H3  UNL     1       5.454  -6.468  10.250  1.00  0.00     0.218 HD
ENDBRANCH  30  34
BRANCH  31  36
HETATM   36  O2  UNL     1       4.242  -5.500   6.766  1.00  0.00    -0.344 OA
ATOM     37  H2  UNL     1       5.103  -5.164   6.544  1.00  0.00     0.219 HD
ENDBRANCH  31  36
BRANCH  32  38
HETATM   38  C3  UNL     1       1.716  -3.848   6.890  1.00  0.00     0.235 C 
BRANCH  38  39
HETATM   39  C2  UNL     1       1.733  -2.386   6.890  1.00  0.00     0.235 C 
HETATM   40  N1  UNL     1       1.036  -1.699   5.874  1.00  0.00    -0.364 N 
HETATM   41  C1  UNL     1       1.031  -0.261   5.842  1.00  0.00     0.149 C 
ATOM     42  H1  UNL     1       0.533  -2.225   5.159  1.00  0.00     0.161 HD
HETATM   43  O1  UNL     1       2.332  -1.727   7.747  1.00  0.00    -0.272 OA
ENDBRANCH  38  39
ENDBRANCH  32  38
BRANCH  33  44
HETATM   44  N8  UNL     1       0.874  -3.771   9.793  1.00  0.00    -0.291 N 
HETATM   45  N9  UNL     1      -0.254  -4.294  10.034  1.00  0.00    -0.344 N 
ATOM     46  H92 UNL     1      -0.329  -5.298   9.871  1.00  0.00     0.176 HD
ATOM     47  H91 UNL     1      -1.077  -3.795  10.372  1.00  0.00     0.176 HD
ATOM     48  H8  UNL     1       0.968  -2.768   9.950  1.00  0.00     0.188 HD
ENDBRANCH  33  44
ENDBRANCH   1  29
TORSDOF 12
ENDMDL
MODEL 4
REMARK VINA RESULT: -8.501217432      1.718      2.007
REMARK  12 active torsions:
REMARK  status: ('A' for Active; 'I' for Inactive)
REMARK       I    between atoms: N1_2  and  C2_4 
REMARK    1  A    between atoms: C2_4  and  C3_6 
REMARK    2  A    between atoms: C3_6  and  N2_7 
REMARK    3  A    between atoms: C4_8  and  O2_9 
REMARK    4  A    between atoms: C5_11  and  O3_12 
REMARK    5  A    between atoms: C6_14  and  C7_15 
REMARK       I    between atoms: C7_15  and  N3_17 
REMARK    6  A    between atoms: N3_17  and  C8_19 
REMARK    7  A    between atoms: C8_19  and  C9_20 
REMARK    8  A    between atoms: C9_20  and  S1_21 
REMARK    9  A    between atoms: S1_21  and  C10_22 
REMARK   10  A    between atoms: C15_36  and  N7_37 
REMARK   11  A    between atoms: C16_40  and  O9_41 
REMARK   12  A    between atoms: C17_43  and  N8_44 
ROOT
HETATM    1  C7  UNL     1       2.773  -8.755  12.174  1.00  0.00     0.258 C 
HETATM    2  O4  UNL     1       1.541  -8.462  11.960  1.00  0.00    -0.267 OA
HETATM    3  N3  UNL     1       3.286  -8.225  13.369  1.00  0.00    -0.356 N 
ATOM      4  H3  UNL     1       4.258  -8.428  13.602  1.00  0.00     0.162 HD
ENDROOT
BRANCH   3   5
HETATM    5  C8  UNL     1       2.532  -7.417  14.284  1.00  0.00     0.133 C 
BRANCH   5   6
HETATM    6  C9  UNL     1       3.163  -6.204  14.823  1.00  0.00     0.100 C 
BRANCH   6   7
HETATM    7  S1  UNL     1       2.421  -4.643  14.209  1.00  0.00    -0.108 SA
BRANCH   7   8
HETATM    8  C10 UNL     1       2.129  -4.916  12.451  1.00  0.00     0.107 A 
HETATM    9  N4  UNL     1       3.127  -4.770  11.599  1.00  0.00    -0.334 N 
HETATM   10  C11 UNL     1       2.895  -4.956  10.297  1.00  0.00     0.128 A 
ATOM     11  H4  UNL     1       4.058  -4.518  11.930  1.00  0.00     0.168 HD
HETATM   12  N5  UNL     1       3.955  -4.793   9.451  1.00  0.00    -0.307 N 
HETATM   13  C14 UNL     1       1.642  -5.295   9.844  1.00  0.00     0.119 A 
HETATM   14  C12 UNL     1       3.719  -4.977   8.152  1.00  0.00     0.226 A 
ATOM     15  H5  UNL     1       4.882  -4.544   9.797  1.00  0.00     0.171 HD
HETATM   16  N6  UNL     1       4.708  -4.828   7.306  1.00  0.00    -0.365 N 
HETATM   17  O5  UNL     1       2.532  -5.299   7.715  1.00  0.00    -0.242 OA
ATOM     18  H62 UNL     1       5.636  -4.576   7.647  1.00  0.00     0.159 HD
ATOM     19  H61 UNL     1       4.527  -4.969   6.312  1.00  0.00     0.159 HD
HETATM   20  C13 UNL     1       1.480  -5.470   8.480  1.00  0.00     0.307 A 
HETATM   21  O6  UNL     1       0.362  -5.779   8.028  1.00  0.00    -0.259 OA
HETATM   22  C15 UNL     1       0.619  -5.446  10.725  1.00  0.00     0.158 A 
HETATM   23  C16 UNL     1       0.858  -5.254  12.066  1.00  0.00     0.134 A 
BRANCH  22  24
HETATM   24  N7  UNL     1      -0.687  -5.794  10.311  1.00  0.00    -0.111 N 
HETATM   25  O7  UNL     1      -1.583  -4.905  10.183  1.00  0.00    -0.532 OA
HETATM   26  O8  UNL     1      -1.086  -7.106  10.063  1.00  0.00    -0.532 OA
ENDBRANCH  22  24
BRANCH  23  27
HETATM   27  O9  UNL     1      -0.135  -5.393  12.997  1.00  0.00    -0.356 OA
ATOM     28  H9  UNL     1      -0.235  -4.755  13.693  1.00  0.00     0.218 HD
ENDBRANCH  23  27
ENDBRANCH   7   8
ENDBRANCH   6   7
ENDBRANCH   5   6
ENDBRANCH   3   5
BRANCH   1  29
HETATM   29  C6  UNL     1       3.450  -9.562  11.188  1.00  0.00     0.115 A 
HETATM   30  C5  UNL     1       4.771 -10.035  11.267  1.00  0.00     0.136 A 
HETATM   31  C4  UNL     1       5.027 -10.793  10.133  1.00  0.00     0.179 A 
HETATM   32  N2  UNL     1       3.930 -10.807   9.367  1.00  0.00    -0.301 N 
HETATM   33  C17 UNL     1       2.963 -10.064   9.990  1.00  0.00     0.143 A 
BRANCH  30  34
HETATM   34  O3  UNL     1       5.663  -9.792  12.287  1.00  0.00    -0.356 OA
ATOM     35  H3  UNL     1       5.506  -9.956  13.210  1.00  0.00     0.218 HD
ENDBRANCH  30  34
BRANCH  31  36
HETATM   36  O2  UNL     1       6.231 -11.420   9.865  1.00  0.00    -0.344 OA
ATOM     37  H2  UNL     1       6.940 -11.084   9.330  1.00  0.00     0.219 HD
ENDBRANCH  31  36
BRANCH  32  38
HETATM   38  C3  UNL     1       3.768 -11.561   8.121  1.00  0.00     0.235 C 
BRANCH  38  39
HETATM   39  C2  UNL     1       4.294 -10.904   6.925  1.00  0.00     0.235 C 
HETATM   40  N1  UNL     1       3.430 -10.696   5.829  1.00  0.00    -0.364 N 
HETATM   41  C1  UNL     1       3.913 -10.053   4.637  1.00  0.00     0.149 C 
ATOM     42  H1  UNL     1       2.460 -11.004   5.883  1.00  0.00     0.161 HD
HETATM   43  O1  UNL     1       5.466 -10.519   6.838  1.00  0.00    -0.272 OA
ENDBRANCH  38  39
ENDBRANCH  32  38
BRANCH  33  44
HETATM   44  N8  UNL     1       1.657  -9.867   9.466  1.00  0.00    -0.291 N 
HETATM   45  N9  UNL     1       1.249  -8.818   8.884  1.00  0.00    -0.344 N 
ATOM     46  H92 UNL     1       1.928  -8.062   8.792  1.00  0.00     0.176 HD
ATOM     47  H91 UNL     1       0.312  -8.677   8.508  1.00  0.00     0.176 HD
ATOM     48  H8  UNL     1       0.992 -10.634   9.567  1.00  0.00     0.188 HD
ENDBRANCH  33  44
ENDBRANCH   1  29
TORSDOF 12
ENDMDL
MODEL 5
REMARK VINA RESULT: -8.480422440      2.802      7.363
REMARK  12 active torsions:
REMARK  status: ('A' for Active; 'I' for Inactive)
REMARK       I    between atoms: N1_2  and  C2_4 
REMARK    1  A    between atoms: C2_4  and  C3_6 
REMARK    2  A    between atoms: C3_6  and  N2_7 
REMARK    3  A    between atoms: C4_8  and  O2_9 
REMARK    4  A    between atoms: C5_11  and  O3_12 
REMARK    5  A    between atoms: C6_14  and  C7_15 
REMARK       I    between atoms: C7_15  and  N3_17 
REMARK    6  A    between atoms: N3_17  and  C8_19 
REMARK    7  A    between atoms: C8_19  and  C9_20 
REMARK    8  A    between atoms: C9_20  and  S1_21 
REMARK    9  A    between atoms: S1_21  and  C10_22 
REMARK   10  A    between atoms: C15_36  and  N7_37 
REMARK   11  A    between atoms: C16_40  and  O9_41 
REMARK   12  A    between atoms: C17_43  and  N8_44 
ROOT
HETATM    1  C7  UNL     1       2.896  -8.097  10.312  1.00  0.00     0.258 C 
HETATM    2  O4  UNL     1       3.918  -8.398   9.594  1.00  0.00    -0.267 OA
HETATM    3  N3  UNL     1       1.824  -7.560   9.582  1.00  0.00    -0.356 N 
ATOM      4  H3  UNL     1       0.978  -7.307  10.094  1.00  0.00     0.162 HD
ENDROOT
BRANCH   3   5
HETATM    5  C8  UNL     1       1.839  -7.344   8.164  1.00  0.00     0.133 C 
BRANCH   5   6
HETATM    6  C9  UNL     1       0.761  -7.935   7.359  1.00  0.00     0.100 C 
BRANCH   6   7
HETATM    7  S1  UNL     1       1.288  -9.373   6.350  1.00  0.00    -0.108 SA
BRANCH   7   8
HETATM    8  C10 UNL     1       2.054 -10.515   7.517  1.00  0.00     0.107 A 
HETATM    9  N4  UNL     1       1.329 -11.023   8.495  1.00  0.00    -0.334 N 
HETATM   10  C11 UNL     1       1.911 -11.854   9.365  1.00  0.00     0.128 A 
ATOM     11  H4  UNL     1       0.341 -10.786   8.586  1.00  0.00     0.168 HD
HETATM   12  N5  UNL     1       1.124 -12.356  10.362  1.00  0.00    -0.307 N 
HETATM   13  C14 UNL     1       3.242 -12.177   9.249  1.00  0.00     0.119 A 
HETATM   14  C12 UNL     1       1.710 -13.181  11.230  1.00  0.00     0.226 A 
ATOM     15  H5  UNL     1       0.136 -12.111  10.438  1.00  0.00     0.171 HD
HETATM   16  N6  UNL     1       0.991 -13.683  12.203  1.00  0.00    -0.365 N 
HETATM   17  O5  UNL     1       2.973 -13.493  11.125  1.00  0.00    -0.242 OA
ATOM     18  H62 UNL     1       0.004 -13.439  12.285  1.00  0.00     0.159 HD
ATOM     19  H61 UNL     1       1.440 -14.315  12.867  1.00  0.00     0.159 HD
HETATM   20  C13 UNL     1       3.775 -13.043  10.190  1.00  0.00     0.307 A 
HETATM   21  O6  UNL     1       4.975 -13.364  10.121  1.00  0.00    -0.259 OA
HETATM   22  C15 UNL     1       3.984 -11.652   8.240  1.00  0.00     0.158 A 
HETATM   23  C16 UNL     1       3.384 -10.797   7.344  1.00  0.00     0.134 A 
BRANCH  22  24
HETATM   24  N7  UNL     1       5.355 -11.953   8.076  1.00  0.00    -0.111 N 
HETATM   25  O7  UNL     1       5.726 -12.872   7.284  1.00  0.00    -0.532 OA
HETATM   26  O8  UNL     1       6.368 -11.311   8.786  1.00  0.00    -0.532 OA
ENDBRANCH  22  24
BRANCH  23  27
HETATM   27  O9  UNL     1       4.082 -10.240   6.308  1.00  0.00    -0.356 OA
ATOM     28  H9  UNL     1       3.625  -9.816   5.592  1.00  0.00     0.218 HD
ENDBRANCH  23  27
ENDBRANCH   7   8
ENDBRANCH   6   7
ENDBRANCH   5   6
ENDBRANCH   3   5
BRANCH   1  29
HETATM   29  C6  UNL     1       2.983  -8.339  11.732  1.00  0.00     0.115 A 
HETATM   30  C5  UNL     1       1.991  -8.047  12.685  1.00  0.00     0.136 A 
HETATM   31  C4  UNL     1       2.454  -8.458  13.928  1.00  0.00     0.179 A 
HETATM   32  N2  UNL     1       3.675  -8.984  13.782  1.00  0.00    -0.301 N 
HETATM   33  C17 UNL     1       4.013  -8.919  12.456  1.00  0.00     0.143 A 
BRANCH  30  34
HETATM   34  O3  UNL     1       0.773  -7.457  12.439  1.00  0.00    -0.356 OA
ATOM     35  H3  UNL     1      -0.034  -7.636  12.909  1.00  0.00     0.218 HD
ENDBRANCH  30  34
BRANCH  31  36
HETATM   36  O2  UNL     1       1.745  -8.330  15.109  1.00  0.00    -0.344 OA
ATOM     37  H2  UNL     1       1.908  -8.792  15.923  1.00  0.00     0.219 HD
ENDBRANCH  31  36
BRANCH  32  38
HETATM   38  C3  UNL     1       4.472  -9.602  14.845  1.00  0.00     0.235 C 
BRANCH  38  39
HETATM   39  C2  UNL     1       4.986  -8.676  15.854  1.00  0.00     0.235 C 
HETATM   40  N1  UNL     1       4.567  -7.329  15.814  1.00  0.00    -0.364 N 
HETATM   41  C1  UNL     1       5.051  -6.391  16.791  1.00  0.00     0.149 C 
ATOM     42  H1  UNL     1       3.919  -7.021  15.090  1.00  0.00     0.161 HD
HETATM   43  O1  UNL     1       5.769  -9.028  16.743  1.00  0.00    -0.272 OA
ENDBRANCH  38  39
ENDBRANCH  32  38
BRANCH  33  44
HETATM   44  N8  UNL     1       5.243  -9.399  11.929  1.00  0.00    -0.291 N 
HETATM   45  N9  UNL     1       5.467 -10.587  11.552  1.00  0.00    -0.344 N 
ATOM     46  H92 UNL     1       4.690 -11.241  11.641  1.00  0.00     0.176 HD
ATOM     47  H91 UNL     1       6.350 -10.931  11.175  1.00  0.00     0.176 HD
ATOM     48  H8  UNL     1       6.009  -8.730  11.847  1.00  0.00     0.188 HD
ENDBRANCH  33  44
ENDBRANCH   1  29
TORSDOF 12
ENDMDL
