MODEL 1
REMARK VINA RESULT: -9.812604351      0.000      0.000
REMARK  14 active torsions:
REMARK  status: ('A' for Active; 'I' for Inactive)
REMARK    1  A    between atoms: C2_2  and  N1_3 
REMARK    2  A    between atoms: C2_2  and  C28_43 
REMARK    3  A    between atoms: N1_3  and  C3_4 
REMARK    4  A    between atoms: C3_4  and  C4_5 
REMARK    5  A    between atoms: C3_4  and  C24_39 
REMARK       I    between atoms: C4_5  and  N2_7 
REMARK       I    between atoms: N2_7  and  C5_9 
REMARK    6  A    between atoms: C5_9  and  C6_11 
REMARK       I    between atoms: N3_15  and  C10_16 
REMARK    7  A    between atoms: C10_16  and  C11_18 
REMARK    8  A    between atoms: C11_18  and  N4_20 
REMARK       I    between atoms: N4_20  and  C13_22 
REMARK    9  A    between atoms: C13_22  and  C14_24 
REMARK   10  A    between atoms: N5_28  and  C18_29 
REMARK   11  A    between atoms: C18_29  and  O5_30 
REMARK   12  A    between atoms: C18_29  and  N6_32 
REMARK   13  A    between atoms: C28_43  and  O7_46 
REMARK   14  A    between atoms: O7_46  and  S1_47 
ROOT
HETATM    1  C6  UNL     1       7.582   0.710 -11.421  1.00  0.00     0.179 C 
HETATM    2  C7  UNL     1       7.209   2.103 -10.951  1.00  0.00     0.037 C 
HETATM    3  C8  UNL     1       7.103   1.961  -9.471  1.00  0.00     0.022 C 
HETATM    4  C9  UNL     1       7.245   0.511  -9.130  1.00  0.00     0.127 C 
HETATM    5  N3  UNL     1       7.097  -0.178 -10.384  1.00  0.00    -0.337 N 
HETATM    6  C10 UNL     1       6.586  -1.468 -10.569  1.00  0.00     0.243 C 
HETATM    7  O3  UNL     1       6.211  -2.116  -9.537  1.00  0.00    -0.271 OA
ENDROOT
BRANCH   1   8
HETATM    8  C5  UNL     1       9.058   0.687 -11.500  1.00  0.00     0.247 C 
HETATM    9  N2  UNL     1       9.830   1.610 -10.746  1.00  0.00    -0.293 N 
HETATM   10  C4  UNL     1      11.258   1.606 -10.860  1.00  0.00     0.260 C 
ATOM     11  H2  UNL     1       9.369   2.274 -10.124  1.00  0.00     0.172 HD
HETATM   12  O1  UNL     1      11.769   0.754 -11.616  1.00  0.00    -0.270 OA
HETATM   13  O2  UNL     1       9.599  -0.158 -12.244  1.00  0.00    -0.271 OA
BRANCH  10  14
HETATM   14  C3  UNL     1      12.147   2.576 -10.119  1.00  0.00     0.262 C 
BRANCH  14  15
HETATM   15  N1  UNL     1      13.349   2.713 -10.671  1.00  0.00    -0.438 NA
BRANCH  15  16
HETATM   16  C2  UNL     1      14.436   2.900 -11.090  1.00  0.00     0.088 C 
HETATM   17  C1  UNL     1      15.416   3.811 -10.392  1.00  0.00     0.083 C 
BRANCH  16  18
HETATM   18  C28 UNL     1      14.997   2.248 -12.309  1.00  0.00     0.126 C 
HETATM   19  C29 UNL     1      16.290   3.029 -12.603  1.00  0.00     0.055 C 
HETATM   20  C30 UNL     1      14.094   2.355 -13.482  1.00  0.00     0.055 C 
BRANCH  18  21
HETATM   21  O7  UNL     1      15.268   0.932 -11.936  1.00  0.00    -0.239 OA
BRANCH  21  22
HETATM   22  S1  UNL     1      16.524   0.226 -12.748  1.00  0.00     0.252 S 
HETATM   23  O8  UNL     1      16.299  -1.264 -12.778  1.00  0.00    -0.572 OA
HETATM   24  O9  UNL     1      16.812   0.817 -14.078  1.00  0.00    -0.572 OA
HETATM   25  O10 UNL     1      17.929   0.441 -11.809  1.00  0.00    -0.572 OA
ENDBRANCH  21  22
ENDBRANCH  18  21
ENDBRANCH  16  18
ENDBRANCH  15  16
ENDBRANCH  14  15
BRANCH  14  26
HETATM   26  C24 UNL     1      12.237   2.157  -8.646  1.00  0.00    -0.010 C 
HETATM   27  C25 UNL     1      10.947   1.650  -8.083  1.00  0.00     0.018 C 
HETATM   28  C26 UNL     1      13.188   0.930  -8.632  1.00  0.00     0.018 C 
HETATM   29  C27 UNL     1      12.910   3.167  -7.779  1.00  0.00     0.018 C 
ENDBRANCH  14  26
ENDBRANCH  10  14
ENDBRANCH   1   8
BRANCH   6  30
HETATM   30  C11 UNL     1       6.441  -2.143 -11.857  1.00  0.00     0.172 C 
HETATM   31  C12 UNL     1       7.483  -3.222 -12.063  1.00  0.00     0.042 C 
BRANCH  30  32
HETATM   32  N4  UNL     1       5.114  -2.716 -12.033  1.00  0.00    -0.346 N 
HETATM   33  C13 UNL     1       3.910  -2.022 -12.130  1.00  0.00     0.241 C 
HETATM   34  O4  UNL     1       3.838  -0.763 -12.056  1.00  0.00    -0.271 OA
ATOM     35  H4  UNL     1       5.061  -3.733 -12.091  1.00  0.00     0.163 HD
BRANCH  33  36
HETATM   36  C14 UNL     1       2.619  -2.750 -12.331  1.00  0.00     0.179 C 
HETATM   37  C15 UNL     1       2.776  -3.758 -13.471  1.00  0.00     0.037 C 
HETATM   38  C16 UNL     1       2.765  -2.880 -14.715  1.00  0.00     0.022 C 
HETATM   39  C17 UNL     1       1.838  -1.742 -14.311  1.00  0.00     0.127 C 
HETATM   40  N5  UNL     1       1.581  -1.883 -12.900  1.00  0.00    -0.334 N 
BRANCH  40  41
HETATM   41  C18 UNL     1       0.505  -1.327 -12.160  1.00  0.00     0.218 C 
BRANCH  41  42
HETATM   42  O5  UNL     1       0.614  -0.041 -11.988  1.00  0.00    -0.332 OA
ATOM     43  H5  UNL     1       0.269   0.463 -12.715  1.00  0.00     0.220 HD
ENDBRANCH  41  42
BRANCH  41  44
HETATM   44  N6  UNL     1      -0.614  -1.928 -11.607  1.00  0.00    -0.347 N 
HETATM   45  C19 UNL     1      -1.647  -1.346 -10.790  1.00  0.00     0.134 C 
HETATM   46  C20 UNL     1      -2.937  -1.170 -11.577  1.00  0.00     0.098 C 
HETATM   47  C21 UNL     1      -2.913  -2.242 -12.630  1.00  0.00     0.130 C 
HETATM   48  O6  UNL     1      -3.364  -2.000 -13.725  1.00  0.00    -0.298 OA
HETATM   49  C22 UNL     1      -2.327  -3.556 -12.256  1.00  0.00     0.098 C 
HETATM   50  C23 UNL     1      -0.851  -3.383 -11.885  1.00  0.00     0.134 C 
ENDBRANCH  41  44
ENDBRANCH  40  41
ENDBRANCH  33  36
ENDBRANCH  30  32
ENDBRANCH   6  30
TORSDOF 14
ENDMDL
MODEL 2
REMARK VINA RESULT: -9.672328335      3.786      4.987
REMARK  14 active torsions:
REMARK  status: ('A' for Active; 'I' for Inactive)
REMARK    1  A    between atoms: C2_2  and  N1_3 
REMARK    2  A    between atoms: C2_2  and  C28_43 
REMARK    3  A    between atoms: N1_3  and  C3_4 
REMARK    4  A    between atoms: C3_4  and  C4_5 
REMARK    5  A    between atoms: C3_4  and  C24_39 
REMARK       I    between atoms: C4_5  and  N2_7 
REMARK       I    between atoms: N2_7  and  C5_9 
REMARK    6  A    between atoms: C5_9  and  C6_11 
REMARK       I    between atoms: N3_15  and  C10_16 
REMARK    7  A    between atoms: C10_16  and  C11_18 
REMARK    8  A    between atoms: C11_18  and  N4_20 
REMARK       I    between atoms: N4_20  and  C13_22 
REMARK    9  A    between atoms: C13_22  and  C14_24 
REMARK   10  A    between atoms: N5_28  and  C18_29 
REMARK   11  A    between atoms: C18_29  and  O5_30 
REMARK   12  A    between atoms: C18_29  and  N6_32 
REMARK   13  A    between atoms: C28_43  and  O7_46 
REMARK   14  A    between atoms: O7_46  and  S1_47 
ROOT
HETATM    1  C6  UNL     1       5.764   2.104 -14.561  1.00  0.00     0.179 C 
HETATM    2  C7  UNL     1       5.863   2.931 -15.829  1.00  0.00     0.037 C 
HETATM    3  C8  UNL     1       4.846   4.004 -15.632  1.00  0.00     0.022 C 
HETATM    4  C9  UNL     1       4.084   3.699 -14.380  1.00  0.00     0.127 C 
HETATM    5  N3  UNL     1       4.424   2.338 -14.063  1.00  0.00    -0.337 N 
HETATM    6  C10 UNL     1       3.614   1.413 -13.395  1.00  0.00     0.243 C 
HETATM    7  O3  UNL     1       2.457   1.794 -13.016  1.00  0.00    -0.271 OA
ENDROOT
BRANCH   1   8
HETATM    8  C5  UNL     1       6.782   2.647 -13.638  1.00  0.00     0.247 C 
HETATM    9  N2  UNL     1       7.338   1.826 -12.622  1.00  0.00    -0.293 N 
HETATM   10  C4  UNL     1       8.295   2.373 -11.706  1.00  0.00     0.260 C 
ATOM     11  H2  UNL     1       7.057   0.849 -12.544  1.00  0.00     0.172 HD
HETATM   12  O1  UNL     1       8.620   3.568 -11.865  1.00  0.00    -0.270 OA
HETATM   13  O2  UNL     1       7.132   3.838 -13.776  1.00  0.00    -0.271 OA
BRANCH  10  14
HETATM   14  C3  UNL     1       8.906   1.576 -10.579  1.00  0.00     0.262 C 
BRANCH  14  15
HETATM   15  N1  UNL     1       9.406   0.408 -10.971  1.00  0.00    -0.438 NA
BRANCH  15  16
HETATM   16  C2  UNL     1       9.877  -0.584 -11.402  1.00  0.00     0.088 C 
HETATM   17  C1  UNL     1      11.164  -1.158 -10.861  1.00  0.00     0.083 C 
BRANCH  16  18
HETATM   18  C28 UNL     1       9.266  -1.413 -12.481  1.00  0.00     0.126 C 
HETATM   19  C29 UNL     1       9.873  -0.860 -13.783  1.00  0.00     0.055 C 
HETATM   20  C30 UNL     1       7.790  -1.275 -12.542  1.00  0.00     0.055 C 
BRANCH  18  21
HETATM   21  O7  UNL     1       9.690  -2.718 -12.234  1.00  0.00    -0.239 OA
BRANCH  21  22
HETATM   22  S1  UNL     1       8.471  -3.813 -12.011  1.00  0.00     0.252 S 
HETATM   23  O8  UNL     1       7.656  -3.387 -10.817  1.00  0.00    -0.572 OA
HETATM   24  O9  UNL     1       7.660  -4.093 -13.222  1.00  0.00    -0.572 OA
HETATM   25  O10 UNL     1       9.183  -5.291 -11.555  1.00  0.00    -0.572 OA
ENDBRANCH  21  22
ENDBRANCH  18  21
ENDBRANCH  16  18
ENDBRANCH  15  16
ENDBRANCH  14  15
BRANCH  14  26
HETATM   26  C24 UNL     1       7.871   1.409  -9.458  1.00  0.00    -0.010 C 
HETATM   27  C25 UNL     1       7.352   0.013  -9.319  1.00  0.00     0.018 C 
HETATM   28  C26 UNL     1       8.652   1.677  -8.143  1.00  0.00     0.018 C 
HETATM   29  C27 UNL     1       6.798   2.445  -9.478  1.00  0.00     0.018 C 
ENDBRANCH  14  26
ENDBRANCH  10  14
ENDBRANCH   1   8
BRANCH   6  30
HETATM   30  C11 UNL     1       3.982   0.031 -13.092  1.00  0.00     0.172 C 
HETATM   31  C12 UNL     1       4.819  -0.079 -11.834  1.00  0.00     0.042 C 
BRANCH  30  32
HETATM   32  N4  UNL     1       2.819  -0.836 -12.972  1.00  0.00    -0.346 N 
HETATM   33  C13 UNL     1       2.803  -2.228 -13.041  1.00  0.00     0.241 C 
HETATM   34  O4  UNL     1       3.844  -2.915 -13.239  1.00  0.00    -0.271 OA
ATOM     35  H4  UNL     1       1.921  -0.376 -12.823  1.00  0.00     0.163 HD
BRANCH  33  36
HETATM   36  C14 UNL     1       1.525  -2.989 -12.880  1.00  0.00     0.179 C 
HETATM   37  C15 UNL     1       1.420  -4.045 -13.983  1.00  0.00     0.037 C 
HETATM   38  C16 UNL     1       1.070  -3.224 -15.217  1.00  0.00     0.022 C 
HETATM   39  C17 UNL     1       0.241  -2.087 -14.636  1.00  0.00     0.127 C 
HETATM   40  N5  UNL     1       0.351  -2.169 -13.202  1.00  0.00    -0.334 N 
BRANCH  40  41
HETATM   41  C18 UNL     1      -0.519  -1.601 -12.236  1.00  0.00     0.218 C 
BRANCH  41  42
HETATM   42  O5  UNL     1      -0.089  -0.466 -11.765  1.00  0.00    -0.332 OA
ATOM     43  H5  UNL     1       0.119  -0.501 -10.839  1.00  0.00     0.220 HD
ENDBRANCH  41  42
BRANCH  41  44
HETATM   44  N6  UNL     1      -1.726  -2.058 -11.730  1.00  0.00    -0.347 N 
HETATM   45  C19 UNL     1      -2.687  -1.366 -10.910  1.00  0.00     0.134 C 
HETATM   46  C20 UNL     1      -3.918  -0.979 -11.715  1.00  0.00     0.098 C 
HETATM   47  C21 UNL     1      -4.019  -2.002 -12.811  1.00  0.00     0.130 C 
HETATM   48  O6  UNL     1      -4.404  -1.657 -13.903  1.00  0.00    -0.298 OA
HETATM   49  C22 UNL     1      -3.634  -3.399 -12.481  1.00  0.00     0.098 C 
HETATM   50  C23 UNL     1      -2.158  -3.453 -12.074  1.00  0.00     0.134 C 
ENDBRANCH  41  44
ENDBRANCH  40  41
ENDBRANCH  33  36
ENDBRANCH  30  32
ENDBRANCH   6  30
TORSDOF 14
ENDMDL
MODEL 3
REMARK VINA RESULT: -9.648886472      1.260      1.919
REMARK  14 active torsions:
REMARK  status: ('A' for Active; 'I' for Inactive)
REMARK    1  A    between atoms: C2_2  and  N1_3 
REMARK    2  A    between atoms: C2_2  and  C28_43 
REMARK    3  A    between atoms: N1_3  and  C3_4 
REMARK    4  A    between atoms: C3_4  and  C4_5 
REMARK    5  A    between atoms: C3_4  and  C24_39 
REMARK       I    between atoms: C4_5  and  N2_7 
REMARK       I    between atoms: N2_7  and  C5_9 
REMARK    6  A    between atoms: C5_9  and  C6_11 
REMARK       I    between atoms: N3_15  and  C10_16 
REMARK    7  A    between atoms: C10_16  and  C11_18 
REMARK    8  A    between atoms: C11_18  and  N4_20 
REMARK       I    between atoms: N4_20  and  C13_22 
REMARK    9  A    between atoms: C13_22  and  C14_24 
REMARK   10  A    between atoms: N5_28  and  C18_29 
REMARK   11  A    between atoms: C18_29  and  O5_30 
REMARK   12  A    between atoms: C18_29  and  N6_32 
REMARK   13  A    between atoms: C28_43  and  O7_46 
REMARK   14  A    between atoms: O7_46  and  S1_47 
ROOT
HETATM    1  C6  UNL     1       7.304   0.437 -11.837  1.00  0.00     0.179 C 
HETATM    2  C7  UNL     1       6.974   1.917 -11.786  1.00  0.00     0.037 C 
HETATM    3  C8  UNL     1       6.419   2.109 -10.416  1.00  0.00     0.022 C 
HETATM    4  C9  UNL     1       6.282   0.764  -9.775  1.00  0.00     0.127 C 
HETATM    5  N3  UNL     1       6.434  -0.176 -10.854  1.00  0.00    -0.337 N 
HETATM    6  C10 UNL     1       5.853  -1.446 -10.938  1.00  0.00     0.243 C 
HETATM    7  O3  UNL     1       5.116  -1.832  -9.971  1.00  0.00    -0.271 OA
ENDROOT
BRANCH   1   8
HETATM    8  C5  UNL     1       8.724   0.321 -11.442  1.00  0.00     0.247 C 
HETATM    9  N2  UNL     1       9.390   1.419 -10.835  1.00  0.00    -0.293 N 
HETATM   10  C4  UNL     1      10.776   1.310 -10.492  1.00  0.00     0.260 C 
ATOM     11  H2  UNL     1       8.882   2.282 -10.643  1.00  0.00     0.172 HD
HETATM   12  O1  UNL     1      11.340   0.221 -10.727  1.00  0.00    -0.270 OA
HETATM   13  O2  UNL     1       9.313  -0.758 -11.659  1.00  0.00    -0.271 OA
BRANCH  10  14
HETATM   14  C3  UNL     1      11.564   2.441  -9.876  1.00  0.00     0.262 C 
BRANCH  14  15
HETATM   15  N1  UNL     1      12.549   2.880 -10.655  1.00  0.00    -0.438 NA
BRANCH  15  16
HETATM   16  C2  UNL     1      13.354   3.301 -11.408  1.00  0.00     0.088 C 
HETATM   17  C1  UNL     1      13.085   4.509 -12.272  1.00  0.00     0.083 C 
BRANCH  16  18
HETATM   18  C28 UNL     1      14.727   2.744 -11.578  1.00  0.00     0.126 C 
HETATM   19  C29 UNL     1      15.470   3.151 -10.293  1.00  0.00     0.055 C 
HETATM   20  C30 UNL     1      15.438   3.320 -12.746  1.00  0.00     0.055 C 
BRANCH  18  21
HETATM   21  O7  UNL     1      14.562   1.361 -11.657  1.00  0.00    -0.239 OA
BRANCH  21  22
HETATM   22  S1  UNL     1      15.847   0.545 -12.300  1.00  0.00     0.252 S 
HETATM   23  O8  UNL     1      15.891   0.810 -13.783  1.00  0.00    -0.572 OA
HETATM   24  O9  UNL     1      17.140   0.780 -11.610  1.00  0.00    -0.572 OA
HETATM   25  O10 UNL     1      15.521  -1.121 -12.159  1.00  0.00    -0.572 OA
ENDBRANCH  21  22
ENDBRANCH  18  21
ENDBRANCH  16  18
ENDBRANCH  15  16
ENDBRANCH  14  15
BRANCH  14  26
HETATM   26  C24 UNL     1      12.075   2.010  -8.495  1.00  0.00    -0.010 C 
HETATM   27  C25 UNL     1      13.186   1.010  -8.548  1.00  0.00     0.018 C 
HETATM   28  C26 UNL     1      12.714   3.286  -7.883  1.00  0.00     0.018 C 
HETATM   29  C27 UNL     1      10.985   1.641  -7.545  1.00  0.00     0.018 C 
ENDBRANCH  14  26
ENDBRANCH  10  14
ENDBRANCH   1   8
BRANCH   6  30
HETATM   30  C11 UNL     1       6.019  -2.379 -12.051  1.00  0.00     0.172 C 
HETATM   31  C12 UNL     1       7.168  -3.340 -11.831  1.00  0.00     0.042 C 
BRANCH  30  32
HETATM   32  N4  UNL     1       4.805  -3.137 -12.320  1.00  0.00    -0.346 N 
HETATM   33  C13 UNL     1       3.713  -2.723 -13.082  1.00  0.00     0.241 C 
HETATM   34  O4  UNL     1       3.653  -1.588 -13.632  1.00  0.00    -0.271 OA
ATOM     35  H4  UNL     1       4.747  -4.067 -11.907  1.00  0.00     0.163 HD
BRANCH  33  36
HETATM   36  C14 UNL     1       2.537  -3.624 -13.289  1.00  0.00     0.179 C 
HETATM   37  C15 UNL     1       3.029  -5.029 -13.647  1.00  0.00     0.037 C 
HETATM   38  C16 UNL     1       3.487  -4.877 -15.091  1.00  0.00     0.022 C 
HETATM   39  C17 UNL     1       2.532  -3.824 -15.635  1.00  0.00     0.127 C 
HETATM   40  N5  UNL     1       1.800  -3.294 -14.514  1.00  0.00    -0.334 N 
BRANCH  40  41
HETATM   41  C18 UNL     1       0.562  -2.600 -14.542  1.00  0.00     0.218 C 
BRANCH  41  42
HETATM   42  O5  UNL     1       0.549  -1.614 -15.393  1.00  0.00    -0.332 OA
ATOM     43  H5  UNL     1       0.016  -1.789 -16.159  1.00  0.00     0.220 HD
ENDBRANCH  41  42
BRANCH  41  44
HETATM   44  N6  UNL     1      -0.603  -2.805 -13.822  1.00  0.00    -0.347 N 
HETATM   45  C19 UNL     1      -0.877  -3.776 -12.794  1.00  0.00     0.134 C 
HETATM   46  C20 UNL     1      -0.915  -3.125 -11.419  1.00  0.00     0.098 C 
HETATM   47  C21 UNL     1      -1.343  -1.705 -11.660  1.00  0.00     0.130 C 
HETATM   48  O6  UNL     1      -0.867  -0.825 -10.981  1.00  0.00    -0.298 OA
HETATM   49  C22 UNL     1      -2.341  -1.463 -12.734  1.00  0.00     0.098 C 
HETATM   50  C23 UNL     1      -1.771  -1.901 -14.086  1.00  0.00     0.134 C 
ENDBRANCH  41  44
ENDBRANCH  40  41
ENDBRANCH  33  36
ENDBRANCH  30  32
ENDBRANCH   6  30
TORSDOF 14
ENDMDL
MODEL 4
REMARK VINA RESULT: -9.623829210      5.515      7.967
REMARK  14 active torsions:
REMARK  status: ('A' for Active; 'I' for Inactive)
REMARK    1  A    between atoms: C2_2  and  N1_3 
REMARK    2  A    between atoms: C2_2  and  C28_43 
REMARK    3  A    between atoms: N1_3  and  C3_4 
REMARK    4  A    between atoms: C3_4  and  C4_5 
REMARK    5  A    between atoms: C3_4  and  C24_39 
REMARK       I    between atoms: C4_5  and  N2_7 
REMARK       I    between atoms: N2_7  and  C5_9 
REMARK    6  A    between atoms: C5_9  and  C6_11 
REMARK       I    between atoms: N3_15  and  C10_16 
REMARK    7  A    between atoms: C10_16  and  C11_18 
REMARK    8  A    between atoms: C11_18  and  N4_20 
REMARK       I    between atoms: N4_20  and  C13_22 
REMARK    9  A    between atoms: C13_22  and  C14_24 
REMARK   10  A    between atoms: N5_28  and  C18_29 
REMARK   11  A    between atoms: C18_29  and  O5_30 
REMARK   12  A    between atoms: C18_29  and  N6_32 
REMARK   13  A    between atoms: C28_43  and  O7_46 
REMARK   14  A    between atoms: O7_46  and  S1_47 
ROOT
HETATM    1  C6  UNL     1       2.013  -3.025 -14.059  1.00  0.00     0.179 C 
HETATM    2  C7  UNL     1       2.477  -4.246 -13.288  1.00  0.00     0.037 C 
HETATM    3  C8  UNL     1       3.166  -5.074 -14.319  1.00  0.00     0.022 C 
HETATM    4  C9  UNL     1       2.955  -4.430 -15.653  1.00  0.00     0.127 C 
HETATM    5  N3  UNL     1       1.910  -3.465 -15.435  1.00  0.00    -0.337 N 
HETATM    6  C10 UNL     1       0.971  -3.031 -16.377  1.00  0.00     0.243 C 
HETATM    7  O3  UNL     1       1.032  -3.521 -17.553  1.00  0.00    -0.271 OA
ENDROOT
BRANCH   1   8
HETATM    8  C5  UNL     1       3.078  -2.012 -13.899  1.00  0.00     0.247 C 
HETATM    9  N2  UNL     1       3.770  -1.891 -12.665  1.00  0.00    -0.293 N 
HETATM   10  C4  UNL     1       4.773  -0.880 -12.506  1.00  0.00     0.260 C 
ATOM     11  H2  UNL     1       3.554  -2.522 -11.893  1.00  0.00     0.172 HD
HETATM   12  O1  UNL     1       5.013  -0.153 -13.492  1.00  0.00    -0.270 OA
HETATM   13  O2  UNL     1       3.345  -1.274 -14.870  1.00  0.00    -0.271 OA
BRANCH  10  14
HETATM   14  C3  UNL     1       5.529  -0.664 -11.217  1.00  0.00     0.262 C 
BRANCH  14  15
HETATM   15  N1  UNL     1       5.907   0.598 -11.035  1.00  0.00    -0.438 NA
BRANCH  15  16
HETATM   16  C2  UNL     1       6.236   1.702 -10.778  1.00  0.00     0.088 C 
HETATM   17  C1  UNL     1       6.897   2.053  -9.468  1.00  0.00     0.083 C 
BRANCH  16  18
HETATM   18  C28 UNL     1       6.090   2.866 -11.699  1.00  0.00     0.126 C 
HETATM   19  C29 UNL     1       7.236   2.700 -12.713  1.00  0.00     0.055 C 
HETATM   20  C30 UNL     1       6.246   4.168 -11.005  1.00  0.00     0.055 C 
BRANCH  18  21
HETATM   21  O7  UNL     1       4.844   2.707 -12.305  1.00  0.00    -0.239 OA
BRANCH  21  22
HETATM   22  S1  UNL     1       4.685   3.457 -13.770  1.00  0.00     0.252 S 
HETATM   23  O8  UNL     1       4.758   4.947 -13.557  1.00  0.00    -0.572 OA
HETATM   24  O9  UNL     1       5.600   2.956 -14.826  1.00  0.00    -0.572 OA
HETATM   25  O10 UNL     1       3.102   3.168 -14.327  1.00  0.00    -0.572 OA
ENDBRANCH  21  22
ENDBRANCH  18  21
ENDBRANCH  16  18
ENDBRANCH  15  16
ENDBRANCH  14  15
BRANCH  14  26
HETATM   26  C24 UNL     1       6.717  -1.633 -11.158  1.00  0.00    -0.010 C 
HETATM   27  C25 UNL     1       7.982  -1.071 -11.724  1.00  0.00     0.018 C 
HETATM   28  C26 UNL     1       7.008  -1.825  -9.645  1.00  0.00     0.018 C 
HETATM   29  C27 UNL     1       6.396  -3.001 -11.658  1.00  0.00     0.018 C 
ENDBRANCH  14  26
ENDBRANCH  10  14
ENDBRANCH   1   8
BRANCH   6  30
HETATM   30  C11 UNL     1      -0.087  -2.053 -16.127  1.00  0.00     0.172 C 
HETATM   31  C12 UNL     1      -0.655  -1.478 -17.407  1.00  0.00     0.042 C 
BRANCH  30  32
HETATM   32  N4  UNL     1      -1.170  -2.606 -15.326  1.00  0.00    -0.346 N 
HETATM   33  C13 UNL     1      -1.547  -2.211 -14.044  1.00  0.00     0.241 C 
HETATM   34  O4  UNL     1      -0.949  -1.300 -13.405  1.00  0.00    -0.271 OA
ATOM     35  H4  UNL     1      -1.709  -3.361 -15.748  1.00  0.00     0.163 HD
BRANCH  33  36
HETATM   36  C14 UNL     1      -2.700  -2.862 -13.349  1.00  0.00     0.179 C 
HETATM   37  C15 UNL     1      -2.467  -2.830 -11.837  1.00  0.00     0.037 C 
HETATM   38  C16 UNL     1      -1.408  -3.903 -11.626  1.00  0.00     0.022 C 
HETATM   39  C17 UNL     1      -1.740  -4.917 -12.713  1.00  0.00     0.127 C 
HETATM   40  N5  UNL     1      -2.728  -4.313 -13.570  1.00  0.00    -0.334 N 
BRANCH  40  41
HETATM   41  C18 UNL     1      -3.616  -4.972 -14.459  1.00  0.00     0.218 C 
BRANCH  41  42
HETATM   42  O5  UNL     1      -3.646  -6.262 -14.289  1.00  0.00    -0.332 OA
ATOM     43  H5  UNL     1      -3.857  -6.739 -15.083  1.00  0.00     0.220 HD
ENDBRANCH  41  42
BRANCH  41  44
HETATM   44  N6  UNL     1      -4.435  -4.465 -15.456  1.00  0.00    -0.347 N 
HETATM   45  C19 UNL     1      -5.763  -3.919 -15.350  1.00  0.00     0.134 C 
HETATM   46  C20 UNL     1      -5.748  -2.405 -15.497  1.00  0.00     0.098 C 
HETATM   47  C21 UNL     1      -4.554  -2.097 -16.356  1.00  0.00     0.130 C 
HETATM   48  O6  UNL     1      -3.910  -1.100 -16.130  1.00  0.00    -0.298 OA
HETATM   49  C22 UNL     1      -4.231  -3.053 -17.448  1.00  0.00     0.098 C 
HETATM   50  C23 UNL     1      -3.906  -4.429 -16.860  1.00  0.00     0.134 C 
ENDBRANCH  41  44
ENDBRANCH  40  41
ENDBRANCH  33  36
ENDBRANCH  30  32
ENDBRANCH   6  30
TORSDOF 14
ENDMDL
MODEL 5
REMARK VINA RESULT: -9.598427409      2.537      3.870
REMARK  14 active torsions:
REMARK  status: ('A' for Active; 'I' for Inactive)
REMARK    1  A    between atoms: C2_2  and  N1_3 
REMARK    2  A    between atoms: C2_2  and  C28_43 
REMARK    3  A    between atoms: N1_3  and  C3_4 
REMARK    4  A    between atoms: C3_4  and  C4_5 
REMARK    5  A    between atoms: C3_4  and  C24_39 
REMARK       I    between atoms: C4_5  and  N2_7 
REMARK       I    between atoms: N2_7  and  C5_9 
REMARK    6  A    between atoms: C5_9  and  C6_11 
REMARK       I    between atoms: N3_15  and  C10_16 
REMARK    7  A    between atoms: C10_16  and  C11_18 
REMARK    8  A    between atoms: C11_18  and  N4_20 
REMARK       I    between atoms: N4_20  and  C13_22 
REMARK    9  A    between atoms: C13_22  and  C14_24 
REMARK   10  A    between atoms: N5_28  and  C18_29 
REMARK   11  A    between atoms: C18_29  and  O5_30 
REMARK   12  A    between atoms: C18_29  and  N6_32 
REMARK   13  A    between atoms: C28_43  and  O7_46 
REMARK   14  A    between atoms: O7_46  and  S1_47 
ROOT
HETATM    1  C6  UNL     1       5.759   2.186 -14.629  1.00  0.00     0.179 C 
HETATM    2  C7  UNL     1       5.854   2.949 -15.937  1.00  0.00     0.037 C 
HETATM    3  C8  UNL     1       4.759   3.956 -15.839  1.00  0.00     0.022 C 
HETATM    4  C9  UNL     1       3.967   3.666 -14.603  1.00  0.00     0.127 C 
HETATM    5  N3  UNL     1       4.386   2.351 -14.197  1.00  0.00    -0.337 N 
HETATM    6  C10 UNL     1       3.613   1.408 -13.510  1.00  0.00     0.243 C 
HETATM    7  O3  UNL     1       2.419   1.726 -13.197  1.00  0.00    -0.271 OA
ENDROOT
BRANCH   1   8
HETATM    8  C5  UNL     1       6.697   2.848 -13.699  1.00  0.00     0.247 C 
HETATM    9  N2  UNL     1       7.422   2.083 -12.748  1.00  0.00    -0.293 N 
HETATM   10  C4  UNL     1       8.300   2.739 -11.825  1.00  0.00     0.260 C 
ATOM     11  H2  UNL     1       7.319   1.069 -12.723  1.00  0.00     0.172 HD
HETATM   12  O1  UNL     1       8.406   3.979 -11.919  1.00  0.00    -0.270 OA
HETATM   13  O2  UNL     1       6.829   4.088 -13.774  1.00  0.00    -0.271 OA
BRANCH  10  14
HETATM   14  C3  UNL     1       9.078   2.001 -10.762  1.00  0.00     0.262 C 
BRANCH  14  15
HETATM   15  N1  UNL     1       9.902   1.082 -11.257  1.00  0.00    -0.438 NA
BRANCH  15  16
HETATM   16  C2  UNL     1      10.693   0.339 -11.721  1.00  0.00     0.088 C 
HETATM   17  C1  UNL     1      10.469  -0.337 -13.052  1.00  0.00     0.083 C 
BRANCH  16  18
HETATM   18  C28 UNL     1      12.007   0.006 -11.100  1.00  0.00     0.126 C 
HETATM   19  C29 UNL     1      11.876  -1.471 -10.690  1.00  0.00     0.055 C 
HETATM   20  C30 UNL     1      12.292   0.817  -9.891  1.00  0.00     0.055 C 
BRANCH  18  21
HETATM   21  O7  UNL     1      12.951   0.173 -12.114  1.00  0.00    -0.239 OA
BRANCH  21  22
HETATM   22  S1  UNL     1      14.524   0.010 -11.630  1.00  0.00     0.252 S 
HETATM   23  O8  UNL     1      15.412   0.668 -12.654  1.00  0.00    -0.572 OA
HETATM   24  O9  UNL     1      14.792   0.442 -10.236  1.00  0.00    -0.572 OA
HETATM   25  O10 UNL     1      14.916  -1.646 -11.705  1.00  0.00    -0.572 OA
ENDBRANCH  21  22
ENDBRANCH  18  21
ENDBRANCH  16  18
ENDBRANCH  15  16
ENDBRANCH  14  15
BRANCH  14  26
HETATM   26  C24 UNL     1       8.101   1.405  -9.741  1.00  0.00    -0.010 C 
HETATM   27  C25 UNL     1       7.842  -0.056  -9.935  1.00  0.00     0.018 C 
HETATM   28  C26 UNL     1       8.833   1.501  -8.375  1.00  0.00     0.018 C 
HETATM   29  C27 UNL     1       6.859   2.212  -9.561  1.00  0.00     0.018 C 
ENDBRANCH  14  26
ENDBRANCH  10  14
ENDBRANCH   1   8
BRANCH   6  30
HETATM   30  C11 UNL     1       4.063   0.074 -13.115  1.00  0.00     0.172 C 
HETATM   31  C12 UNL     1       4.953   0.104 -11.891  1.00  0.00     0.042 C 
BRANCH  30  32
HETATM   32  N4  UNL     1       2.950  -0.834 -12.877  1.00  0.00    -0.346 N 
HETATM   33  C13 UNL     1       3.002  -2.226 -12.825  1.00  0.00     0.241 C 
HETATM   34  O4  UNL     1       4.070  -2.877 -13.003  1.00  0.00    -0.271 OA
ATOM     35  H4  UNL     1       2.035  -0.406 -12.734  1.00  0.00     0.163 HD
BRANCH  33  36
HETATM   36  C14 UNL     1       1.771  -3.030 -12.550  1.00  0.00     0.179 C 
HETATM   37  C15 UNL     1       1.733  -4.238 -13.489  1.00  0.00     0.037 C 
HETATM   38  C16 UNL     1       1.341  -3.627 -14.826  1.00  0.00     0.022 C 
HETATM   39  C17 UNL     1       0.443  -2.469 -14.412  1.00  0.00     0.127 C 
HETATM   40  N5  UNL     1       0.552  -2.336 -12.982  1.00  0.00    -0.334 N 
BRANCH  40  41
HETATM   41  C18 UNL     1      -0.354  -1.687 -12.104  1.00  0.00     0.218 C 
BRANCH  41  42
HETATM   42  O5  UNL     1       0.059  -0.515 -11.718  1.00  0.00    -0.332 OA
ATOM     43  H5  UNL     1       0.296  -0.487 -10.799  1.00  0.00     0.220 HD
ENDBRANCH  41  42
BRANCH  41  44
HETATM   44  N6  UNL     1      -1.580  -2.101 -11.607  1.00  0.00    -0.347 N 
HETATM   45  C19 UNL     1      -2.558  -1.351 -10.862  1.00  0.00     0.134 C 
HETATM   46  C20 UNL     1      -3.761  -1.003 -11.725  1.00  0.00     0.098 C 
HETATM   47  C21 UNL     1      -3.840  -2.092 -12.759  1.00  0.00     0.130 C 
HETATM   48  O6  UNL     1      -4.189  -1.812 -13.881  1.00  0.00    -0.298 OA
HETATM   49  C22 UNL     1      -3.480  -3.469 -12.330  1.00  0.00     0.098 C 
HETATM   50  C23 UNL     1      -2.018  -3.510 -11.876  1.00  0.00     0.134 C 
ENDBRANCH  41  44
ENDBRANCH  40  41
ENDBRANCH  33  36
ENDBRANCH  30  32
ENDBRANCH   6  30
TORSDOF 14
ENDMDL
