MODEL 1
REMARK VINA RESULT: -8.320952726      0.000      0.000
REMARK  13 active torsions:
REMARK  status: ('A' for Active; 'I' for Inactive)
REMARK    1  A    between atoms: C2_2  and  N1_4 
REMARK    2  A    between atoms: N2_5  and  C4_6 
REMARK    3  A    between atoms: C4_6  and  C5_7 
REMARK       I    between atoms: C5_7  and  N3_9 
REMARK    4  A    between atoms: N3_9  and  C6_11 
REMARK    5  A    between atoms: C6_11  and  C7_12 
REMARK    6  A    between atoms: C6_11  and  C12_19 
REMARK    7  A    between atoms: C7_12  and  O3_14 
REMARK    8  A    between atoms: O3_14  and  C8_15 
REMARK    9  A    between atoms: C16_23  and  C17_24 
REMARK       I    between atoms: C17_24  and  N4_26 
REMARK   10  A    between atoms: N4_26  and  C18_28 
REMARK   11  A    between atoms: C18_28  and  C19_29 
REMARK       I    between atoms: C19_29  and  N5_31 
REMARK   12  A    between atoms: N5_31  and  S1_33 
REMARK   13  A    between atoms: S1_33  and  C20_36 
ROOT
HETATM    1  N1  UNL     1       8.098  -0.516 -11.189  1.00  0.00    -0.131 NA
HETATM    2  N2  UNL     1       9.236  -0.058 -11.815  1.00  0.00    -0.190 NA
HETATM    3  C16 UNL     1      10.255  -1.065 -11.771  1.00  0.00     0.087 C 
HETATM    4  C27 UNL     1       9.797  -2.429 -11.553  1.00  0.00     0.217 C 
HETATM    5  S3  UNL     1       8.033  -2.228 -11.357  1.00  0.00     0.230 S 
HETATM    6  O8  UNL     1       7.335  -2.676 -12.595  1.00  0.00    -0.210 OA
HETATM    7  O9  UNL     1       7.534  -2.931 -10.136  1.00  0.00    -0.210 OA
ENDROOT
BRANCH   3   8
HETATM    8  C17 UNL     1      11.445  -0.619 -10.982  1.00  0.00     0.262 C 
HETATM    9  O4  UNL     1      12.026  -1.568 -10.349  1.00  0.00    -0.267 OA
HETATM   10  N4  UNL     1      11.835   0.709 -10.972  1.00  0.00    -0.336 N 
ATOM     11  H4  UNL     1      11.271   1.343 -11.539  1.00  0.00     0.164 HD
BRANCH  10  12
HETATM   12  C18 UNL     1      12.943   1.315 -10.256  1.00  0.00     0.139 A 
HETATM   13  C23 UNL     1      12.820   1.147  -8.795  1.00  0.00     0.117 A 
HETATM   14  S2  UNL     1      12.824   2.893  -8.405  1.00  0.00    -0.154 SA
HETATM   15  C24 UNL     1      12.949   2.781 -10.167  1.00  0.00     0.036 A 
HETATM   16  C25 UNL     1      14.299   3.372 -10.612  1.00  0.00     0.030 C 
HETATM   17  C26 UNL     1      11.878   3.538 -10.949  1.00  0.00     0.030 C 
BRANCH  12  18
HETATM   18  C19 UNL     1      14.276   0.820 -10.780  1.00  0.00     0.261 C 
HETATM   19  O5  UNL     1      15.067   0.254  -9.987  1.00  0.00    -0.270 OA
HETATM   20  N5  UNL     1      14.655   0.981 -12.123  1.00  0.00    -0.252 N 
ATOM     21  H5  UNL     1      13.995   1.453 -12.742  1.00  0.00     0.181 HD
BRANCH  20  22
HETATM   22  S1  UNL     1      16.132   0.451 -12.806  1.00  0.00     0.237 S 
HETATM   23  O6  UNL     1      16.130   0.870 -14.256  1.00  0.00    -0.205 OA
HETATM   24  O7  UNL     1      16.148  -1.062 -12.759  1.00  0.00    -0.205 OA
BRANCH  22  25
HETATM   25  C20 UNL     1      17.563   1.104 -11.972  1.00  0.00     0.130 A 
HETATM   26  C21 UNL     1      18.510   1.897 -12.864  1.00  0.00     0.023 A 
HETATM   27  C22 UNL     1      17.619   2.613 -11.905  1.00  0.00     0.023 A 
ENDBRANCH  22  25
ENDBRANCH  20  22
ENDBRANCH  12  18
ENDBRANCH  10  12
ENDBRANCH   3   8
BRANCH   2  28
HETATM   28  C4  UNL     1       8.858   0.152 -13.216  1.00  0.00     0.218 C 
BRANCH  28  29
HETATM   29  C5  UNL     1       9.031   1.552 -13.681  1.00  0.00     0.236 C 
HETATM   30  O1  UNL     1      10.212   2.050 -13.604  1.00  0.00    -0.272 OA
HETATM   31  N3  UNL     1       7.993   2.343 -14.180  1.00  0.00    -0.324 N 
ATOM     32  H3  UNL     1       7.068   1.914 -14.214  1.00  0.00     0.169 HD
BRANCH  31  33
HETATM   33  C6  UNL     1       8.090   3.686 -14.646  1.00  0.00     0.095 C 
BRANCH  33  34
HETATM   34  C7  UNL     1       8.146   4.761 -13.659  1.00  0.00     0.307 C 
HETATM   35  O2  UNL     1       9.203   5.290 -13.272  1.00  0.00    -0.258 OA
BRANCH  34  36
HETATM   36  O3  UNL     1       6.974   5.227 -13.115  1.00  0.00    -0.306 OA
BRANCH  36  37
HETATM   37  C8  UNL     1       6.336   4.755 -11.976  1.00  0.00     0.060 C 
HETATM   38  C9  UNL     1       4.985   4.172 -12.419  1.00  0.00     0.046 C 
HETATM   39  C10 UNL     1       7.063   3.705 -11.207  1.00  0.00     0.046 C 
HETATM   40  C11 UNL     1       5.967   5.876 -11.011  1.00  0.00     0.046 C 
ENDBRANCH  36  37
ENDBRANCH  34  36
ENDBRANCH  33  34
BRANCH  33  41
HETATM   41  C12 UNL     1       7.175   3.887 -15.817  1.00  0.00    -0.003 C 
HETATM   42  C13 UNL     1       5.934   3.044 -15.768  1.00  0.00     0.021 C 
HETATM   43  C14 UNL     1       6.873   5.343 -16.019  1.00  0.00     0.021 C 
HETATM   44  C15 UNL     1       7.948   3.406 -17.052  1.00  0.00     0.021 C 
ENDBRANCH  33  41
ENDBRANCH  31  33
ENDBRANCH  28  29
ENDBRANCH   2  28
BRANCH   1  45
HETATM   45  C2  UNL     1       7.790  -0.083  -9.871  1.00  0.00     0.084 C 
HETATM   46  C1  UNL     1       6.404   0.387  -9.617  1.00  0.00     0.028 C 
HETATM   47  C3  UNL     1       8.728   1.099  -9.574  1.00  0.00     0.028 C 
ENDBRANCH   1  45
TORSDOF 13
ENDMDL
MODEL 2
REMARK VINA RESULT: -8.310885676      0.907      2.063
REMARK  13 active torsions:
REMARK  status: ('A' for Active; 'I' for Inactive)
REMARK    1  A    between atoms: C2_2  and  N1_4 
REMARK    2  A    between atoms: N2_5  and  C4_6 
REMARK    3  A    between atoms: C4_6  and  C5_7 
REMARK       I    between atoms: C5_7  and  N3_9 
REMARK    4  A    between atoms: N3_9  and  C6_11 
REMARK    5  A    between atoms: C6_11  and  C7_12 
REMARK    6  A    between atoms: C6_11  and  C12_19 
REMARK    7  A    between atoms: C7_12  and  O3_14 
REMARK    8  A    between atoms: O3_14  and  C8_15 
REMARK    9  A    between atoms: C16_23  and  C17_24 
REMARK       I    between atoms: C17_24  and  N4_26 
REMARK   10  A    between atoms: N4_26  and  C18_28 
REMARK   11  A    between atoms: C18_28  and  C19_29 
REMARK       I    between atoms: C19_29  and  N5_31 
REMARK   12  A    between atoms: N5_31  and  S1_33 
REMARK   13  A    between atoms: S1_33  and  C20_36 
ROOT
HETATM    1  N1  UNL     1       8.150  -0.333 -11.297  1.00  0.00    -0.131 NA
HETATM    2  N2  UNL     1       9.327   0.002 -11.929  1.00  0.00    -0.190 NA
HETATM    3  C16 UNL     1      10.285  -1.050 -11.762  1.00  0.00     0.087 C 
HETATM    4  C27 UNL     1       9.744  -2.361 -11.432  1.00  0.00     0.217 C 
HETATM    5  S3  UNL     1       7.990  -2.046 -11.308  1.00  0.00     0.230 S 
HETATM    6  O8  UNL     1       7.299  -2.570 -12.520  1.00  0.00    -0.210 OA
HETATM    7  O9  UNL     1       7.422  -2.603 -10.043  1.00  0.00    -0.210 OA
ENDROOT
BRANCH   3   8
HETATM    8  C17 UNL     1      11.479  -0.598 -10.983  1.00  0.00     0.262 C 
HETATM    9  O4  UNL     1      12.072  -1.545 -10.356  1.00  0.00    -0.267 OA
HETATM   10  N4  UNL     1      11.860   0.732 -10.973  1.00  0.00    -0.336 N 
ATOM     11  H4  UNL     1      11.288   1.363 -11.535  1.00  0.00     0.164 HD
BRANCH  10  12
HETATM   12  C18 UNL     1      12.971   1.344 -10.267  1.00  0.00     0.139 A 
HETATM   13  C23 UNL     1      12.852   1.189  -8.804  1.00  0.00     0.117 A 
HETATM   14  S2  UNL     1      12.857   2.939  -8.429  1.00  0.00    -0.154 SA
HETATM   15  C24 UNL     1      12.977   2.811 -10.190  1.00  0.00     0.036 A 
HETATM   16  C25 UNL     1      14.326   3.397 -10.644  1.00  0.00     0.030 C 
HETATM   17  C26 UNL     1      11.905   3.561 -10.976  1.00  0.00     0.030 C 
BRANCH  12  18
HETATM   18  C19 UNL     1      14.302   0.844 -10.790  1.00  0.00     0.261 C 
HETATM   19  O5  UNL     1      15.108   0.311  -9.988  1.00  0.00    -0.270 OA
HETATM   20  N5  UNL     1      14.664   0.964 -12.142  1.00  0.00    -0.252 N 
ATOM     21  H5  UNL     1      13.992   1.409 -12.768  1.00  0.00     0.181 HD
BRANCH  20  22
HETATM   22  S1  UNL     1      16.138   0.425 -12.824  1.00  0.00     0.237 S 
HETATM   23  O6  UNL     1      16.136   0.841 -14.275  1.00  0.00    -0.205 OA
HETATM   24  O7  UNL     1      16.146  -1.089 -12.775  1.00  0.00    -0.205 OA
BRANCH  22  25
HETATM   25  C20 UNL     1      17.572   1.071 -11.993  1.00  0.00     0.130 A 
HETATM   26  C21 UNL     1      18.530   1.845 -12.890  1.00  0.00     0.023 A 
HETATM   27  C22 UNL     1      17.644   2.580 -11.941  1.00  0.00     0.023 A 
ENDBRANCH  22  25
ENDBRANCH  20  22
ENDBRANCH  12  18
ENDBRANCH  10  12
ENDBRANCH   3   8
BRANCH   2  28
HETATM   28  C4  UNL     1       8.995   0.100 -13.354  1.00  0.00     0.218 C 
BRANCH  28  29
HETATM   29  C5  UNL     1       8.540   1.451 -13.773  1.00  0.00     0.236 C 
HETATM   30  O1  UNL     1       9.055   1.932 -14.846  1.00  0.00    -0.272 OA
HETATM   31  N3  UNL     1       7.605   2.213 -13.069  1.00  0.00    -0.324 N 
ATOM     32  H3  UNL     1       7.229   1.799 -12.215  1.00  0.00     0.169 HD
BRANCH  31  33
HETATM   33  C6  UNL     1       7.122   3.507 -13.415  1.00  0.00     0.095 C 
BRANCH  33  34
HETATM   34  C7  UNL     1       8.018   4.649 -13.251  1.00  0.00     0.307 C 
HETATM   35  O2  UNL     1       8.959   4.679 -12.438  1.00  0.00    -0.258 OA
BRANCH  34  36
HETATM   36  O3  UNL     1       7.825   5.764 -14.029  1.00  0.00    -0.306 OA
BRANCH  36  37
HETATM   37  C8  UNL     1       8.315   5.984 -15.309  1.00  0.00     0.060 C 
HETATM   38  C9  UNL     1       8.577   7.492 -15.444  1.00  0.00     0.046 C 
HETATM   39  C10 UNL     1       9.571   5.263 -15.662  1.00  0.00     0.046 C 
HETATM   40  C11 UNL     1       7.280   5.682 -16.387  1.00  0.00     0.046 C 
ENDBRANCH  36  37
ENDBRANCH  34  36
ENDBRANCH  33  34
BRANCH  33  41
HETATM   41  C12 UNL     1       5.715   3.674 -12.929  1.00  0.00    -0.003 C 
HETATM   42  C13 UNL     1       5.608   4.402 -11.621  1.00  0.00     0.021 C 
HETATM   43  C14 UNL     1       4.845   4.277 -13.994  1.00  0.00     0.021 C 
HETATM   44  C15 UNL     1       5.185   2.260 -12.656  1.00  0.00     0.021 C 
ENDBRANCH  33  41
ENDBRANCH  31  33
ENDBRANCH  28  29
ENDBRANCH   2  28
BRANCH   1  45
HETATM   45  C2  UNL     1       7.835   0.239 -10.034  1.00  0.00     0.084 C 
HETATM   46  C1  UNL     1       6.411   0.577  -9.778  1.00  0.00     0.028 C 
HETATM   47  C3  UNL     1       8.633   1.550  -9.941  1.00  0.00     0.028 C 
ENDBRANCH   1  45
TORSDOF 13
ENDMDL
MODEL 3
REMARK VINA RESULT: -8.214598946      1.192      1.982
REMARK  13 active torsions:
REMARK  status: ('A' for Active; 'I' for Inactive)
REMARK    1  A    between atoms: C2_2  and  N1_4 
REMARK    2  A    between atoms: N2_5  and  C4_6 
REMARK    3  A    between atoms: C4_6  and  C5_7 
REMARK       I    between atoms: C5_7  and  N3_9 
REMARK    4  A    between atoms: N3_9  and  C6_11 
REMARK    5  A    between atoms: C6_11  and  C7_12 
REMARK    6  A    between atoms: C6_11  and  C12_19 
REMARK    7  A    between atoms: C7_12  and  O3_14 
REMARK    8  A    between atoms: O3_14  and  C8_15 
REMARK    9  A    between atoms: C16_23  and  C17_24 
REMARK       I    between atoms: C17_24  and  N4_26 
REMARK   10  A    between atoms: N4_26  and  C18_28 
REMARK   11  A    between atoms: C18_28  and  C19_29 
REMARK       I    between atoms: C19_29  and  N5_31 
REMARK   12  A    between atoms: N5_31  and  S1_33 
REMARK   13  A    between atoms: S1_33  and  C20_36 
ROOT
HETATM    1  N1  UNL     1       8.096  -0.390 -11.343  1.00  0.00    -0.131 NA
HETATM    2  N2  UNL     1       9.284  -0.077 -11.968  1.00  0.00    -0.190 NA
HETATM    3  C16 UNL     1      10.235  -1.129 -11.759  1.00  0.00     0.087 C 
HETATM    4  C27 UNL     1       9.683  -2.428 -11.402  1.00  0.00     0.217 C 
HETATM    5  S3  UNL     1       7.929  -2.102 -11.311  1.00  0.00     0.230 S 
HETATM    6  O8  UNL     1       7.252  -2.655 -12.518  1.00  0.00    -0.210 OA
HETATM    7  O9  UNL     1       7.340  -2.622 -10.040  1.00  0.00    -0.210 OA
ENDROOT
BRANCH   3   8
HETATM    8  C17 UNL     1      11.420  -0.662 -10.975  1.00  0.00     0.262 C 
HETATM    9  O4  UNL     1      12.009  -1.597 -10.328  1.00  0.00    -0.267 OA
HETATM   10  N4  UNL     1      11.798   0.669 -10.983  1.00  0.00    -0.336 N 
ATOM     11  H4  UNL     1      11.229   1.290 -11.560  1.00  0.00     0.164 HD
BRANCH  10  12
HETATM   12  C18 UNL     1      12.900   1.295 -10.276  1.00  0.00     0.139 A 
HETATM   13  C23 UNL     1      12.788   1.130  -8.813  1.00  0.00     0.117 A 
HETATM   14  S2  UNL     1      12.765   2.876  -8.428  1.00  0.00    -0.154 SA
HETATM   15  C24 UNL     1      12.882   2.762 -10.190  1.00  0.00     0.036 A 
HETATM   16  C25 UNL     1      14.220   3.373 -10.644  1.00  0.00     0.030 C 
HETATM   17  C26 UNL     1      11.795   3.498 -10.969  1.00  0.00     0.030 C 
BRANCH  12  18
HETATM   18  C19 UNL     1      14.237   0.821 -10.805  1.00  0.00     0.261 C 
HETATM   19  O5  UNL     1      15.058   0.303 -10.007  1.00  0.00    -0.270 OA
HETATM   20  N5  UNL     1      14.590   0.947 -12.159  1.00  0.00    -0.252 N 
ATOM     21  H5  UNL     1      13.908   1.379 -12.782  1.00  0.00     0.181 HD
BRANCH  20  22
HETATM   22  S1  UNL     1      16.071   0.436 -12.849  1.00  0.00     0.237 S 
HETATM   23  O6  UNL     1      16.041   0.823 -14.307  1.00  0.00    -0.205 OA
HETATM   24  O7  UNL     1      16.123  -1.075 -12.770  1.00  0.00    -0.205 OA
BRANCH  22  25
HETATM   25  C20 UNL     1      17.497   1.139 -12.047  1.00  0.00     0.130 A 
HETATM   26  C21 UNL     1      18.730   1.253 -12.934  1.00  0.00     0.023 A 
HETATM   27  C22 UNL     1      17.938   2.474 -12.604  1.00  0.00     0.023 A 
ENDBRANCH  22  25
ENDBRANCH  20  22
ENDBRANCH  12  18
ENDBRANCH  10  12
ENDBRANCH   3   8
BRANCH   2  28
HETATM   28  C4  UNL     1       8.973  -0.017 -13.399  1.00  0.00     0.218 C 
BRANCH  28  29
HETATM   29  C5  UNL     1       8.129   1.145 -13.781  1.00  0.00     0.236 C 
HETATM   30  O1  UNL     1       8.666   2.031 -14.540  1.00  0.00    -0.272 OA
HETATM   31  N3  UNL     1       6.810   1.324 -13.359  1.00  0.00    -0.324 N 
ATOM     32  H3  UNL     1       6.425   0.603 -12.748  1.00  0.00     0.169 HD
BRANCH  31  33
HETATM   33  C6  UNL     1       5.946   2.407 -13.691  1.00  0.00     0.095 C 
BRANCH  33  34
HETATM   34  C7  UNL     1       6.032   3.631 -12.899  1.00  0.00     0.307 C 
HETATM   35  O2  UNL     1       6.346   3.655 -11.695  1.00  0.00    -0.258 OA
BRANCH  34  36
HETATM   36  O3  UNL     1       5.752   4.833 -13.499  1.00  0.00    -0.306 OA
BRANCH  36  37
HETATM   37  C8  UNL     1       6.550   5.522 -14.403  1.00  0.00     0.060 C 
HETATM   38  C9  UNL     1       6.227   7.017 -14.250  1.00  0.00     0.046 C 
HETATM   39  C10 UNL     1       8.021   5.347 -14.240  1.00  0.00     0.046 C 
HETATM   40  C11 UNL     1       6.195   5.204 -15.851  1.00  0.00     0.046 C 
ENDBRANCH  36  37
ENDBRANCH  34  36
ENDBRANCH  33  34
BRANCH  33  41
HETATM   41  C12 UNL     1       4.572   1.889 -13.992  1.00  0.00    -0.003 C 
HETATM   42  C13 UNL     1       3.484   2.565 -13.210  1.00  0.00     0.021 C 
HETATM   43  C14 UNL     1       4.307   1.898 -15.470  1.00  0.00     0.021 C 
HETATM   44  C15 UNL     1       4.556   0.424 -13.536  1.00  0.00     0.021 C 
ENDBRANCH  33  41
ENDBRANCH  31  33
ENDBRANCH  28  29
ENDBRANCH   2  28
BRANCH   1  45
HETATM   45  C2  UNL     1       7.767   0.217 -10.101  1.00  0.00     0.084 C 
HETATM   46  C1  UNL     1       6.342   0.573  -9.876  1.00  0.00     0.028 C 
HETATM   47  C3  UNL     1       8.575   1.524 -10.030  1.00  0.00     0.028 C 
ENDBRANCH   1  45
TORSDOF 13
ENDMDL
MODEL 4
REMARK VINA RESULT: -8.068930680      3.731      7.696
REMARK  13 active torsions:
REMARK  status: ('A' for Active; 'I' for Inactive)
REMARK    1  A    between atoms: C2_2  and  N1_4 
REMARK    2  A    between atoms: N2_5  and  C4_6 
REMARK    3  A    between atoms: C4_6  and  C5_7 
REMARK       I    between atoms: C5_7  and  N3_9 
REMARK    4  A    between atoms: N3_9  and  C6_11 
REMARK    5  A    between atoms: C6_11  and  C7_12 
REMARK    6  A    between atoms: C6_11  and  C12_19 
REMARK    7  A    between atoms: C7_12  and  O3_14 
REMARK    8  A    between atoms: O3_14  and  C8_15 
REMARK    9  A    between atoms: C16_23  and  C17_24 
REMARK       I    between atoms: C17_24  and  N4_26 
REMARK   10  A    between atoms: N4_26  and  C18_28 
REMARK   11  A    between atoms: C18_28  and  C19_29 
REMARK       I    between atoms: C19_29  and  N5_31 
REMARK   12  A    between atoms: N5_31  and  S1_33 
REMARK   13  A    between atoms: S1_33  and  C20_36 
ROOT
HETATM    1  N1  UNL     1       6.133   4.814 -14.986  1.00  0.00    -0.131 NA
HETATM    2  N2  UNL     1       5.705   3.678 -14.334  1.00  0.00    -0.190 NA
HETATM    3  C16 UNL     1       6.378   3.557 -13.075  1.00  0.00     0.087 C 
HETATM    4  C27 UNL     1       6.950   4.783 -12.535  1.00  0.00     0.217 C 
HETATM    5  S3  UNL     1       6.588   5.983 -13.808  1.00  0.00     0.230 S 
HETATM    6  O8  UNL     1       5.461   6.855 -13.371  1.00  0.00    -0.210 OA
HETATM    7  O9  UNL     1       7.803   6.767 -14.182  1.00  0.00    -0.210 OA
ENDROOT
BRANCH   3   8
HETATM    8  C17 UNL     1       7.234   2.332 -13.016  1.00  0.00     0.262 C 
HETATM    9  O4  UNL     1       6.662   1.284 -13.478  1.00  0.00    -0.267 OA
HETATM   10  N4  UNL     1       8.516   2.384 -12.498  1.00  0.00    -0.336 N 
ATOM     11  H4  UNL     1       8.830   3.301 -12.179  1.00  0.00     0.164 HD
BRANCH  10  12
HETATM   12  C18 UNL     1       9.471   1.300 -12.350  1.00  0.00     0.139 A 
HETATM   13  C23 UNL     1      10.752   1.762 -11.782  1.00  0.00     0.117 A 
HETATM   14  S2  UNL     1      11.768   1.232 -13.156  1.00  0.00    -0.154 SA
HETATM   15  C24 UNL     1      10.103   0.806 -13.580  1.00  0.00     0.036 A 
HETATM   16  C25 UNL     1       9.993  -0.725 -13.698  1.00  0.00     0.030 C 
HETATM   17  C26 UNL     1       9.600   1.369 -14.906  1.00  0.00     0.030 C 
BRANCH  12  18
HETATM   18  C19 UNL     1       8.880   0.146 -11.567  1.00  0.00     0.261 C 
HETATM   19  O5  UNL     1       9.182   0.016 -10.355  1.00  0.00    -0.270 OA
HETATM   20  N5  UNL     1       8.010  -0.787 -12.156  1.00  0.00    -0.252 N 
ATOM     21  H5  UNL     1       7.789  -0.661 -13.144  1.00  0.00     0.181 HD
BRANCH  20  22
HETATM   22  S1  UNL     1       7.290  -2.115 -11.353  1.00  0.00     0.237 S 
HETATM   23  O6  UNL     1       8.411  -2.970 -10.812  1.00  0.00    -0.205 OA
HETATM   24  O7  UNL     1       6.541  -2.931 -12.385  1.00  0.00    -0.205 OA
BRANCH  22  25
HETATM   25  C20 UNL     1       6.190  -1.629 -10.042  1.00  0.00     0.130 A 
HETATM   26  C21 UNL     1       5.426  -0.337 -10.302  1.00  0.00     0.023 A 
HETATM   27  C22 UNL     1       4.723  -1.649 -10.411  1.00  0.00     0.023 A 
ENDBRANCH  22  25
ENDBRANCH  20  22
ENDBRANCH  12  18
ENDBRANCH  10  12
ENDBRANCH   3   8
BRANCH   2  28
HETATM   28  C4  UNL     1       4.277   3.887 -14.074  1.00  0.00     0.218 C 
BRANCH  28  29
HETATM   29  C5  UNL     1       3.449   2.667 -14.252  1.00  0.00     0.236 C 
HETATM   30  O1  UNL     1       2.524   2.458 -13.386  1.00  0.00    -0.272 OA
HETATM   31  N3  UNL     1       3.628   1.747 -15.288  1.00  0.00    -0.324 N 
ATOM     32  H3  UNL     1       4.381   1.943 -15.947  1.00  0.00     0.169 HD
BRANCH  31  33
HETATM   33  C6  UNL     1       2.870   0.563 -15.519  1.00  0.00     0.095 C 
BRANCH  33  34
HETATM   34  C7  UNL     1       3.092  -0.586 -14.646  1.00  0.00     0.307 C 
HETATM   35  O2  UNL     1       4.146  -0.781 -14.014  1.00  0.00    -0.258 OA
BRANCH  34  36
HETATM   36  O3  UNL     1       2.092  -1.516 -14.503  1.00  0.00    -0.306 OA
BRANCH  36  37
HETATM   37  C8  UNL     1       1.292  -1.717 -13.386  1.00  0.00     0.060 C 
HETATM   38  C9  UNL     1       1.875  -2.912 -12.616  1.00  0.00     0.046 C 
HETATM   39  C10 UNL     1       1.184  -0.567 -12.444  1.00  0.00     0.046 C 
HETATM   40  C11 UNL     1      -0.120  -2.157 -13.756  1.00  0.00     0.046 C 
ENDBRANCH  36  37
ENDBRANCH  34  36
ENDBRANCH  33  34
BRANCH  33  41
HETATM   41  C12 UNL     1       2.787   0.291 -16.991  1.00  0.00    -0.003 C 
HETATM   42  C13 UNL     1       3.348  -1.042 -17.393  1.00  0.00     0.021 C 
HETATM   43  C14 UNL     1       1.390   0.502 -17.499  1.00  0.00     0.021 C 
HETATM   44  C15 UNL     1       3.682   1.335 -17.672  1.00  0.00     0.021 C 
ENDBRANCH  33  41
ENDBRANCH  31  33
ENDBRANCH  28  29
ENDBRANCH   2  28
BRANCH   1  45
HETATM   45  C2  UNL     1       7.072   4.711 -16.048  1.00  0.00     0.084 C 
HETATM   46  C1  UNL     1       6.943   5.683 -17.164  1.00  0.00     0.028 C 
HETATM   47  C3  UNL     1       6.893   3.307 -16.650  1.00  0.00     0.028 C 
ENDBRANCH   1  45
TORSDOF 13
ENDMDL
MODEL 5
REMARK VINA RESULT: -7.996716441      3.810      9.154
REMARK  13 active torsions:
REMARK  status: ('A' for Active; 'I' for Inactive)
REMARK    1  A    between atoms: C2_2  and  N1_4 
REMARK    2  A    between atoms: N2_5  and  C4_6 
REMARK    3  A    between atoms: C4_6  and  C5_7 
REMARK       I    between atoms: C5_7  and  N3_9 
REMARK    4  A    between atoms: N3_9  and  C6_11 
REMARK    5  A    between atoms: C6_11  and  C7_12 
REMARK    6  A    between atoms: C6_11  and  C12_19 
REMARK    7  A    between atoms: C7_12  and  O3_14 
REMARK    8  A    between atoms: O3_14  and  C8_15 
REMARK    9  A    between atoms: C16_23  and  C17_24 
REMARK       I    between atoms: C17_24  and  N4_26 
REMARK   10  A    between atoms: N4_26  and  C18_28 
REMARK   11  A    between atoms: C18_28  and  C19_29 
REMARK       I    between atoms: C19_29  and  N5_31 
REMARK   12  A    between atoms: N5_31  and  S1_33 
REMARK   13  A    between atoms: S1_33  and  C20_36 
ROOT
HETATM    1  N1  UNL     1       7.770  -0.590 -11.678  1.00  0.00    -0.131 NA
HETATM    2  N2  UNL     1       6.740  -0.598 -10.763  1.00  0.00    -0.190 NA
HETATM    3  C16 UNL     1       6.126  -1.893 -10.733  1.00  0.00     0.087 C 
HETATM    4  C27 UNL     1       6.931  -2.994 -11.241  1.00  0.00     0.217 C 
HETATM    5  S3  UNL     1       8.427  -2.178 -11.777  1.00  0.00     0.230 S 
HETATM    6  O8  UNL     1       9.518  -2.431 -10.795  1.00  0.00    -0.210 OA
HETATM    7  O9  UNL     1       8.804  -2.584 -13.165  1.00  0.00    -0.210 OA
ENDROOT
BRANCH   3   8
HETATM    8  C17 UNL     1       4.698  -1.842 -11.177  1.00  0.00     0.262 C 
HETATM    9  O4  UNL     1       3.888  -1.467 -10.259  1.00  0.00    -0.267 OA
HETATM   10  N4  UNL     1       4.343  -2.181 -12.471  1.00  0.00    -0.336 N 
ATOM     11  H4  UNL     1       5.111  -2.449 -13.087  1.00  0.00     0.164 HD
BRANCH  10  12
HETATM   12  C18 UNL     1       3.017  -2.204 -13.063  1.00  0.00     0.139 A 
HETATM   13  C23 UNL     1       1.986  -2.635 -12.099  1.00  0.00     0.117 A 
HETATM   14  S2  UNL     1       1.421  -4.044 -13.046  1.00  0.00    -0.154 SA
HETATM   15  C24 UNL     1       2.726  -3.307 -13.988  1.00  0.00     0.036 A 
HETATM   16  C25 UNL     1       2.154  -2.794 -15.321  1.00  0.00     0.030 C 
HETATM   17  C26 UNL     1       3.878  -4.241 -14.354  1.00  0.00     0.030 C 
BRANCH  12  18
HETATM   18  C19 UNL     1       2.679  -0.878 -13.711  1.00  0.00     0.261 C 
HETATM   19  O5  UNL     1       1.512  -0.427 -13.597  1.00  0.00    -0.270 OA
HETATM   20  N5  UNL     1       3.626  -0.140 -14.439  1.00  0.00    -0.252 N 
ATOM     21  H5  UNL     1       4.563  -0.535 -14.522  1.00  0.00     0.181 HD
BRANCH  20  22
HETATM   22  S1  UNL     1       3.339   1.366 -15.199  1.00  0.00     0.237 S 
HETATM   23  O6  UNL     1       2.783   2.297 -14.149  1.00  0.00    -0.205 OA
HETATM   24  O7  UNL     1       2.268   1.159 -16.250  1.00  0.00    -0.205 OA
BRANCH  22  25
HETATM   25  C20 UNL     1       4.797   2.066 -15.942  1.00  0.00     0.130 A 
HETATM   26  C21 UNL     1       4.550   3.334 -16.749  1.00  0.00     0.023 A 
HETATM   27  C22 UNL     1       5.188   3.423 -15.403  1.00  0.00     0.023 A 
ENDBRANCH  22  25
ENDBRANCH  20  22
ENDBRANCH  12  18
ENDBRANCH  10  12
ENDBRANCH   3   8
BRANCH   2  28
HETATM   28  C4  UNL     1       7.368  -0.358  -9.460  1.00  0.00     0.218 C 
BRANCH  28  29
HETATM   29  C5  UNL     1       8.282   0.813  -9.441  1.00  0.00     0.236 C 
HETATM   30  O1  UNL     1       7.767   1.949  -9.131  1.00  0.00    -0.272 OA
HETATM   31  N3  UNL     1       9.644   0.746  -9.744  1.00  0.00    -0.324 N 
ATOM     32  H3  UNL     1      10.010  -0.172  -9.996  1.00  0.00     0.169 HD
BRANCH  31  33
HETATM   33  C6  UNL     1      10.574   1.825  -9.741  1.00  0.00     0.095 C 
BRANCH  33  34
HETATM   34  C7  UNL     1      11.200   2.207 -11.004  1.00  0.00     0.307 C 
HETATM   35  O2  UNL     1      10.934   3.254 -11.619  1.00  0.00    -0.258 OA
BRANCH  34  36
HETATM   36  O3  UNL     1      12.139   1.373 -11.560  1.00  0.00    -0.306 OA
BRANCH  36  37
HETATM   37  C8  UNL     1      13.410   1.719 -11.997  1.00  0.00     0.060 C 
HETATM   38  C9  UNL     1      13.349   1.839 -13.528  1.00  0.00     0.046 C 
HETATM   39  C10 UNL     1      13.963   2.992 -11.455  1.00  0.00     0.046 C 
HETATM   40  C11 UNL     1      14.432   0.616 -11.743  1.00  0.00     0.046 C 
ENDBRANCH  36  37
ENDBRANCH  34  36
ENDBRANCH  33  34
BRANCH  33  41
HETATM   41  C12 UNL     1      11.470   1.721  -8.543  1.00  0.00    -0.003 C 
HETATM   42  C13 UNL     1      10.736   1.731  -7.234  1.00  0.00     0.021 C 
HETATM   43  C14 UNL     1      12.403   0.552  -8.670  1.00  0.00     0.021 C 
HETATM   44  C15 UNL     1      12.331   2.992  -8.541  1.00  0.00     0.021 C 
ENDBRANCH  33  41
ENDBRANCH  31  33
ENDBRANCH  28  29
ENDBRANCH   2  28
BRANCH   1  45
HETATM   45  C2  UNL     1       7.581   0.006 -12.954  1.00  0.00     0.084 C 
HETATM   46  C1  UNL     1       8.748   0.695 -13.562  1.00  0.00     0.028 C 
HETATM   47  C3  UNL     1       6.475   1.061 -12.779  1.00  0.00     0.028 C 
ENDBRANCH   1  45
TORSDOF 13
ENDMDL
