MODEL 1
REMARK VINA RESULT: -8.918332249      0.000      0.000
REMARK  16 active torsions:
REMARK  status: ('A' for Active; 'I' for Inactive)
REMARK    1  A    between atoms: C2_2  and  C3_3 
REMARK    2  A    between atoms: C2_2  and  C11_19 
REMARK    3  A    between atoms: C3_3  and  N1_4 
REMARK       I    between atoms: N1_4  and  C4_6 
REMARK    4  A    between atoms: C4_6  and  C5_8 
REMARK    5  A    between atoms: C5_8  and  N2_10 
REMARK    6  A    between atoms: C5_8  and  C8_16 
REMARK    7  A    between atoms: N2_10  and  S1_12 
REMARK    8  A    between atoms: C11_19  and  N4_24 
REMARK    9  A    between atoms: N3_20  and  O4_22 
REMARK   10  A    between atoms: C15_28  and  C16_29 
REMARK   11  A    between atoms: C16_29  and  O5_30 
REMARK   12  A    between atoms: C16_29  and  N5_32 
REMARK   13  A    between atoms: C20_36  and  C21_37 
REMARK       I    between atoms: C21_37  and  N6_39 
REMARK   14  A    between atoms: C26_45  and  C27_46 
REMARK   15  A    between atoms: C27_46  and  O8_48 
REMARK   16  A    between atoms: O8_48  and  C28_49 
ROOT
HETATM    1  N4  UNL     1       7.282   0.677 -11.299  1.00  0.00    -0.357 N 
HETATM    2  C12 UNL     1       6.144   1.196 -12.078  1.00  0.00     0.125 C 
HETATM    3  C13 UNL     1       5.916   2.573 -11.525  1.00  0.00     0.022 C 
HETATM    4  C14 UNL     1       7.171   2.960 -10.839  1.00  0.00     0.035 C 
HETATM    5  C15 UNL     1       8.133   1.800 -11.125  1.00  0.00     0.160 C 
ENDROOT
BRANCH   5   6
HETATM    6  C16 UNL     1       9.020   2.236 -12.167  1.00  0.00     0.138 C 
BRANCH   6   7
HETATM    7  O5  UNL     1       9.227   3.521 -12.200  1.00  0.00    -0.348 OA
ATOM      8  H5  UNL     1       8.467   4.050 -11.987  1.00  0.00     0.219 HD
ENDBRANCH   6   7
BRANCH   6   9
HETATM    9  N5  UNL     1       9.728   1.542 -13.185  1.00  0.00    -0.350 N 
HETATM   10  C17 UNL     1       9.208   0.471 -13.966  1.00  0.00     0.126 C 
HETATM   11  C18 UNL     1      10.325  -0.113 -14.757  1.00  0.00     0.022 C 
HETATM   12  C19 UNL     1      11.334   0.993 -14.827  1.00  0.00     0.037 C 
HETATM   13  C20 UNL     1      11.095   1.835 -13.609  1.00  0.00     0.178 C 
BRANCH  13  14
HETATM   14  C21 UNL     1      12.082   1.528 -12.583  1.00  0.00     0.243 C 
HETATM   15  O6  UNL     1      11.883   0.572 -11.787  1.00  0.00    -0.271 OA
HETATM   16  N6  UNL     1      13.264   2.286 -12.459  1.00  0.00    -0.333 N 
HETATM   17  C22 UNL     1      13.598   3.400 -13.311  1.00  0.00     0.146 C 
HETATM   18  C26 UNL     1      14.246   1.978 -11.416  1.00  0.00     0.204 C 
HETATM   19  C23 UNL     1      14.964   3.264 -13.936  1.00  0.00     0.136 C 
HETATM   20  N7  UNL     1      15.848   2.385 -13.255  1.00  0.00    -0.413 N 
HETATM   21  C24 UNL     1      16.300   1.244 -13.976  1.00  0.00     0.143 C 
HETATM   22  C25 UNL     1      15.646   2.210 -11.863  1.00  0.00     0.152 C 
BRANCH  18  23
HETATM   23  C27 UNL     1      13.986   2.914 -10.263  1.00  0.00     0.284 C 
HETATM   24  O7  UNL     1      14.869   3.637  -9.764  1.00  0.00    -0.263 OA
BRANCH  23  25
HETATM   25  O8  UNL     1      12.720   2.998  -9.710  1.00  0.00    -0.310 OA
BRANCH  25  26
HETATM   26  C28 UNL     1      12.348   2.263  -8.541  1.00  0.00     0.060 C 
HETATM   27  C29 UNL     1      10.895   1.848  -8.711  1.00  0.00     0.045 C 
HETATM   28  C30 UNL     1      12.530   3.049  -7.284  1.00  0.00     0.045 C 
HETATM   29  C31 UNL     1      13.147   0.965  -8.461  1.00  0.00     0.045 C 
ENDBRANCH  25  26
ENDBRANCH  23  25
ENDBRANCH  18  23
ENDBRANCH  13  14
ENDBRANCH   6   9
ENDBRANCH   5   6
BRANCH   1  30
HETATM   30  C11 UNL     1       7.348  -0.672 -10.859  1.00  0.00     0.105 C 
HETATM   31  N3  UNL     1       7.614  -0.951  -9.645  1.00  0.00    -0.257 N 
ATOM     32  H3  UNL     1       7.636  -1.945  -9.415  1.00  0.00     0.195 HD
BRANCH  30  33
HETATM   33  C2  UNL     1       7.102  -1.810 -11.790  1.00  0.00     0.069 C 
HETATM   34  C1  UNL     1       8.309  -2.614 -12.118  1.00  0.00     0.020 C 
BRANCH  33  35
HETATM   35  C3  UNL     1       5.939  -2.637 -11.371  1.00  0.00     0.134 C 
BRANCH  35  36
HETATM   36  N1  UNL     1       4.751  -2.423 -12.168  1.00  0.00    -0.358 N 
HETATM   37  C4  UNL     1       3.544  -1.926 -11.633  1.00  0.00     0.246 C 
HETATM   38  O1  UNL     1       3.523  -1.673 -10.409  1.00  0.00    -0.271 OA
ATOM     39  H1  UNL     1       4.787  -2.643 -13.164  1.00  0.00     0.162 HD
BRANCH  37  40
HETATM   40  C5  UNL     1       2.380  -1.727 -12.526  1.00  0.00     0.120 C 
HETATM   41  C6  UNL     1       1.964  -3.037 -13.176  1.00  0.00     0.050 C 
BRANCH  40  42
HETATM   42  N2  UNL     1       1.320  -0.958 -11.997  1.00  0.00    -0.301 N 
ATOM     43  H2  UNL     1       1.489   0.005 -11.705  1.00  0.00     0.173 HD
BRANCH  42  44
HETATM   44  S1  UNL     1      -0.211  -1.617 -11.844  1.00  0.00     0.223 S 
HETATM   45  C7  UNL     1      -1.139  -1.497 -13.365  1.00  0.00     0.186 C 
HETATM   46  O2  UNL     1      -0.986  -0.744 -10.851  1.00  0.00    -0.206 OA
HETATM   47  O3  UNL     1      -0.291  -3.002 -11.279  1.00  0.00    -0.206 OA
ENDBRANCH  42  44
ENDBRANCH  40  42
BRANCH  40  48
HETATM   48  C8  UNL     1       2.933  -0.889 -13.709  1.00  0.00     0.015 C 
HETATM   49  C9  UNL     1       2.627   0.551 -13.400  1.00  0.00     0.012 C 
HETATM   50  C10 UNL     1       2.170  -1.257 -14.975  1.00  0.00     0.012 C 
ENDBRANCH  40  48
ENDBRANCH  37  40
ENDBRANCH  35  36
ENDBRANCH  33  35
ENDBRANCH  30  33
BRANCH  31  51
HETATM   51  O4  UNL     1       7.870  -0.109  -8.622  1.00  0.00    -0.288 OA
ATOM     52  H4  UNL     1       7.761  -0.257  -7.689  1.00  0.00     0.244 HD
ENDBRANCH  31  51
ENDBRANCH   1  30
TORSDOF 16
ENDMDL
MODEL 2
REMARK VINA RESULT: -8.894530377      3.248     10.255
REMARK  16 active torsions:
REMARK  status: ('A' for Active; 'I' for Inactive)
REMARK    1  A    between atoms: C2_2  and  C3_3 
REMARK    2  A    between atoms: C2_2  and  C11_19 
REMARK    3  A    between atoms: C3_3  and  N1_4 
REMARK       I    between atoms: N1_4  and  C4_6 
REMARK    4  A    between atoms: C4_6  and  C5_8 
REMARK    5  A    between atoms: C5_8  and  N2_10 
REMARK    6  A    between atoms: C5_8  and  C8_16 
REMARK    7  A    between atoms: N2_10  and  S1_12 
REMARK    8  A    between atoms: C11_19  and  N4_24 
REMARK    9  A    between atoms: N3_20  and  O4_22 
REMARK   10  A    between atoms: C15_28  and  C16_29 
REMARK   11  A    between atoms: C16_29  and  O5_30 
REMARK   12  A    between atoms: C16_29  and  N5_32 
REMARK   13  A    between atoms: C20_36  and  C21_37 
REMARK       I    between atoms: C21_37  and  N6_39 
REMARK   14  A    between atoms: C26_45  and  C27_46 
REMARK   15  A    between atoms: C27_46  and  O8_48 
REMARK   16  A    between atoms: O8_48  and  C28_49 
ROOT
HETATM    1  N4  UNL     1       9.706   1.083 -10.969  1.00  0.00    -0.357 N 
HETATM    2  C12 UNL     1      10.695   0.801  -9.914  1.00  0.00     0.125 C 
HETATM    3  C13 UNL     1      10.149   1.498  -8.701  1.00  0.00     0.022 C 
HETATM    4  C14 UNL     1       8.707   1.718  -8.959  1.00  0.00     0.035 C 
HETATM    5  C15 UNL     1       8.452   1.023 -10.304  1.00  0.00     0.160 C 
ENDROOT
BRANCH   5   6
HETATM    6  C16 UNL     1       7.816  -0.231 -10.015  1.00  0.00     0.138 C 
BRANCH   6   7
HETATM    7  O5  UNL     1       7.343  -0.334  -8.807  1.00  0.00    -0.348 OA
ATOM      8  H5  UNL     1       7.122  -1.220  -8.543  1.00  0.00     0.219 HD
ENDBRANCH   6   7
BRANCH   6   9
HETATM    9  N5  UNL     1       7.594  -1.401 -10.790  1.00  0.00    -0.350 N 
HETATM   10  C17 UNL     1       8.581  -2.377 -11.110  1.00  0.00     0.126 C 
HETATM   11  C18 UNL     1       8.000  -3.317 -12.107  1.00  0.00     0.022 C 
HETATM   12  C19 UNL     1       6.520  -3.182 -11.910  1.00  0.00     0.037 C 
HETATM   13  C20 UNL     1       6.310  -1.802 -11.361  1.00  0.00     0.178 C 
BRANCH  13  14
HETATM   14  C21 UNL     1       5.857  -0.905 -12.415  1.00  0.00     0.243 C 
HETATM   15  O6  UNL     1       6.698  -0.250 -13.086  1.00  0.00    -0.271 OA
HETATM   16  N6  UNL     1       4.486  -0.750 -12.700  1.00  0.00    -0.333 N 
HETATM   17  C22 UNL     1       3.435  -1.447 -12.000  1.00  0.00     0.146 C 
HETATM   18  C26 UNL     1       4.037   0.164 -13.755  1.00  0.00     0.204 C 
HETATM   19  C23 UNL     1       2.501  -2.178 -12.932  1.00  0.00     0.136 C 
HETATM   20  N7  UNL     1       2.497  -1.700 -14.270  1.00  0.00    -0.413 N 
HETATM   21  C24 UNL     1       2.910  -2.614 -15.280  1.00  0.00     0.143 C 
HETATM   22  C25 UNL     1       2.836  -0.339 -14.475  1.00  0.00     0.152 C 
BRANCH  18  23
HETATM   23  C27 UNL     1       3.647   1.460 -13.090  1.00  0.00     0.284 C 
HETATM   24  O7  UNL     1       2.466   1.840 -12.988  1.00  0.00    -0.263 OA
BRANCH  23  25
HETATM   25  O8  UNL     1       4.621   2.287 -12.559  1.00  0.00    -0.310 OA
BRANCH  25  26
HETATM   26  C28 UNL     1       5.142   3.409 -13.274  1.00  0.00     0.060 C 
HETATM   27  C29 UNL     1       5.538   4.458 -12.247  1.00  0.00     0.045 C 
HETATM   28  C30 UNL     1       4.167   3.972 -14.256  1.00  0.00     0.045 C 
HETATM   29  C31 UNL     1       6.433   3.020 -13.992  1.00  0.00     0.045 C 
ENDBRANCH  25  26
ENDBRANCH  23  25
ENDBRANCH  18  23
ENDBRANCH  13  14
ENDBRANCH   6   9
ENDBRANCH   5   6
BRANCH   1  30
HETATM   30  C11 UNL     1      10.084   1.371 -12.307  1.00  0.00     0.105 C 
HETATM   31  N3  UNL     1       9.898   2.528 -12.805  1.00  0.00    -0.257 N 
ATOM     32  H3  UNL     1      10.205   2.648 -13.771  1.00  0.00     0.195 HD
BRANCH  30  33
HETATM   33  C2  UNL     1      10.720   0.341 -13.177  1.00  0.00     0.069 C 
HETATM   34  C1  UNL     1       9.806  -0.282 -14.172  1.00  0.00     0.020 C 
BRANCH  33  35
HETATM   35  C3  UNL     1      11.999   0.817 -13.770  1.00  0.00     0.134 C 
BRANCH  35  36
HETATM   36  N1  UNL     1      13.095   0.876 -12.828  1.00  0.00    -0.358 N 
HETATM   37  C4  UNL     1      13.580   2.086 -12.288  1.00  0.00     0.246 C 
HETATM   38  O1  UNL     1      13.027   3.143 -12.662  1.00  0.00    -0.271 OA
ATOM     39  H1  UNL     1      13.537   0.003 -12.541  1.00  0.00     0.162 HD
BRANCH  37  40
HETATM   40  C5  UNL     1      14.699   2.052 -11.319  1.00  0.00     0.120 C 
HETATM   41  C6  UNL     1      14.462   0.996 -10.252  1.00  0.00     0.050 C 
BRANCH  40  42
HETATM   42  N2  UNL     1      15.998   2.060 -11.875  1.00  0.00    -0.301 N 
ATOM     43  H2  UNL     1      16.627   2.839 -11.681  1.00  0.00     0.173 HD
BRANCH  42  44
HETATM   44  S1  UNL     1      16.509   0.800 -12.851  1.00  0.00     0.223 S 
HETATM   45  C7  UNL     1      18.287   0.762 -13.008  1.00  0.00     0.186 C 
HETATM   46  O2  UNL     1      16.004   1.088 -14.269  1.00  0.00    -0.206 OA
HETATM   47  O3  UNL     1      15.974  -0.561 -12.525  1.00  0.00    -0.206 OA
ENDBRANCH  42  44
ENDBRANCH  40  42
BRANCH  40  48
HETATM   48  C8  UNL     1      14.587   3.390 -10.542  1.00  0.00     0.015 C 
HETATM   49  C9  UNL     1      15.992   3.877 -10.312  1.00  0.00     0.012 C 
HETATM   50  C10 UNL     1      13.967   3.120  -9.177  1.00  0.00     0.012 C 
ENDBRANCH  40  48
ENDBRANCH  37  40
ENDBRANCH  35  36
ENDBRANCH  33  35
ENDBRANCH  30  33
BRANCH  31  51
HETATM   51  O4  UNL     1       9.349   3.617 -12.227  1.00  0.00    -0.288 OA
ATOM     52  H4  UNL     1       9.639   4.521 -12.269  1.00  0.00     0.244 HD
ENDBRANCH  31  51
ENDBRANCH   1  30
TORSDOF 16
ENDMDL
MODEL 3
REMARK VINA RESULT: -8.852209541      2.290      4.157
REMARK  16 active torsions:
REMARK  status: ('A' for Active; 'I' for Inactive)
REMARK    1  A    between atoms: C2_2  and  C3_3 
REMARK    2  A    between atoms: C2_2  and  C11_19 
REMARK    3  A    between atoms: C3_3  and  N1_4 
REMARK       I    between atoms: N1_4  and  C4_6 
REMARK    4  A    between atoms: C4_6  and  C5_8 
REMARK    5  A    between atoms: C5_8  and  N2_10 
REMARK    6  A    between atoms: C5_8  and  C8_16 
REMARK    7  A    between atoms: N2_10  and  S1_12 
REMARK    8  A    between atoms: C11_19  and  N4_24 
REMARK    9  A    between atoms: N3_20  and  O4_22 
REMARK   10  A    between atoms: C15_28  and  C16_29 
REMARK   11  A    between atoms: C16_29  and  O5_30 
REMARK   12  A    between atoms: C16_29  and  N5_32 
REMARK   13  A    between atoms: C20_36  and  C21_37 
REMARK       I    between atoms: C21_37  and  N6_39 
REMARK   14  A    between atoms: C26_45  and  C27_46 
REMARK   15  A    between atoms: C27_46  and  O8_48 
REMARK   16  A    between atoms: O8_48  and  C28_49 
ROOT
HETATM    1  N4  UNL     1       8.592  -0.579 -10.625  1.00  0.00    -0.357 N 
HETATM    2  C12 UNL     1       8.944  -0.102 -11.974  1.00  0.00     0.125 C 
HETATM    3  C13 UNL     1       8.752   1.385 -11.901  1.00  0.00     0.022 C 
HETATM    4  C14 UNL     1       8.779   1.740 -10.463  1.00  0.00     0.035 C 
HETATM    5  C15 UNL     1       9.102   0.418  -9.753  1.00  0.00     0.160 C 
ENDROOT
BRANCH   5   6
HETATM    6  C16 UNL     1      10.492   0.461  -9.396  1.00  0.00     0.138 C 
BRANCH   6   7
HETATM    7  O5  UNL     1      11.220  -0.472  -9.939  1.00  0.00    -0.348 OA
ATOM      8  H5  UNL     1      12.078  -0.583  -9.547  1.00  0.00     0.219 HD
ENDBRANCH   6   7
BRANCH   6   9
HETATM    9  N5  UNL     1      11.248   1.324  -8.558  1.00  0.00    -0.350 N 
HETATM   10  C17 UNL     1      10.776   1.926  -7.356  1.00  0.00     0.126 C 
HETATM   11  C18 UNL     1      11.789   2.916  -6.903  1.00  0.00     0.022 C 
HETATM   12  C19 UNL     1      13.060   2.455  -7.550  1.00  0.00     0.037 C 
HETATM   13  C20 UNL     1      12.637   1.713  -8.784  1.00  0.00     0.178 C 
BRANCH  13  14
HETATM   14  C21 UNL     1      12.804   2.556  -9.960  1.00  0.00     0.243 C 
HETATM   15  O6  UNL     1      12.030   3.532 -10.146  1.00  0.00    -0.271 OA
HETATM   16  N6  UNL     1      13.819   2.298 -10.903  1.00  0.00    -0.333 N 
HETATM   17  C22 UNL     1      14.761   1.212 -10.794  1.00  0.00     0.146 C 
HETATM   18  C26 UNL     1      13.972   3.143 -12.090  1.00  0.00     0.204 C 
HETATM   19  C23 UNL     1      16.193   1.673 -10.898  1.00  0.00     0.136 C 
HETATM   20  N7  UNL     1      16.372   2.928 -11.539  1.00  0.00    -0.413 N 
HETATM   21  C24 UNL     1      16.948   3.970 -10.759  1.00  0.00     0.143 C 
HETATM   22  C25 UNL     1      15.394   3.318 -12.488  1.00  0.00     0.152 C 
BRANCH  18  23
HETATM   23  C27 UNL     1      13.272   2.448 -13.230  1.00  0.00     0.284 C 
HETATM   24  O7  UNL     1      13.874   1.754 -14.072  1.00  0.00    -0.263 OA
BRANCH  23  25
HETATM   25  O8  UNL     1      11.901   2.565 -13.378  1.00  0.00    -0.310 OA
BRANCH  25  26
HETATM   26  C28 UNL     1      11.293   3.723 -13.956  1.00  0.00     0.060 C 
HETATM   27  C29 UNL     1      10.133   3.243 -14.815  1.00  0.00     0.045 C 
HETATM   28  C30 UNL     1      12.250   4.535 -14.765  1.00  0.00     0.045 C 
HETATM   29  C31 UNL     1      10.672   4.590 -12.863  1.00  0.00     0.045 C 
ENDBRANCH  25  26
ENDBRANCH  23  25
ENDBRANCH  18  23
ENDBRANCH  13  14
ENDBRANCH   6   9
ENDBRANCH   5   6
BRANCH   1  30
HETATM   30  C11 UNL     1       7.863  -1.779 -10.411  1.00  0.00     0.105 C 
HETATM   31  N3  UNL     1       8.464  -2.890 -10.246  1.00  0.00    -0.257 N 
ATOM     32  H3  UNL     1       7.863  -3.699 -10.093  1.00  0.00     0.195 HD
BRANCH  30  33
HETATM   33  C2  UNL     1       6.373  -1.789 -10.361  1.00  0.00     0.069 C 
HETATM   34  C1  UNL     1       5.745  -0.441 -10.336  1.00  0.00     0.020 C 
BRANCH  33  35
HETATM   35  C3  UNL     1       5.782  -2.696 -11.381  1.00  0.00     0.134 C 
BRANCH  35  36
HETATM   36  N1  UNL     1       4.436  -2.340 -11.772  1.00  0.00    -0.358 N 
HETATM   37  C4  UNL     1       3.735  -3.001 -12.803  1.00  0.00     0.246 C 
HETATM   38  O1  UNL     1       4.328  -3.927 -13.396  1.00  0.00    -0.271 OA
ATOM     39  H1  UNL     1       3.972  -1.577 -11.280  1.00  0.00     0.162 HD
BRANCH  37  40
HETATM   40  C5  UNL     1       2.354  -2.578 -13.129  1.00  0.00     0.120 C 
HETATM   41  C6  UNL     1       1.628  -2.087 -11.886  1.00  0.00     0.050 C 
BRANCH  40  42
HETATM   42  N2  UNL     1       2.213  -1.755 -14.268  1.00  0.00    -0.301 N 
ATOM     43  H2  UNL     1       1.722  -2.108 -15.090  1.00  0.00     0.173 HD
BRANCH  42  44
HETATM   44  S1  UNL     1       2.847  -0.206 -14.279  1.00  0.00     0.223 S 
HETATM   45  C7  UNL     1       2.884   0.485 -15.925  1.00  0.00     0.186 C 
HETATM   46  O2  UNL     1       4.320  -0.314 -13.873  1.00  0.00    -0.206 OA
HETATM   47  O3  UNL     1       2.254   0.767 -13.306  1.00  0.00    -0.206 OA
ENDBRANCH  42  44
ENDBRANCH  40  42
BRANCH  40  48
HETATM   48  C8  UNL     1       1.615  -3.893 -13.489  1.00  0.00     0.015 C 
HETATM   49  C9  UNL     1       1.094  -3.727 -14.890  1.00  0.00     0.012 C 
HETATM   50  C10 UNL     1       0.411  -4.053 -12.570  1.00  0.00     0.012 C 
ENDBRANCH  40  48
ENDBRANCH  37  40
ENDBRANCH  35  36
ENDBRANCH  33  35
ENDBRANCH  30  33
BRANCH  31  51
HETATM   51  O4  UNL     1       9.791  -3.139 -10.247  1.00  0.00    -0.288 OA
ATOM     52  H4  UNL     1      10.360  -3.328  -9.510  1.00  0.00     0.244 HD
ENDBRANCH  31  51
ENDBRANCH   1  30
TORSDOF 16
ENDMDL
MODEL 4
REMARK VINA RESULT: -8.722589807      2.460      5.129
REMARK  16 active torsions:
REMARK  status: ('A' for Active; 'I' for Inactive)
REMARK    1  A    between atoms: C2_2  and  C3_3 
REMARK    2  A    between atoms: C2_2  and  C11_19 
REMARK    3  A    between atoms: C3_3  and  N1_4 
REMARK       I    between atoms: N1_4  and  C4_6 
REMARK    4  A    between atoms: C4_6  and  C5_8 
REMARK    5  A    between atoms: C5_8  and  N2_10 
REMARK    6  A    between atoms: C5_8  and  C8_16 
REMARK    7  A    between atoms: N2_10  and  S1_12 
REMARK    8  A    between atoms: C11_19  and  N4_24 
REMARK    9  A    between atoms: N3_20  and  O4_22 
REMARK   10  A    between atoms: C15_28  and  C16_29 
REMARK   11  A    between atoms: C16_29  and  O5_30 
REMARK   12  A    between atoms: C16_29  and  N5_32 
REMARK   13  A    between atoms: C20_36  and  C21_37 
REMARK       I    between atoms: C21_37  and  N6_39 
REMARK   14  A    between atoms: C26_45  and  C27_46 
REMARK   15  A    between atoms: C27_46  and  O8_48 
REMARK   16  A    between atoms: O8_48  and  C28_49 
ROOT
HETATM    1  N4  UNL     1       7.893  -1.959 -10.945  1.00  0.00    -0.357 N 
HETATM    2  C12 UNL     1       8.373  -3.340 -10.766  1.00  0.00     0.125 C 
HETATM    3  C13 UNL     1       8.815  -3.758 -12.139  1.00  0.00     0.022 C 
HETATM    4  C14 UNL     1       9.027  -2.509 -12.907  1.00  0.00     0.035 C 
HETATM    5  C15 UNL     1       8.795  -1.390 -11.883  1.00  0.00     0.160 C 
ENDROOT
BRANCH   5   6
HETATM    6  C16 UNL     1      10.087  -0.909 -11.483  1.00  0.00     0.138 C 
BRANCH   6   7
HETATM    7  O5  UNL     1      10.526  -1.405 -10.362  1.00  0.00    -0.348 OA
ATOM      8  H5  UNL     1      11.434  -1.685 -10.382  1.00  0.00     0.219 HD
ENDBRANCH   6   7
BRANCH   6   9
HETATM    9  N5  UNL     1      10.999   0.010 -12.068  1.00  0.00    -0.350 N 
HETATM   10  C17 UNL     1      12.396   0.070 -11.797  1.00  0.00     0.126 C 
HETATM   11  C18 UNL     1      12.941   1.296 -12.440  1.00  0.00     0.022 C 
HETATM   12  C19 UNL     1      11.953   1.605 -13.524  1.00  0.00     0.037 C 
HETATM   13  C20 UNL     1      10.651   1.024 -13.061  1.00  0.00     0.178 C 
BRANCH  13  14
HETATM   14  C21 UNL     1       9.795   2.072 -12.521  1.00  0.00     0.243 C 
HETATM   15  O6  UNL     1       9.990   2.500 -11.353  1.00  0.00    -0.271 OA
HETATM   16  N6  UNL     1       8.744   2.618 -13.284  1.00  0.00    -0.333 N 
HETATM   17  C22 UNL     1       8.428   2.207 -14.629  1.00  0.00     0.146 C 
HETATM   18  C26 UNL     1       7.880   3.664 -12.729  1.00  0.00     0.204 C 
HETATM   19  C23 UNL     1       8.365   3.367 -15.591  1.00  0.00     0.136 C 
HETATM   20  N7  UNL     1       8.146   4.634 -14.987  1.00  0.00    -0.413 N 
HETATM   21  C24 UNL     1       9.171   5.609 -15.151  1.00  0.00     0.143 C 
HETATM   22  C25 UNL     1       7.449   4.653 -13.753  1.00  0.00     0.152 C 
BRANCH  18  23
HETATM   23  C27 UNL     1       6.635   2.990 -12.210  1.00  0.00     0.284 C 
HETATM   24  O7  UNL     1       6.628   2.269 -11.193  1.00  0.00    -0.263 OA
BRANCH  23  25
HETATM   25  O8  UNL     1       5.430   3.158 -12.868  1.00  0.00    -0.310 OA
BRANCH  25  26
HETATM   26  C28 UNL     1       4.802   2.099 -13.595  1.00  0.00     0.060 C 
HETATM   27  C29 UNL     1       3.334   2.087 -13.201  1.00  0.00     0.045 C 
HETATM   28  C30 UNL     1       5.431   0.769 -13.335  1.00  0.00     0.045 C 
HETATM   29  C31 UNL     1       4.831   2.402 -15.092  1.00  0.00     0.045 C 
ENDBRANCH  25  26
ENDBRANCH  23  25
ENDBRANCH  18  23
ENDBRANCH  13  14
ENDBRANCH   6   9
ENDBRANCH   5   6
BRANCH   1  30
HETATM   30  C11 UNL     1       6.739  -1.464 -10.280  1.00  0.00     0.105 C 
HETATM   31  N3  UNL     1       6.819  -0.481  -9.474  1.00  0.00    -0.257 N 
ATOM     32  H3  UNL     1       5.941  -0.188  -9.046  1.00  0.00     0.195 HD
BRANCH  30  33
HETATM   33  C2  UNL     1       5.393  -2.064 -10.503  1.00  0.00     0.069 C 
HETATM   34  C1  UNL     1       4.253  -1.153 -10.214  1.00  0.00     0.020 C 
BRANCH  33  35
HETATM   35  C3  UNL     1       5.290  -2.737 -11.825  1.00  0.00     0.134 C 
BRANCH  35  36
HETATM   36  N1  UNL     1       4.139  -2.331 -12.601  1.00  0.00    -0.358 N 
HETATM   37  C4  UNL     1       3.526  -3.163 -13.562  1.00  0.00     0.246 C 
HETATM   38  O1  UNL     1       4.024  -4.296 -13.739  1.00  0.00    -0.271 OA
ATOM     39  H1  UNL     1       3.751  -1.400 -12.446  1.00  0.00     0.162 HD
BRANCH  37  40
HETATM   40  C5  UNL     1       2.342  -2.669 -14.302  1.00  0.00     0.120 C 
HETATM   41  C6  UNL     1       1.337  -3.788 -14.526  1.00  0.00     0.050 C 
BRANCH  40  42
HETATM   42  N2  UNL     1       1.792  -1.452 -13.845  1.00  0.00    -0.301 N 
ATOM     43  H2  UNL     1       2.050  -0.576 -14.301  1.00  0.00     0.173 HD
BRANCH  42  44
HETATM   44  S1  UNL     1       0.720  -1.436 -12.559  1.00  0.00     0.223 S 
HETATM   45  C7  UNL     1      -0.946  -1.811 -13.080  1.00  0.00     0.186 C 
HETATM   46  O2  UNL     1       0.647   0.005 -12.044  1.00  0.00    -0.206 OA
HETATM   47  O3  UNL     1       1.099  -2.251 -11.360  1.00  0.00    -0.206 OA
ENDBRANCH  42  44
ENDBRANCH  40  42
BRANCH  40  48
HETATM   48  C8  UNL     1       2.872  -2.361 -15.727  1.00  0.00     0.015 C 
HETATM   49  C9  UNL     1       2.874  -0.864 -15.873  1.00  0.00     0.012 C 
HETATM   50  C10 UNL     1       1.891  -2.919 -16.751  1.00  0.00     0.012 C 
ENDBRANCH  40  48
ENDBRANCH  37  40
ENDBRANCH  35  36
ENDBRANCH  33  35
ENDBRANCH  30  33
BRANCH  31  51
HETATM   51  O4  UNL     1       7.911   0.225  -9.111  1.00  0.00    -0.288 OA
ATOM     52  H4  UNL     1       8.426   0.832  -9.631  1.00  0.00     0.244 HD
ENDBRANCH  31  51
ENDBRANCH   1  30
TORSDOF 16
ENDMDL
MODEL 5
REMARK VINA RESULT: -8.705725312      4.193     10.063
REMARK  16 active torsions:
REMARK  status: ('A' for Active; 'I' for Inactive)
REMARK    1  A    between atoms: C2_2  and  C3_3 
REMARK    2  A    between atoms: C2_2  and  C11_19 
REMARK    3  A    between atoms: C3_3  and  N1_4 
REMARK       I    between atoms: N1_4  and  C4_6 
REMARK    4  A    between atoms: C4_6  and  C5_8 
REMARK    5  A    between atoms: C5_8  and  N2_10 
REMARK    6  A    between atoms: C5_8  and  C8_16 
REMARK    7  A    between atoms: N2_10  and  S1_12 
REMARK    8  A    between atoms: C11_19  and  N4_24 
REMARK    9  A    between atoms: N3_20  and  O4_22 
REMARK   10  A    between atoms: C15_28  and  C16_29 
REMARK   11  A    between atoms: C16_29  and  O5_30 
REMARK   12  A    between atoms: C16_29  and  N5_32 
REMARK   13  A    between atoms: C20_36  and  C21_37 
REMARK       I    between atoms: C21_37  and  N6_39 
REMARK   14  A    between atoms: C26_45  and  C27_46 
REMARK   15  A    between atoms: C27_46  and  O8_48 
REMARK   16  A    between atoms: O8_48  and  C28_49 
ROOT
HETATM    1  N4  UNL     1      10.700   1.183 -10.070  1.00  0.00    -0.357 N 
HETATM    2  C12 UNL     1      10.440   2.108 -11.187  1.00  0.00     0.125 C 
HETATM    3  C13 UNL     1      11.252   1.553 -12.322  1.00  0.00     0.022 C 
HETATM    4  C14 UNL     1      11.533   0.138 -11.981  1.00  0.00     0.035 C 
HETATM    5  C15 UNL     1      10.758  -0.099 -10.678  1.00  0.00     0.160 C 
ENDROOT
BRANCH   5   6
HETATM    6  C16 UNL     1       9.565  -0.820 -11.022  1.00  0.00     0.138 C 
BRANCH   6   7
HETATM    7  O5  UNL     1       9.752  -1.823 -11.830  1.00  0.00    -0.348 OA
ATOM      8  H5  UNL     1       8.955  -2.256 -12.115  1.00  0.00     0.219 HD
ENDBRANCH   6   7
BRANCH   6   9
HETATM    9  N5  UNL     1       8.201  -0.660 -10.656  1.00  0.00    -0.350 N 
HETATM   10  C17 UNL     1       7.423  -1.614  -9.941  1.00  0.00     0.126 C 
HETATM   11  C18 UNL     1       6.006  -1.160  -9.951  1.00  0.00     0.022 C 
HETATM   12  C19 UNL     1       6.102   0.316 -10.191  1.00  0.00     0.037 C 
HETATM   13  C20 UNL     1       7.388   0.522 -10.935  1.00  0.00     0.178 C 
BRANCH  13  14
HETATM   14  C21 UNL     1       7.125   0.703 -12.356  1.00  0.00     0.243 C 
HETATM   15  O6  UNL     1       7.176  -0.285 -13.134  1.00  0.00    -0.271 OA
HETATM   16  N6  UNL     1       6.816   1.974 -12.882  1.00  0.00    -0.333 N 
HETATM   17  C22 UNL     1       6.730   3.174 -12.088  1.00  0.00     0.146 C 
HETATM   18  C26 UNL     1       6.564   2.150 -14.315  1.00  0.00     0.204 C 
HETATM   19  C23 UNL     1       5.424   3.905 -12.281  1.00  0.00     0.136 C 
HETATM   20  N7  UNL     1       4.742   3.602 -13.489  1.00  0.00    -0.413 N 
HETATM   21  C24 UNL     1       3.454   3.008 -13.366  1.00  0.00     0.143 C 
HETATM   22  C25 UNL     1       5.527   3.180 -14.591  1.00  0.00     0.152 C 
BRANCH  18  23
HETATM   23  C27 UNL     1       7.849   2.633 -14.941  1.00  0.00     0.284 C 
HETATM   24  O7  UNL     1       8.901   1.965 -14.929  1.00  0.00    -0.263 OA
BRANCH  23  25
HETATM   25  O8  UNL     1       7.895   3.867 -15.564  1.00  0.00    -0.310 OA
BRANCH  25  26
HETATM   26  C28 UNL     1       8.608   4.976 -15.009  1.00  0.00     0.060 C 
HETATM   27  C29 UNL     1       9.498   5.536 -16.107  1.00  0.00     0.045 C 
HETATM   28  C30 UNL     1       9.418   4.600 -13.812  1.00  0.00     0.045 C 
HETATM   29  C31 UNL     1       7.636   6.096 -14.647  1.00  0.00     0.045 C 
ENDBRANCH  25  26
ENDBRANCH  23  25
ENDBRANCH  18  23
ENDBRANCH  13  14
ENDBRANCH   6   9
ENDBRANCH   5   6
BRANCH   1  30
HETATM   30  C11 UNL     1      10.870   1.635  -8.734  1.00  0.00     0.105 C 
HETATM   31  N3  UNL     1       9.945   1.486  -7.871  1.00  0.00    -0.257 N 
ATOM     32  H3  UNL     1      10.155   1.835  -6.935  1.00  0.00     0.195 HD
BRANCH  30  33
HETATM   33  C2  UNL     1      12.131   2.291  -8.286  1.00  0.00     0.069 C 
HETATM   34  C1  UNL     1      12.150   2.687  -6.853  1.00  0.00     0.020 C 
BRANCH  33  35
HETATM   35  C3  UNL     1      13.339   1.528  -8.703  1.00  0.00     0.134 C 
BRANCH  35  36
HETATM   36  N1  UNL     1      14.123   2.186  -9.724  1.00  0.00    -0.358 N 
HETATM   37  C4  UNL     1      14.922   1.485 -10.652  1.00  0.00     0.246 C 
HETATM   38  O1  UNL     1      14.943   0.238 -10.561  1.00  0.00    -0.271 OA
ATOM     39  H1  UNL     1      14.098   3.205  -9.776  1.00  0.00     0.162 HD
BRANCH  37  40
HETATM   40  C5  UNL     1      15.684   2.240 -11.672  1.00  0.00     0.120 C 
HETATM   41  C6  UNL     1      16.519   3.334 -11.027  1.00  0.00     0.050 C 
BRANCH  40  42
HETATM   42  N2  UNL     1      16.360   1.462 -12.639  1.00  0.00    -0.301 N 
ATOM     43  H2  UNL     1      15.922   1.284 -13.543  1.00  0.00     0.173 HD
BRANCH  42  44
HETATM   44  S1  UNL     1      17.875   0.831 -12.310  1.00  0.00     0.223 S 
HETATM   45  C7  UNL     1      19.115   1.464 -13.427  1.00  0.00     0.186 C 
HETATM   46  O2  UNL     1      17.818  -0.671 -12.610  1.00  0.00    -0.206 OA
HETATM   47  O3  UNL     1      18.343   0.917 -10.889  1.00  0.00    -0.206 OA
ENDBRANCH  42  44
ENDBRANCH  40  42
BRANCH  40  48
HETATM   48  C8  UNL     1      14.606   3.021 -12.468  1.00  0.00     0.015 C 
HETATM   49  C9  UNL     1      14.562   2.417 -13.845  1.00  0.00     0.012 C 
HETATM   50  C10 UNL     1      15.053   4.469 -12.618  1.00  0.00     0.012 C 
ENDBRANCH  40  48
ENDBRANCH  37  40
ENDBRANCH  35  36
ENDBRANCH  33  35
ENDBRANCH  30  33
BRANCH  31  51
HETATM   51  O4  UNL     1       8.727   0.928  -8.027  1.00  0.00    -0.288 OA
ATOM     52  H4  UNL     1       7.937   1.072  -7.518  1.00  0.00     0.244 HD
ENDBRANCH  31  51
ENDBRANCH   1  30
TORSDOF 16
ENDMDL
