MODEL 1
REMARK VINA RESULT: -9.146858096      0.000      0.000
REMARK  16 active torsions:
REMARK  status: ('A' for Active; 'I' for Inactive)
REMARK    1  A    between atoms: C2_2  and  C3_3 
REMARK    2  A    between atoms: C2_2  and  C17_28 
REMARK    3  A    between atoms: C3_3  and  C16_25 
REMARK       I    between atoms: N1_4  and  C4_6 
REMARK    4  A    between atoms: C4_6  and  C5_8 
REMARK    5  A    between atoms: C5_8  and  C6_9 
REMARK    6  A    between atoms: C5_8  and  N4_17 
REMARK    7  A    between atoms: C6_9  and  C7_10 
REMARK       I    between atoms: N4_17  and  C11_18 
REMARK    8  A    between atoms: C11_18  and  O3_20 
REMARK    9  A    between atoms: O3_20  and  C12_21 
REMARK   10  A    between atoms: C17_28  and  O5_29 
REMARK   11  A    between atoms: C17_28  and  C18_31 
REMARK       I    between atoms: C18_31  and  N6_33 
REMARK   12  A    between atoms: N7_36  and  C21_37 
REMARK   13  A    between atoms: C21_37  and  O7_38 
REMARK   14  A    between atoms: C21_37  and  N8_40 
REMARK   15  A    between atoms: C26_46  and  C27_47 
REMARK   16  A    between atoms: C28_48  and  C29_49 
ROOT
HETATM    1  C1  UNL     1       6.981  -1.516  -9.453  1.00  0.00     0.020 C 
HETATM    2  C2  UNL     1       6.313  -0.276 -10.039  1.00  0.00     0.075 C 
ENDROOT
BRANCH   2   3
HETATM    3  C3  UNL     1       7.117   0.899  -9.546  1.00  0.00     0.084 C 
HETATM    4  N1  UNL     1       8.279   0.654  -9.171  1.00  0.00    -0.323 N 
HETATM    5  C4  UNL     1       9.371   1.284  -8.670  1.00  0.00     0.258 C 
ATOM      6  H1  UNL     1       8.471  -0.343  -9.273  1.00  0.00     0.169 HD
HETATM    7  O1  UNL     1       9.433   1.753  -7.480  1.00  0.00    -0.270 OA
BRANCH   5   8
HETATM    8  C5  UNL     1      10.607   1.443  -9.558  1.00  0.00     0.266 C 
BRANCH   8   9
HETATM    9  C6  UNL     1      11.786   1.320  -8.604  1.00  0.00     0.108 C 
BRANCH   9  10
HETATM   10  C7  UNL     1      13.093   1.436  -9.272  1.00  0.00     0.029 A 
HETATM   11  C8  UNL     1      13.719   2.625  -9.492  1.00  0.00     0.116 A 
HETATM   12  N2  UNL     1      14.892   2.447 -10.127  1.00  0.00    -0.355 N 
HETATM   13  C9  UNL     1      15.852   3.462 -10.536  1.00  0.00     0.156 C 
HETATM   14  C10 UNL     1      14.969   1.092 -10.292  1.00  0.00     0.182 A 
HETATM   15  N3  UNL     1      13.892   0.483  -9.780  1.00  0.00    -0.354 N 
ATOM     16  H3  UNL     1      13.711  -0.521  -9.777  1.00  0.00     0.166 HD
ENDBRANCH   9  10
ENDBRANCH   8   9
BRANCH   8  17
HETATM   17  N4  UNL     1      10.609   0.446 -10.549  1.00  0.00    -0.375 NA
HETATM   18  C11 UNL     1      10.614  -0.492 -11.475  1.00  0.00     0.436 C 
HETATM   19  O2  UNL     1      10.915  -1.747 -11.374  1.00  0.00    -0.221 OA
BRANCH  18  20
HETATM   20  O3  UNL     1      10.260  -0.214 -12.845  1.00  0.00    -0.283 OA
BRANCH  20  21
HETATM   21  C12 UNL     1      10.860   0.783 -13.589  1.00  0.00     0.062 C 
HETATM   22  C13 UNL     1      12.281   1.115 -13.280  1.00  0.00     0.046 C 
HETATM   23  C14 UNL     1      10.777   0.354 -15.064  1.00  0.00     0.046 C 
HETATM   24  C15 UNL     1      10.029   2.058 -13.440  1.00  0.00     0.046 C 
ENDBRANCH  20  21
ENDBRANCH  18  20
ENDBRANCH   8  17
ENDBRANCH   5   8
BRANCH   3  25
HETATM   25  C16 UNL     1       6.495   2.211  -9.565  1.00  0.00     0.277 C 
HETATM   26  N5  UNL     1       6.711   3.089 -10.656  1.00  0.00    -0.056 NA
HETATM   27  O4  UNL     1       5.743   2.654  -8.654  1.00  0.00    -0.270 OA
ENDBRANCH   3  25
ENDBRANCH   2   3
BRANCH   2  28
HETATM   28  C17 UNL     1       6.494  -0.406 -11.558  1.00  0.00     0.219 C 
BRANCH  28  29
HETATM   29  O5  UNL     1       7.507   0.372 -12.038  1.00  0.00    -0.385 OA
ATOM     30  H5  UNL     1       7.960  -0.025 -12.773  1.00  0.00     0.210 HD
ENDBRANCH  28  29
BRANCH  28  31
HETATM   31  C18 UNL     1       5.219  -0.018 -12.197  1.00  0.00     0.251 C 
HETATM   32  O6  UNL     1       5.018   1.180 -12.615  1.00  0.00    -0.270 OA
HETATM   33  N6  UNL     1       4.174  -0.972 -12.368  1.00  0.00    -0.323 N 
HETATM   34  C19 UNL     1       4.151  -2.330 -11.962  1.00  0.00     0.148 C 
HETATM   35  C26 UNL     1       2.934  -0.641 -13.053  1.00  0.00     0.216 C 
HETATM   36  C20 UNL     1       2.754  -2.841 -12.401  1.00  0.00     0.149 C 
HETATM   37  N7  UNL     1       2.007  -1.659 -12.532  1.00  0.00    -0.321 N 
BRANCH  37  38
HETATM   38  C21 UNL     1       0.663  -1.338 -12.296  1.00  0.00     0.219 C 
BRANCH  38  39
HETATM   39  O7  UNL     1       0.451  -0.062 -11.936  1.00  0.00    -0.332 OA
ATOM     40  H7  UNL     1      -0.129   0.046 -11.191  1.00  0.00     0.220 HD
ENDBRANCH  38  39
BRANCH  38  41
HETATM   41  N8  UNL     1      -0.525  -2.047 -12.355  1.00  0.00    -0.344 N 
HETATM   42  C22 UNL     1      -1.143  -2.822 -11.316  1.00  0.00     0.152 C 
HETATM   43  C23 UNL     1      -1.318  -4.272 -11.779  1.00  0.00     0.187 C 
HETATM   44  O8  UNL     1      -1.068  -4.338 -13.156  1.00  0.00    -0.388 OA
HETATM   45  C24 UNL     1      -1.787  -3.409 -13.885  1.00  0.00     0.187 C 
HETATM   46  C25 UNL     1      -1.227  -2.038 -13.687  1.00  0.00     0.152 C 
ENDBRANCH  38  41
ENDBRANCH  37  38
BRANCH  35  47
HETATM   47  C27 UNL     1       3.208  -0.813 -14.499  1.00  0.00     0.016 C 
HETATM   48  C28 UNL     1       2.234  -0.749 -15.402  1.00  0.00    -0.022 C 
BRANCH  48  49
HETATM   49  C29 UNL     1       2.484  -0.917 -16.853  1.00  0.00     0.008 C 
HETATM   50  C30 UNL     1       3.346  -2.137 -17.053  1.00  0.00     0.008 C 
HETATM   51  C31 UNL     1       3.814  -2.246 -18.491  1.00  0.00     0.001 C 
HETATM   52  C32 UNL     1       3.152  -1.238 -19.385  1.00  0.00     0.000 C 
HETATM   53  C33 UNL     1       3.473   0.151 -18.883  1.00  0.00     0.001 C 
HETATM   54  C34 UNL     1       3.148   0.321 -17.414  1.00  0.00     0.008 C 
ENDBRANCH  48  49
ENDBRANCH  35  47
ENDBRANCH  28  31
ENDBRANCH   2  28
TORSDOF 16
ENDMDL
MODEL 2
REMARK VINA RESULT: -8.885812708      1.960      3.087
REMARK  16 active torsions:
REMARK  status: ('A' for Active; 'I' for Inactive)
REMARK    1  A    between atoms: C2_2  and  C3_3 
REMARK    2  A    between atoms: C2_2  and  C17_28 
REMARK    3  A    between atoms: C3_3  and  C16_25 
REMARK       I    between atoms: N1_4  and  C4_6 
REMARK    4  A    between atoms: C4_6  and  C5_8 
REMARK    5  A    between atoms: C5_8  and  C6_9 
REMARK    6  A    between atoms: C5_8  and  N4_17 
REMARK    7  A    between atoms: C6_9  and  C7_10 
REMARK       I    between atoms: N4_17  and  C11_18 
REMARK    8  A    between atoms: C11_18  and  O3_20 
REMARK    9  A    between atoms: O3_20  and  C12_21 
REMARK   10  A    between atoms: C17_28  and  O5_29 
REMARK   11  A    between atoms: C17_28  and  C18_31 
REMARK       I    between atoms: C18_31  and  N6_33 
REMARK   12  A    between atoms: N7_36  and  C21_37 
REMARK   13  A    between atoms: C21_37  and  O7_38 
REMARK   14  A    between atoms: C21_37  and  N8_40 
REMARK   15  A    between atoms: C26_46  and  C27_47 
REMARK   16  A    between atoms: C28_48  and  C29_49 
ROOT
HETATM    1  C1  UNL     1       6.563   3.356 -10.634  1.00  0.00     0.020 C 
HETATM    2  C2  UNL     1       6.446   2.808 -12.052  1.00  0.00     0.075 C 
ENDROOT
BRANCH   2   3
HETATM    3  C3  UNL     1       7.850   2.766 -12.597  1.00  0.00     0.084 C 
HETATM    4  N1  UNL     1       8.761   2.619 -11.761  1.00  0.00    -0.323 N 
HETATM    5  C4  UNL     1      10.113   2.518 -11.693  1.00  0.00     0.258 C 
ATOM      6  H1  UNL     1       8.363   2.552 -10.824  1.00  0.00     0.169 HD
HETATM    7  O1  UNL     1      10.907   3.501 -11.903  1.00  0.00    -0.270 OA
BRANCH   5   8
HETATM    8  C5  UNL     1      10.739   1.167 -11.342  1.00  0.00     0.266 C 
BRANCH   8   9
HETATM    9  C6  UNL     1      10.443   0.978  -9.861  1.00  0.00     0.108 C 
BRANCH   9  10
HETATM   10  C7  UNL     1      11.345   1.743  -8.984  1.00  0.00     0.029 A 
HETATM   11  C8  UNL     1      11.114   1.935  -7.656  1.00  0.00     0.116 A 
HETATM   12  N2  UNL     1      12.087   2.675  -7.095  1.00  0.00    -0.355 N 
HETATM   13  C9  UNL     1      12.206   3.095  -5.705  1.00  0.00     0.156 C 
HETATM   14  C10 UNL     1      12.937   2.935  -8.134  1.00  0.00     0.182 A 
HETATM   15  N3  UNL     1      12.495   2.377  -9.268  1.00  0.00    -0.354 N 
ATOM     16  H3  UNL     1      12.948   2.425 -10.180  1.00  0.00     0.166 HD
ENDBRANCH   9  10
ENDBRANCH   8   9
BRANCH   8  17
HETATM   17  N4  UNL     1      10.166   0.158 -12.138  1.00  0.00    -0.375 NA
HETATM   18  C11 UNL     1       9.632  -0.785 -12.887  1.00  0.00     0.436 C 
HETATM   19  O2  UNL     1       9.923  -1.137 -14.099  1.00  0.00    -0.221 OA
BRANCH  18  20
HETATM   20  O3  UNL     1       8.552  -1.616 -12.415  1.00  0.00    -0.283 OA
BRANCH  20  21
HETATM   21  C12 UNL     1       8.745  -2.697 -11.579  1.00  0.00     0.062 C 
HETATM   22  C13 UNL     1      10.103  -2.879 -10.988  1.00  0.00     0.046 C 
HETATM   23  C14 UNL     1       7.735  -2.561 -10.427  1.00  0.00     0.046 C 
HETATM   24  C15 UNL     1       8.386  -3.969 -12.349  1.00  0.00     0.046 C 
ENDBRANCH  20  21
ENDBRANCH  18  20
ENDBRANCH   8  17
ENDBRANCH   5   8
BRANCH   3  25
HETATM   25  C16 UNL     1       8.032   2.878 -14.033  1.00  0.00     0.277 C 
HETATM   26  N5  UNL     1       7.850   4.124 -14.681  1.00  0.00    -0.056 NA
HETATM   27  O4  UNL     1       8.354   1.917 -14.785  1.00  0.00    -0.270 OA
ENDBRANCH   3  25
ENDBRANCH   2   3
BRANCH   2  28
HETATM   28  C17 UNL     1       5.931   1.371 -11.882  1.00  0.00     0.219 C 
BRANCH  28  29
HETATM   29  O5  UNL     1       6.797   0.438 -12.374  1.00  0.00    -0.385 OA
ATOM     30  H5  UNL     1       6.843  -0.342 -11.834  1.00  0.00     0.210 HD
ENDBRANCH  28  29
BRANCH  28  31
HETATM   31  C18 UNL     1       4.635   1.272 -12.587  1.00  0.00     0.251 C 
HETATM   32  O6  UNL     1       4.148   2.269 -13.233  1.00  0.00    -0.270 OA
HETATM   33  N6  UNL     1       3.891   0.057 -12.567  1.00  0.00    -0.323 N 
HETATM   34  C19 UNL     1       4.206  -1.154 -11.902  1.00  0.00     0.148 C 
HETATM   35  C26 UNL     1       2.646  -0.096 -13.305  1.00  0.00     0.216 C 
HETATM   36  C20 UNL     1       3.020  -2.098 -12.233  1.00  0.00     0.149 C 
HETATM   37  N7  UNL     1       1.995  -1.208 -12.595  1.00  0.00    -0.321 N 
BRANCH  37  38
HETATM   38  C21 UNL     1       0.603  -1.223 -12.428  1.00  0.00     0.219 C 
BRANCH  38  39
HETATM   39  O7  UNL     1       0.114  -0.180 -11.740  1.00  0.00    -0.332 OA
ATOM     40  H7  UNL     1      -0.815  -0.028 -11.863  1.00  0.00     0.220 HD
ENDBRANCH  38  39
BRANCH  38  41
HETATM   41  N8  UNL     1      -0.408  -2.083 -12.823  1.00  0.00    -0.344 N 
HETATM   42  C22 UNL     1      -0.891  -2.327 -14.153  1.00  0.00     0.152 C 
HETATM   43  C23 UNL     1      -2.386  -2.002 -14.235  1.00  0.00     0.187 C 
HETATM   44  O8  UNL     1      -2.879  -1.822 -12.935  1.00  0.00    -0.388 OA
HETATM   45  C24 UNL     1      -2.561  -2.863 -12.084  1.00  0.00     0.187 C 
HETATM   46  C25 UNL     1      -1.114  -2.816 -11.713  1.00  0.00     0.152 C 
ENDBRANCH  38  41
ENDBRANCH  37  38
BRANCH  35  47
HETATM   47  C27 UNL     1       3.034  -0.458 -14.689  1.00  0.00     0.016 C 
HETATM   48  C28 UNL     1       2.156  -0.425 -15.687  1.00  0.00    -0.022 C 
BRANCH  48  49
HETATM   49  C29 UNL     1       2.520  -0.782 -17.078  1.00  0.00     0.008 C 
HETATM   50  C30 UNL     1       3.350  -2.040 -17.048  1.00  0.00     0.008 C 
HETATM   51  C31 UNL     1       3.933  -2.343 -18.415  1.00  0.00     0.001 C 
HETATM   52  C32 UNL     1       3.387  -1.439 -19.482  1.00  0.00     0.000 C 
HETATM   53  C33 UNL     1       3.716  -0.007 -19.129  1.00  0.00     0.001 C 
HETATM   54  C34 UNL     1       3.276   0.356 -17.727  1.00  0.00     0.008 C 
ENDBRANCH  48  49
ENDBRANCH  35  47
ENDBRANCH  28  31
ENDBRANCH   2  28
TORSDOF 16
ENDMDL
MODEL 3
REMARK VINA RESULT: -8.861824236      2.342     10.397
REMARK  16 active torsions:
REMARK  status: ('A' for Active; 'I' for Inactive)
REMARK    1  A    between atoms: C2_2  and  C3_3 
REMARK    2  A    between atoms: C2_2  and  C17_28 
REMARK    3  A    between atoms: C3_3  and  C16_25 
REMARK       I    between atoms: N1_4  and  C4_6 
REMARK    4  A    between atoms: C4_6  and  C5_8 
REMARK    5  A    between atoms: C5_8  and  C6_9 
REMARK    6  A    between atoms: C5_8  and  N4_17 
REMARK    7  A    between atoms: C6_9  and  C7_10 
REMARK       I    between atoms: N4_17  and  C11_18 
REMARK    8  A    between atoms: C11_18  and  O3_20 
REMARK    9  A    between atoms: O3_20  and  C12_21 
REMARK   10  A    between atoms: C17_28  and  O5_29 
REMARK   11  A    between atoms: C17_28  and  C18_31 
REMARK       I    between atoms: C18_31  and  N6_33 
REMARK   12  A    between atoms: N7_36  and  C21_37 
REMARK   13  A    between atoms: C21_37  and  O7_38 
REMARK   14  A    between atoms: C21_37  and  N8_40 
REMARK   15  A    between atoms: C26_46  and  C27_47 
REMARK   16  A    between atoms: C28_48  and  C29_49 
ROOT
HETATM    1  C1  UNL     1       4.309  -1.761 -10.144  1.00  0.00     0.020 C 
HETATM    2  C2  UNL     1       5.118  -1.991 -11.416  1.00  0.00     0.075 C 
ENDROOT
BRANCH   2   3
HETATM    3  C3  UNL     1       4.274  -2.886 -12.286  1.00  0.00     0.084 C 
HETATM    4  N1  UNL     1       3.050  -2.661 -12.285  1.00  0.00    -0.323 N 
HETATM    5  C4  UNL     1       1.901  -3.120 -12.841  1.00  0.00     0.258 C 
ATOM      6  H1  UNL     1       2.844  -1.877 -11.665  1.00  0.00     0.169 HD
HETATM    7  O1  UNL     1       1.365  -4.242 -12.534  1.00  0.00    -0.270 OA
BRANCH   5   8
HETATM    8  C5  UNL     1       1.190  -2.262 -13.890  1.00  0.00     0.266 C 
BRANCH   8   9
HETATM    9  C6  UNL     1       0.748  -1.017 -13.134  1.00  0.00     0.108 C 
BRANCH   9  10
HETATM   10  C7  UNL     1      -0.480  -1.217 -12.345  1.00  0.00     0.029 A 
HETATM   11  C8  UNL     1      -1.695  -1.476 -12.903  1.00  0.00     0.116 A 
HETATM   12  N2  UNL     1      -2.644  -1.607 -11.960  1.00  0.00    -0.355 N 
HETATM   13  C9  UNL     1      -4.061  -1.887 -12.147  1.00  0.00     0.156 C 
HETATM   14  C10 UNL     1      -1.966  -1.418 -10.787  1.00  0.00     0.182 A 
HETATM   15  N3  UNL     1      -0.668  -1.185 -11.015  1.00  0.00    -0.354 N 
ATOM     16  H3  UNL     1       0.048  -1.014 -10.309  1.00  0.00     0.166 HD
ENDBRANCH   9  10
ENDBRANCH   8   9
BRANCH   8  17
HETATM   17  N4  UNL     1       2.076  -1.967 -14.941  1.00  0.00    -0.375 NA
HETATM   18  C11 UNL     1       2.908  -1.695 -15.926  1.00  0.00     0.436 C 
HETATM   19  O2  UNL     1       3.526  -2.503 -16.727  1.00  0.00    -0.221 OA
BRANCH  18  20
HETATM   20  O3  UNL     1       3.276  -0.343 -16.265  1.00  0.00    -0.283 OA
BRANCH  20  21
HETATM   21  C12 UNL     1       2.663   0.373 -17.274  1.00  0.00     0.062 C 
HETATM   22  C13 UNL     1       1.287  -0.040 -17.677  1.00  0.00     0.046 C 
HETATM   23  C14 UNL     1       2.608   1.840 -16.815  1.00  0.00     0.046 C 
HETATM   24  C15 UNL     1       3.559   0.319 -18.512  1.00  0.00     0.046 C 
ENDBRANCH  20  21
ENDBRANCH  18  20
ENDBRANCH   8  17
ENDBRANCH   5   8
BRANCH   3  25
HETATM   25  C16 UNL     1       4.943  -3.914 -13.064  1.00  0.00     0.277 C 
HETATM   26  N5  UNL     1       6.304  -4.222 -12.822  1.00  0.00    -0.056 NA
HETATM   27  O4  UNL     1       4.389  -4.587 -13.976  1.00  0.00    -0.270 OA
ENDBRANCH   3  25
ENDBRANCH   2   3
BRANCH   2  28
HETATM   28  C17 UNL     1       5.226  -0.609 -12.075  1.00  0.00     0.219 C 
BRANCH  28  29
HETATM   29  O5  UNL     1       4.678  -0.574 -13.324  1.00  0.00    -0.385 OA
ATOM     30  H5  UNL     1       5.110  -1.162 -13.932  1.00  0.00     0.210 HD
ENDBRANCH  28  29
BRANCH  28  31
HETATM   31  C18 UNL     1       6.661  -0.258 -12.149  1.00  0.00     0.251 C 
HETATM   32  O6  UNL     1       7.430  -0.772 -13.041  1.00  0.00    -0.270 OA
HETATM   33  N6  UNL     1       7.229   0.668 -11.227  1.00  0.00    -0.323 N 
HETATM   34  C19 UNL     1       6.595   1.331 -10.147  1.00  0.00     0.148 C 
HETATM   35  C26 UNL     1       8.620   1.086 -11.313  1.00  0.00     0.216 C 
HETATM   36  C20 UNL     1       7.719   2.185  -9.503  1.00  0.00     0.149 C 
HETATM   37  N7  UNL     1       8.893   1.554  -9.945  1.00  0.00    -0.321 N 
BRANCH  37  38
HETATM   38  C21 UNL     1      10.151   1.344  -9.363  1.00  0.00     0.219 C 
BRANCH  38  39
HETATM   39  O7  UNL     1      10.125   1.162  -8.033  1.00  0.00    -0.332 OA
ATOM     40  H7  UNL     1      10.811   0.595  -7.700  1.00  0.00     0.220 HD
ENDBRANCH  38  39
BRANCH  38  41
HETATM   41  N8  UNL     1      11.444   1.275  -9.855  1.00  0.00    -0.344 N 
HETATM   42  C22 UNL     1      12.293   2.359 -10.261  1.00  0.00     0.152 C 
HETATM   43  C23 UNL     1      12.704   2.181 -11.726  1.00  0.00     0.187 C 
HETATM   44  O8  UNL     1      12.346   0.890 -12.140  1.00  0.00    -0.388 OA
HETATM   45  C24 UNL     1      12.801  -0.099 -11.290  1.00  0.00     0.187 C 
HETATM   46  C25 UNL     1      12.005  -0.112 -10.025  1.00  0.00     0.152 C 
ENDBRANCH  38  41
ENDBRANCH  37  38
BRANCH  35  47
HETATM   47  C27 UNL     1       8.653   2.188 -12.304  1.00  0.00     0.016 C 
HETATM   48  C28 UNL     1       9.337   2.079 -13.440  1.00  0.00    -0.022 C 
BRANCH  48  49
HETATM   49  C29 UNL     1       9.384   3.166 -14.445  1.00  0.00     0.008 C 
HETATM   50  C30 UNL     1       9.117   4.475 -13.749  1.00  0.00     0.008 C 
HETATM   51  C31 UNL     1       8.941   5.602 -14.750  1.00  0.00     0.001 C 
HETATM   52  C32 UNL     1       9.268   5.175 -16.152  1.00  0.00     0.000 C 
HETATM   53  C33 UNL     1       8.353   4.039 -16.546  1.00  0.00     0.001 C 
HETATM   54  C34 UNL     1       8.370   2.910 -15.538  1.00  0.00     0.008 C 
ENDBRANCH  48  49
ENDBRANCH  35  47
ENDBRANCH  28  31
ENDBRANCH   2  28
TORSDOF 16
ENDMDL
MODEL 4
REMARK VINA RESULT: -8.822225345      2.604     10.524
REMARK  16 active torsions:
REMARK  status: ('A' for Active; 'I' for Inactive)
REMARK    1  A    between atoms: C2_2  and  C3_3 
REMARK    2  A    between atoms: C2_2  and  C17_28 
REMARK    3  A    between atoms: C3_3  and  C16_25 
REMARK       I    between atoms: N1_4  and  C4_6 
REMARK    4  A    between atoms: C4_6  and  C5_8 
REMARK    5  A    between atoms: C5_8  and  C6_9 
REMARK    6  A    between atoms: C5_8  and  N4_17 
REMARK    7  A    between atoms: C6_9  and  C7_10 
REMARK       I    between atoms: N4_17  and  C11_18 
REMARK    8  A    between atoms: C11_18  and  O3_20 
REMARK    9  A    between atoms: O3_20  and  C12_21 
REMARK   10  A    between atoms: C17_28  and  O5_29 
REMARK   11  A    between atoms: C17_28  and  C18_31 
REMARK       I    between atoms: C18_31  and  N6_33 
REMARK   12  A    between atoms: N7_36  and  C21_37 
REMARK   13  A    between atoms: C21_37  and  O7_38 
REMARK   14  A    between atoms: C21_37  and  N8_40 
REMARK   15  A    between atoms: C26_46  and  C27_47 
REMARK   16  A    between atoms: C28_48  and  C29_49 
ROOT
HETATM    1  C1  UNL     1       5.438   3.969 -12.053  1.00  0.00     0.020 C 
HETATM    2  C2  UNL     1       5.653   2.460 -12.021  1.00  0.00     0.075 C 
ENDROOT
BRANCH   2   3
HETATM    3  C3  UNL     1       4.567   1.869 -12.883  1.00  0.00     0.084 C 
HETATM    4  N1  UNL     1       4.455   0.629 -12.856  1.00  0.00    -0.323 N 
HETATM    5  C4  UNL     1       3.704  -0.366 -13.392  1.00  0.00     0.258 C 
ATOM      6  H1  UNL     1       5.153   0.233 -12.226  1.00  0.00     0.169 HD
HETATM    7  O1  UNL     1       3.779  -0.725 -14.619  1.00  0.00    -0.270 OA
BRANCH   5   8
HETATM    8  C5  UNL     1       2.715  -1.114 -12.496  1.00  0.00     0.266 C 
BRANCH   8   9
HETATM    9  C6  UNL     1       1.465  -0.246 -12.493  1.00  0.00     0.108 C 
BRANCH   9  10
HETATM   10  C7  UNL     1       0.245  -0.981 -12.116  1.00  0.00     0.029 A 
HETATM   11  C8  UNL     1      -0.873  -1.024 -12.891  1.00  0.00     0.116 A 
HETATM   12  N2  UNL     1      -1.840  -1.755 -12.308  1.00  0.00    -0.355 N 
HETATM   13  C9  UNL     1      -3.176  -2.041 -12.814  1.00  0.00     0.156 C 
HETATM   14  C10 UNL     1      -1.273  -2.167 -11.134  1.00  0.00     0.182 A 
HETATM   15  N3  UNL     1      -0.022  -1.705 -11.016  1.00  0.00    -0.354 N 
ATOM     16  H3  UNL     1       0.612  -1.872 -10.235  1.00  0.00     0.166 HD
ENDBRANCH   9  10
ENDBRANCH   8   9
BRANCH   8  17
HETATM   17  N4  UNL     1       2.479  -2.397 -13.020  1.00  0.00    -0.375 NA
HETATM   18  C11 UNL     1       2.257  -3.602 -13.507  1.00  0.00     0.436 C 
HETATM   19  O2  UNL     1       1.698  -4.626 -12.946  1.00  0.00    -0.221 OA
BRANCH  18  20
HETATM   20  O3  UNL     1       2.649  -3.969 -14.845  1.00  0.00    -0.283 OA
BRANCH  20  21
HETATM   21  C12 UNL     1       1.989  -3.521 -15.972  1.00  0.00     0.062 C 
HETATM   22  C13 UNL     1       0.952  -2.465 -15.791  1.00  0.00     0.046 C 
HETATM   23  C14 UNL     1       3.060  -2.982 -16.936  1.00  0.00     0.046 C 
HETATM   24  C15 UNL     1       1.333  -4.724 -16.652  1.00  0.00     0.046 C 
ENDBRANCH  20  21
ENDBRANCH  18  20
ENDBRANCH   8  17
ENDBRANCH   5   8
BRANCH   3  25
HETATM   25  C16 UNL     1       3.733   2.775 -13.651  1.00  0.00     0.277 C 
HETATM   26  N5  UNL     1       4.219   3.350 -14.851  1.00  0.00    -0.056 NA
HETATM   27  O4  UNL     1       2.559   3.107 -13.328  1.00  0.00    -0.270 OA
ENDBRANCH   3  25
ENDBRANCH   2   3
BRANCH   2  28
HETATM   28  C17 UNL     1       7.010   2.236 -12.702  1.00  0.00     0.219 C 
BRANCH  28  29
HETATM   29  O5  UNL     1       6.892   1.896 -14.018  1.00  0.00    -0.385 OA
ATOM     30  H5  UNL     1       7.709   1.588 -14.394  1.00  0.00     0.210 HD
ENDBRANCH  28  29
BRANCH  28  31
HETATM   31  C18 UNL     1       7.709   1.159 -11.969  1.00  0.00     0.251 C 
HETATM   32  O6  UNL     1       7.120   0.488 -11.045  1.00  0.00    -0.270 OA
HETATM   33  N6  UNL     1       9.064   0.837 -12.272  1.00  0.00    -0.323 N 
HETATM   34  C19 UNL     1       9.922   1.453 -13.217  1.00  0.00     0.148 C 
HETATM   35  C26 UNL     1       9.759  -0.260 -11.617  1.00  0.00     0.216 C 
HETATM   36  C20 UNL     1      11.264   0.687 -13.078  1.00  0.00     0.149 C 
HETATM   37  N7  UNL     1      11.172   0.109 -11.802  1.00  0.00    -0.321 N 
BRANCH  37  38
HETATM   38  C21 UNL     1      12.112  -0.165 -10.799  1.00  0.00     0.219 C 
BRANCH  38  39
HETATM   39  O7  UNL     1      12.313  -1.472 -10.566  1.00  0.00    -0.332 OA
ATOM     40  H7  UNL     1      12.868  -1.658  -9.818  1.00  0.00     0.220 HD
ENDBRANCH  38  39
BRANCH  38  41
HETATM   41  N8  UNL     1      12.904   0.619  -9.977  1.00  0.00    -0.344 N 
HETATM   42  C22 UNL     1      12.583   1.141  -8.678  1.00  0.00     0.152 C 
HETATM   43  C23 UNL     1      12.678   2.671  -8.691  1.00  0.00     0.187 C 
HETATM   44  O8  UNL     1      13.302   3.072  -9.881  1.00  0.00    -0.388 OA
HETATM   45  C24 UNL     1      14.496   2.418 -10.117  1.00  0.00     0.187 C 
HETATM   46  C25 UNL     1      14.248   1.005 -10.537  1.00  0.00     0.152 C 
ENDBRANCH  38  41
ENDBRANCH  37  38
BRANCH  35  47
HETATM   47  C27 UNL     1       9.392  -1.484 -12.369  1.00  0.00     0.016 C 
HETATM   48  C28 UNL     1       8.748  -2.490 -11.785  1.00  0.00    -0.022 C 
BRANCH  48  49
HETATM   49  C29 UNL     1       8.370  -3.722 -12.515  1.00  0.00     0.008 C 
HETATM   50  C30 UNL     1       6.867  -3.836 -12.516  1.00  0.00     0.008 C 
HETATM   51  C31 UNL     1       6.421  -5.179 -13.061  1.00  0.00     0.001 C 
HETATM   52  C32 UNL     1       7.561  -5.968 -13.638  1.00  0.00     0.000 C 
HETATM   53  C33 UNL     1       8.588  -6.210 -12.557  1.00  0.00     0.001 C 
HETATM   54  C34 UNL     1       9.010  -4.929 -11.868  1.00  0.00     0.008 C 
ENDBRANCH  48  49
ENDBRANCH  35  47
ENDBRANCH  28  31
ENDBRANCH   2  28
TORSDOF 16
ENDMDL
MODEL 5
REMARK VINA RESULT: -8.775769504      1.934      3.940
REMARK  16 active torsions:
REMARK  status: ('A' for Active; 'I' for Inactive)
REMARK    1  A    between atoms: C2_2  and  C3_3 
REMARK    2  A    between atoms: C2_2  and  C17_28 
REMARK    3  A    between atoms: C3_3  and  C16_25 
REMARK       I    between atoms: N1_4  and  C4_6 
REMARK    4  A    between atoms: C4_6  and  C5_8 
REMARK    5  A    between atoms: C5_8  and  C6_9 
REMARK    6  A    between atoms: C5_8  and  N4_17 
REMARK    7  A    between atoms: C6_9  and  C7_10 
REMARK       I    between atoms: N4_17  and  C11_18 
REMARK    8  A    between atoms: C11_18  and  O3_20 
REMARK    9  A    between atoms: O3_20  and  C12_21 
REMARK   10  A    between atoms: C17_28  and  O5_29 
REMARK   11  A    between atoms: C17_28  and  C18_31 
REMARK       I    between atoms: C18_31  and  N6_33 
REMARK   12  A    between atoms: N7_36  and  C21_37 
REMARK   13  A    between atoms: C21_37  and  O7_38 
REMARK   14  A    between atoms: C21_37  and  N8_40 
REMARK   15  A    between atoms: C26_46  and  C27_47 
REMARK   16  A    between atoms: C28_48  and  C29_49 
ROOT
HETATM    1  C1  UNL     1       6.373   2.839 -11.033  1.00  0.00     0.020 C 
HETATM    2  C2  UNL     1       6.525   2.118 -12.369  1.00  0.00     0.075 C 
ENDROOT
BRANCH   2   3
HETATM    3  C3  UNL     1       8.005   1.917 -12.564  1.00  0.00     0.084 C 
HETATM    4  N1  UNL     1       8.701   1.909 -11.532  1.00  0.00    -0.323 N 
HETATM    5  C4  UNL     1       9.994   1.775 -11.142  1.00  0.00     0.258 C 
ATOM      6  H1  UNL     1       8.107   2.047 -10.714  1.00  0.00     0.169 HD
HETATM    7  O1  UNL     1      10.890   2.667 -11.348  1.00  0.00    -0.270 OA
BRANCH   5   8
HETATM    8  C5  UNL     1      10.420   0.501 -10.410  1.00  0.00     0.266 C 
BRANCH   8   9
HETATM    9  C6  UNL     1      10.486  -0.564 -11.496  1.00  0.00     0.108 C 
BRANCH   9  10
HETATM   10  C7  UNL     1       9.432  -1.586 -11.376  1.00  0.00     0.029 A 
HETATM   11  C8  UNL     1       9.223  -2.558 -12.306  1.00  0.00     0.116 A 
HETATM   12  N2  UNL     1       8.195  -3.352 -11.956  1.00  0.00    -0.355 N 
HETATM   13  C9  UNL     1       7.662  -4.499 -12.678  1.00  0.00     0.156 C 
HETATM   14  C10 UNL     1       7.773  -2.830 -10.764  1.00  0.00     0.182 A 
HETATM   15  N3  UNL     1       8.513  -1.771 -10.414  1.00  0.00    -0.354 N 
ATOM     16  H3  UNL     1       8.401  -1.209  -9.571  1.00  0.00     0.166 HD
ENDBRANCH   9  10
ENDBRANCH   8   9
BRANCH   8  17
HETATM   17  N4  UNL     1      11.662   0.708  -9.782  1.00  0.00    -0.375 NA
HETATM   18  C11 UNL     1      12.823   0.903  -9.191  1.00  0.00     0.436 C 
HETATM   19  O2  UNL     1      13.076   1.242  -7.967  1.00  0.00    -0.221 OA
BRANCH  18  20
HETATM   20  O3  UNL     1      14.073   0.760  -9.895  1.00  0.00    -0.283 OA
BRANCH  20  21
HETATM   21  C12 UNL     1      14.580   1.735 -10.733  1.00  0.00     0.062 C 
HETATM   22  C13 UNL     1      14.219   3.152 -10.441  1.00  0.00     0.046 C 
HETATM   23  C14 UNL     1      16.113   1.610 -10.690  1.00  0.00     0.046 C 
HETATM   24  C15 UNL     1      14.139   1.414 -12.161  1.00  0.00     0.046 C 
ENDBRANCH  20  21
ENDBRANCH  18  20
ENDBRANCH   8  17
ENDBRANCH   5   8
BRANCH   3  25
HETATM   25  C16 UNL     1       8.499   1.731 -13.917  1.00  0.00     0.277 C 
HETATM   26  N5  UNL     1       8.433   2.790 -14.854  1.00  0.00    -0.056 NA
HETATM   27  O4  UNL     1       9.008   0.658 -14.345  1.00  0.00    -0.270 OA
ENDBRANCH   3  25
ENDBRANCH   2   3
BRANCH   2  28
HETATM   28  C17 UNL     1       5.857   0.751 -12.163  1.00  0.00     0.219 C 
BRANCH  28  29
HETATM   29  O5  UNL     1       6.602  -0.281 -12.654  1.00  0.00    -0.385 OA
ATOM     30  H5  UNL     1       7.275  -0.569 -12.049  1.00  0.00     0.210 HD
ENDBRANCH  28  29
BRANCH  28  31
HETATM   31  C18 UNL     1       4.543   0.786 -12.841  1.00  0.00     0.251 C 
HETATM   32  O6  UNL     1       4.180   1.800 -13.542  1.00  0.00    -0.270 OA
HETATM   33  N6  UNL     1       3.643  -0.313 -12.734  1.00  0.00    -0.323 N 
HETATM   34  C19 UNL     1       3.807  -1.512 -11.997  1.00  0.00     0.148 C 
HETATM   35  C26 UNL     1       2.372  -0.339 -13.442  1.00  0.00     0.216 C 
HETATM   36  C20 UNL     1       2.497  -2.304 -12.251  1.00  0.00     0.149 C 
HETATM   37  N7  UNL     1       1.594  -1.308 -12.654  1.00  0.00    -0.321 N 
BRANCH  37  38
HETATM   38  C21 UNL     1       0.216  -1.123 -12.466  1.00  0.00     0.219 C 
BRANCH  38  39
HETATM   39  O7  UNL     1      -0.101  -0.229 -11.516  1.00  0.00    -0.332 OA
ATOM     40  H7  UNL     1      -1.010  -0.253 -11.241  1.00  0.00     0.220 HD
ENDBRANCH  38  39
BRANCH  38  41
HETATM   41  N8  UNL     1      -0.919  -1.659 -13.051  1.00  0.00    -0.344 N 
HETATM   42  C22 UNL     1      -2.250  -1.706 -12.515  1.00  0.00     0.152 C 
HETATM   43  C23 UNL     1      -2.725  -3.160 -12.423  1.00  0.00     0.187 C 
HETATM   44  O8  UNL     1      -1.828  -3.972 -13.130  1.00  0.00    -0.388 OA
HETATM   45  C24 UNL     1      -1.586  -3.525 -14.415  1.00  0.00     0.187 C 
HETATM   46  C25 UNL     1      -0.717  -2.310 -14.394  1.00  0.00     0.152 C 
ENDBRANCH  38  41
ENDBRANCH  37  38
BRANCH  35  47
HETATM   47  C27 UNL     1       2.676  -0.834 -14.806  1.00  0.00     0.016 C 
HETATM   48  C28 UNL     1       2.322  -0.148 -15.888  1.00  0.00    -0.022 C 
BRANCH  48  49
HETATM   49  C29 UNL     1       2.615  -0.622 -17.261  1.00  0.00     0.008 C 
HETATM   50  C30 UNL     1       3.368  -1.924 -17.168  1.00  0.00     0.008 C 
HETATM   51  C31 UNL     1       3.884  -2.357 -18.527  1.00  0.00     0.001 C 
HETATM   52  C32 UNL     1       3.355  -1.495 -19.637  1.00  0.00     0.000 C 
HETATM   53  C33 UNL     1       3.782  -0.066 -19.398  1.00  0.00     0.001 C 
HETATM   54  C34 UNL     1       3.414   0.420 -18.012  1.00  0.00     0.008 C 
ENDBRANCH  48  49
ENDBRANCH  35  47
ENDBRANCH  28  31
ENDBRANCH   2  28
TORSDOF 16
ENDMDL
