MODEL 1
REMARK VINA RESULT: -6.791325815      0.000      0.000
REMARK  6 active torsions:
REMARK  status: ('A' for Active; 'I' for Inactive)
REMARK    1  A    between atoms: C2_2  and  C3_3 
REMARK    2  A    between atoms: C3_3  and  C4_4 
REMARK    3  A    between atoms: C4_4  and  C6_6 
REMARK    4  A    between atoms: C4_4  and  C19_23 
REMARK    5  A    between atoms: C6_6  and  N1_7 
REMARK       I    between atoms: C7_9  and  N3_11 
REMARK    6  A    between atoms: N3_11  and  C9_13 
ROOT
HETATM    1  N1  UNL     1      -7.745  24.267   3.124  1.00  0.00    -0.363 N 
ATOM      2  H1  UNL     1      -7.709  23.258   2.982  1.00  0.00     0.162 HD
HETATM    3  C7  UNL     1      -8.455  24.949   2.312  1.00  0.00     0.186 C 
HETATM    4  N2  UNL     1      -8.540  26.346   2.460  1.00  0.00    -0.064 NA
HETATM    5  N3  UNL     1      -9.158  24.317   1.263  1.00  0.00    -0.351 N 
HETATM    6  C8  UNL     1     -10.361  23.586   1.585  1.00  0.00     0.153 C 
ENDROOT
BRANCH   1   7
HETATM    7  C6  UNL     1      -6.995  24.804   4.217  1.00  0.00     0.140 C 
BRANCH   7   8
HETATM    8  C4  UNL     1      -7.060  23.899   5.454  1.00  0.00     0.051 C 
HETATM    9  C5  UNL     1      -7.030  24.870   6.638  1.00  0.00     0.027 C 
BRANCH   8  10
HETATM   10  C3  UNL     1      -5.824  23.070   5.514  1.00  0.00     0.020 C 
BRANCH  10  11
HETATM   11  C2  UNL     1      -5.187  22.932   6.851  1.00  0.00    -0.003 C 
HETATM   12  C1  UNL     1      -4.760  21.486   7.084  1.00  0.00     0.005 C 
ENDBRANCH  10  11
ENDBRANCH   8  10
BRANCH   8  13
HETATM   13  C19 UNL     1      -8.314  23.130   5.466  1.00  0.00     0.241 C 
HETATM   14  N4  UNL     1      -9.572  23.732   5.738  1.00  0.00    -0.061 NA
HETATM   15  O1  UNL     1      -8.293  21.907   5.230  1.00  0.00    -0.276 OA
ENDBRANCH   8  13
ENDBRANCH   7   8
ENDBRANCH   1   7
BRANCH   5  16
HETATM   16  C9  UNL     1      -8.723  24.377  -0.119  1.00  0.00     0.035 C 
HETATM   17  C10 UNL     1      -7.584  23.403  -0.349  1.00  0.00     0.035 C 
HETATM   18  C11 UNL     1      -7.208  23.423  -1.811  1.00  0.00    -0.012 C 
HETATM   19  C12 UNL     1      -8.372  23.076  -2.714  1.00  0.00     0.009 C 
HETATM   20  C16 UNL     1      -6.725  24.799  -2.231  1.00  0.00     0.009 C 
HETATM   21  C13 UNL     1      -9.482  24.071  -2.476  1.00  0.00    -0.012 C 
HETATM   22  C14 UNL     1      -9.035  25.468  -2.738  1.00  0.00     0.009 C 
HETATM   23  C18 UNL     1      -9.856  23.959  -1.001  1.00  0.00     0.035 C 
HETATM   24  C15 UNL     1      -7.801  25.787  -1.902  1.00  0.00    -0.012 C 
HETATM   25  C17 UNL     1      -8.187  25.758  -0.456  1.00  0.00     0.035 C 
ENDBRANCH   5  16
TORSDOF 6
ENDMDL
MODEL 2
REMARK VINA RESULT: -6.696351145      2.961      7.608
REMARK  6 active torsions:
REMARK  status: ('A' for Active; 'I' for Inactive)
REMARK    1  A    between atoms: C2_2  and  C3_3 
REMARK    2  A    between atoms: C3_3  and  C4_4 
REMARK    3  A    between atoms: C4_4  and  C6_6 
REMARK    4  A    between atoms: C4_4  and  C19_23 
REMARK    5  A    between atoms: C6_6  and  N1_7 
REMARK       I    between atoms: C7_9  and  N3_11 
REMARK    6  A    between atoms: N3_11  and  C9_13 
ROOT
HETATM    1  N1  UNL     1      -8.755  24.331   5.463  1.00  0.00    -0.363 N 
ATOM      2  H1  UNL     1      -9.020  23.791   6.286  1.00  0.00     0.162 HD
HETATM    3  C7  UNL     1      -7.528  24.308   5.116  1.00  0.00     0.186 C 
HETATM    4  N2  UNL     1      -7.105  25.035   3.987  1.00  0.00    -0.064 NA
HETATM    5  N3  UNL     1      -6.584  23.560   5.853  1.00  0.00    -0.351 N 
HETATM    6  C8  UNL     1      -6.576  22.123   5.703  1.00  0.00     0.153 C 
ENDROOT
BRANCH   1   7
HETATM    7  C6  UNL     1      -9.789  25.052   4.789  1.00  0.00     0.140 C 
BRANCH   7   8
HETATM    8  C4  UNL     1     -10.968  24.145   4.413  1.00  0.00     0.051 C 
HETATM    9  C5  UNL     1     -10.641  22.802   5.073  1.00  0.00     0.027 C 
BRANCH   8  10
HETATM   10  C3  UNL     1     -10.968  23.937   2.937  1.00  0.00     0.020 C 
BRANCH  10  11
HETATM   11  C2  UNL     1     -10.184  22.779   2.434  1.00  0.00    -0.003 C 
HETATM   12  C1  UNL     1      -9.112  23.253   1.458  1.00  0.00     0.005 C 
ENDBRANCH  10  11
ENDBRANCH   8  10
BRANCH   8  13
HETATM   13  C19 UNL     1     -12.226  24.679   4.957  1.00  0.00     0.241 C 
HETATM   14  N4  UNL     1     -12.347  25.114   6.303  1.00  0.00    -0.061 NA
HETATM   15  O1  UNL     1     -13.231  24.763   4.225  1.00  0.00    -0.276 OA
ENDBRANCH   8  13
ENDBRANCH   7   8
ENDBRANCH   1   7
BRANCH   5  16
HETATM   16  C9  UNL     1      -5.624  24.174   6.749  1.00  0.00     0.035 C 
HETATM   17  C10 UNL     1      -6.333  25.104   7.715  1.00  0.00     0.035 C 
HETATM   18  C11 UNL     1      -5.325  25.663   8.689  1.00  0.00    -0.012 C 
HETATM   19  C12 UNL     1      -4.597  24.582   9.456  1.00  0.00     0.009 C 
HETATM   20  C16 UNL     1      -4.265  26.476   7.969  1.00  0.00     0.009 C 
HETATM   21  C13 UNL     1      -3.887  23.684   8.472  1.00  0.00    -0.012 C 
HETATM   22  C14 UNL     1      -2.922  24.445   7.629  1.00  0.00     0.009 C 
HETATM   23  C18 UNL     1      -4.963  23.105   7.559  1.00  0.00     0.035 C 
HETATM   24  C15 UNL     1      -3.635  25.599   6.932  1.00  0.00    -0.012 C 
HETATM   25  C17 UNL     1      -4.635  25.029   5.975  1.00  0.00     0.035 C 
ENDBRANCH   5  16
TORSDOF 6
ENDMDL
MODEL 3
REMARK VINA RESULT: -6.665959780      0.112      1.521
REMARK  6 active torsions:
REMARK  status: ('A' for Active; 'I' for Inactive)
REMARK    1  A    between atoms: C2_2  and  C3_3 
REMARK    2  A    between atoms: C3_3  and  C4_4 
REMARK    3  A    between atoms: C4_4  and  C6_6 
REMARK    4  A    between atoms: C4_4  and  C19_23 
REMARK    5  A    between atoms: C6_6  and  N1_7 
REMARK       I    between atoms: C7_9  and  N3_11 
REMARK    6  A    between atoms: N3_11  and  C9_13 
ROOT
HETATM    1  N1  UNL     1      -7.702  24.206   3.076  1.00  0.00    -0.363 N 
ATOM      2  H1  UNL     1      -7.631  23.200   2.923  1.00  0.00     0.162 HD
HETATM    3  C7  UNL     1      -8.447  24.869   2.281  1.00  0.00     0.186 C 
HETATM    4  N2  UNL     1      -8.582  26.261   2.444  1.00  0.00    -0.064 NA
HETATM    5  N3  UNL     1      -9.139  24.223   1.234  1.00  0.00    -0.351 N 
HETATM    6  C8  UNL     1     -10.310  23.444   1.562  1.00  0.00     0.153 C 
ENDROOT
BRANCH   1   7
HETATM    7  C6  UNL     1      -6.959  24.759   4.166  1.00  0.00     0.140 C 
BRANCH   7   8
HETATM    8  C4  UNL     1      -7.046  23.882   5.421  1.00  0.00     0.051 C 
HETATM    9  C5  UNL     1      -7.055  24.879   6.584  1.00  0.00     0.027 C 
BRANCH   8  10
HETATM   10  C3  UNL     1      -5.803  23.067   5.531  1.00  0.00     0.020 C 
BRANCH  10  11
HETATM   11  C2  UNL     1      -5.280  22.843   6.904  1.00  0.00    -0.003 C 
HETATM   12  C1  UNL     1      -4.746  21.421   7.039  1.00  0.00     0.005 C 
ENDBRANCH  10  11
ENDBRANCH   8  10
BRANCH   8  13
HETATM   13  C19 UNL     1      -8.292  23.100   5.420  1.00  0.00     0.241 C 
HETATM   14  N4  UNL     1      -9.552  23.679   5.728  1.00  0.00    -0.061 NA
HETATM   15  O1  UNL     1      -8.262  21.887   5.140  1.00  0.00    -0.276 OA
ENDBRANCH   8  13
ENDBRANCH   7   8
ENDBRANCH   1   7
BRANCH   5  16
HETATM   16  C9  UNL     1      -8.725  24.312  -0.152  1.00  0.00     0.035 C 
HETATM   17  C10 UNL     1      -9.896  24.007  -1.067  1.00  0.00     0.035 C 
HETATM   18  C11 UNL     1      -9.460  24.190  -2.501  1.00  0.00    -0.012 C 
HETATM   19  C12 UNL     1      -8.940  25.584  -2.777  1.00  0.00     0.009 C 
HETATM   20  C16 UNL     1      -8.340  23.230  -2.857  1.00  0.00     0.009 C 
HETATM   21  C13 UNL     1      -7.767  25.852  -1.866  1.00  0.00    -0.012 C 
HETATM   22  C14 UNL     1      -6.676  24.856  -2.065  1.00  0.00     0.009 C 
HETATM   23  C18 UNL     1      -8.285  25.712  -0.438  1.00  0.00     0.035 C 
HETATM   24  C15 UNL     1      -7.221  23.444  -1.886  1.00  0.00    -0.012 C 
HETATM   25  C17 UNL     1      -7.654  23.279  -0.463  1.00  0.00     0.035 C 
ENDBRANCH   5  16
TORSDOF 6
ENDMDL
MODEL 4
REMARK VINA RESULT: -6.615903102      0.143      1.494
REMARK  6 active torsions:
REMARK  status: ('A' for Active; 'I' for Inactive)
REMARK    1  A    between atoms: C2_2  and  C3_3 
REMARK    2  A    between atoms: C3_3  and  C4_4 
REMARK    3  A    between atoms: C4_4  and  C6_6 
REMARK    4  A    between atoms: C4_4  and  C19_23 
REMARK    5  A    between atoms: C6_6  and  N1_7 
REMARK       I    between atoms: C7_9  and  N3_11 
REMARK    6  A    between atoms: N3_11  and  C9_13 
ROOT
HETATM    1  N1  UNL     1      -7.706  24.164   3.108  1.00  0.00    -0.363 N 
ATOM      2  H1  UNL     1      -7.647  23.159   2.943  1.00  0.00     0.162 HD
HETATM    3  C7  UNL     1      -8.456  24.843   2.331  1.00  0.00     0.186 C 
HETATM    4  N2  UNL     1      -8.575  26.234   2.512  1.00  0.00    -0.064 NA
HETATM    5  N3  UNL     1      -9.170  24.215   1.287  1.00  0.00    -0.351 N 
HETATM    6  C8  UNL     1     -10.344  23.444   1.625  1.00  0.00     0.153 C 
ENDROOT
BRANCH   1   7
HETATM    7  C6  UNL     1      -6.942  24.698   4.192  1.00  0.00     0.140 C 
BRANCH   7   8
HETATM    8  C4  UNL     1      -7.095  23.859   5.468  1.00  0.00     0.051 C 
HETATM    9  C5  UNL     1      -7.106  24.889   6.602  1.00  0.00     0.027 C 
BRANCH   8  10
HETATM   10  C3  UNL     1      -5.884  23.009   5.638  1.00  0.00     0.020 C 
BRANCH  10  11
HETATM   11  C2  UNL     1      -5.164  23.139   6.932  1.00  0.00    -0.003 C 
HETATM   12  C1  UNL     1      -4.673  21.773   7.402  1.00  0.00     0.005 C 
ENDBRANCH  10  11
ENDBRANCH   8  10
BRANCH   8  13
HETATM   13  C19 UNL     1      -8.366  23.118   5.449  1.00  0.00     0.241 C 
HETATM   14  N4  UNL     1      -9.605  23.727   5.783  1.00  0.00    -0.061 NA
HETATM   15  O1  UNL     1      -8.376  21.914   5.130  1.00  0.00    -0.276 OA
ENDBRANCH   8  13
ENDBRANCH   7   8
ENDBRANCH   1   7
BRANCH   5  16
HETATM   16  C9  UNL     1      -8.775  24.315  -0.104  1.00  0.00     0.035 C 
HETATM   17  C10 UNL     1      -8.273  25.715  -0.403  1.00  0.00     0.035 C 
HETATM   18  C11 UNL     1      -7.790  25.768  -1.832  1.00  0.00    -0.012 C 
HETATM   19  C12 UNL     1      -6.699  24.759  -2.114  1.00  0.00     0.009 C 
HETATM   20  C16 UNL     1      -8.919  25.472  -2.801  1.00  0.00     0.009 C 
HETATM   21  C13 UNL     1      -7.232  23.376  -1.825  1.00  0.00    -0.012 C 
HETATM   22  C14 UNL     1      -8.435  23.066  -2.648  1.00  0.00     0.009 C 
HETATM   23  C18 UNL     1      -7.645  23.370  -0.356  1.00  0.00     0.035 C 
HETATM   24  C15 UNL     1      -9.499  24.138  -2.441  1.00  0.00    -0.012 C 
HETATM   25  C17 UNL     1      -9.963  24.078  -1.020  1.00  0.00     0.035 C 
ENDBRANCH   5  16
TORSDOF 6
ENDMDL
MODEL 5
REMARK VINA RESULT: -6.211996875      1.477      2.405
REMARK  6 active torsions:
REMARK  status: ('A' for Active; 'I' for Inactive)
REMARK    1  A    between atoms: C2_2  and  C3_3 
REMARK    2  A    between atoms: C3_3  and  C4_4 
REMARK    3  A    between atoms: C4_4  and  C6_6 
REMARK    4  A    between atoms: C4_4  and  C19_23 
REMARK    5  A    between atoms: C6_6  and  N1_7 
REMARK       I    between atoms: C7_9  and  N3_11 
REMARK    6  A    between atoms: N3_11  and  C9_13 
ROOT
HETATM    1  N1  UNL     1      -7.855  24.108   3.002  1.00  0.00    -0.363 N 
ATOM      2  H1  UNL     1      -7.831  23.104   2.823  1.00  0.00     0.162 HD
HETATM    3  C7  UNL     1      -8.535  24.830   2.200  1.00  0.00     0.186 C 
HETATM    4  N2  UNL     1      -8.605  26.221   2.398  1.00  0.00    -0.064 NA
HETATM    5  N3  UNL     1      -9.220  24.248   1.111  1.00  0.00    -0.351 N 
HETATM    6  C8  UNL     1     -10.441  23.523   1.375  1.00  0.00     0.153 C 
ENDROOT
BRANCH   1   7
HETATM    7  C6  UNL     1      -7.126  24.592   4.132  1.00  0.00     0.140 C 
BRANCH   7   8
HETATM    8  C4  UNL     1      -7.514  23.857   5.422  1.00  0.00     0.051 C 
HETATM    9  C5  UNL     1      -7.717  22.403   4.985  1.00  0.00     0.027 C 
BRANCH   8  10
HETATM   10  C3  UNL     1      -8.828  24.375   5.899  1.00  0.00     0.020 C 
BRANCH  10  11
HETATM   11  C2  UNL     1     -10.015  23.527   5.610  1.00  0.00    -0.003 C 
HETATM   12  C1  UNL     1     -11.079  24.341   4.882  1.00  0.00     0.005 C 
ENDBRANCH  10  11
ENDBRANCH   8  10
BRANCH   8  13
HETATM   13  C19 UNL     1      -6.428  23.938   6.410  1.00  0.00     0.241 C 
HETATM   14  N4  UNL     1      -5.574  22.839   6.693  1.00  0.00    -0.061 NA
HETATM   15  O1  UNL     1      -6.233  25.002   7.029  1.00  0.00    -0.276 OA
ENDBRANCH   8  13
ENDBRANCH   7   8
ENDBRANCH   1   7
BRANCH   5  16
HETATM   16  C9  UNL     1      -8.751  24.352  -0.257  1.00  0.00     0.035 C 
HETATM   17  C10 UNL     1      -7.614  23.376  -0.493  1.00  0.00     0.035 C 
HETATM   18  C11 UNL     1      -7.202  23.444  -1.944  1.00  0.00    -0.012 C 
HETATM   19  C12 UNL     1      -8.345  23.141  -2.888  1.00  0.00     0.009 C 
HETATM   20  C16 UNL     1      -6.696  24.829  -2.303  1.00  0.00     0.009 C 
HETATM   21  C13 UNL     1      -9.452  24.137  -2.642  1.00  0.00    -0.012 C 
HETATM   22  C14 UNL     1      -8.987  25.538  -2.842  1.00  0.00     0.009 C 
HETATM   23  C18 UNL     1      -9.864  23.976  -1.182  1.00  0.00     0.035 C 
HETATM   24  C15 UNL     1      -7.771  25.815  -1.965  1.00  0.00    -0.012 C 
HETATM   25  C17 UNL     1      -8.193  25.738  -0.532  1.00  0.00     0.035 C 
ENDBRANCH   5  16
TORSDOF 6
ENDMDL
