MODEL 1
REMARK VINA RESULT: -7.394358972      0.000      0.000
REMARK  6 active torsions:
REMARK  status: ('A' for Active; 'I' for Inactive)
REMARK    1  A    between atoms: C2_2  and  C3_3 
REMARK    2  A    between atoms: C3_3  and  N1_4 
REMARK       I    between atoms: N1_4  and  C4_6 
REMARK       I    between atoms: C4_6  and  N2_8 
REMARK       I    between atoms: N3_12  and  C8_13 
REMARK       I    between atoms: C8_13  and  N4_15 
REMARK    3  A    between atoms: N4_15  and  C9_17 
REMARK    4  A    between atoms: C9_17  and  C10_18 
REMARK    5  A    between atoms: C9_17  and  C14_22 
REMARK    6  A    between atoms: C10_18  and  C11_19 
ROOT
HETATM    1  N1  UNL     1      -6.530  23.629   5.076  1.00  0.00    -0.322 N 
ATOM      2  H1  UNL     1      -6.382  24.618   4.872  1.00  0.00     0.169 HD
HETATM    3  C4  UNL     1      -5.761  23.180   6.146  1.00  0.00     0.325 C 
HETATM    4  O1  UNL     1      -5.884  21.955   6.526  1.00  0.00    -0.247 OA
HETATM    5  N2  UNL     1      -4.856  24.009   6.835  1.00  0.00    -0.312 N 
HETATM    6  C5  UNL     1      -4.178  23.331   7.973  1.00  0.00     0.134 C 
HETATM    7  C6  UNL     1      -4.949  23.875   9.185  1.00  0.00     0.040 C 
HETATM    8  C7  UNL     1      -4.373  25.191   9.562  1.00  0.00     0.129 C 
HETATM    9  N3  UNL     1      -4.740  26.303   8.726  1.00  0.00    -0.329 N 
HETATM   10  C8  UNL     1      -4.463  27.571   9.274  1.00  0.00     0.318 C 
HETATM   11  O2  UNL     1      -4.760  28.597   8.613  1.00  0.00    -0.247 OA
HETATM   12  N4  UNL     1      -3.851  27.782  10.556  1.00  0.00    -0.338 N 
ATOM     13  H4  UNL     1      -3.589  26.981  11.131  1.00  0.00     0.164 HD
HETATM   14  C17 UNL     1      -5.344  26.329   7.402  1.00  0.00     0.172 C 
HETATM   15  C18 UNL     1      -4.617  25.349   6.481  1.00  0.00     0.088 C 
ENDROOT
BRANCH  12  16
HETATM   16  C9  UNL     1      -3.606  29.117  11.034  1.00  0.00     0.089 C 
BRANCH  16  17
HETATM   17  C10 UNL     1      -4.744  30.052  10.943  1.00  0.00     0.029 C 
BRANCH  17  18
HETATM   18  C11 UNL     1      -4.576  31.274  10.108  1.00  0.00    -0.021 C 
HETATM   19  C12 UNL     1      -3.076  31.435   9.761  1.00  0.00     0.009 C 
HETATM   20  C13 UNL     1      -4.912  32.529  10.883  1.00  0.00     0.009 C 
ENDBRANCH  17  18
ENDBRANCH  16  17
BRANCH  16  21
HETATM   21  C14 UNL     1      -3.271  28.965  12.529  1.00  0.00     0.000 C 
HETATM   22  C15 UNL     1      -4.097  29.902  13.372  1.00  0.00     0.011 C 
HETATM   23  C16 UNL     1      -3.314  27.555  13.000  1.00  0.00     0.011 C 
ENDBRANCH  16  21
ENDBRANCH  12  16
BRANCH   1  24
HETATM   24  C3  UNL     1      -7.465  23.030   4.212  1.00  0.00     0.065 C 
BRANCH  24  25
HETATM   25  C2  UNL     1      -8.759  22.635   4.779  1.00  0.00     0.040 C 
HETATM   26  C1  UNL     1      -9.942  22.576   3.889  1.00  0.00     0.010 C 
ENDBRANCH  24  25
ENDBRANCH   1  24
TORSDOF 6
ENDMDL
MODEL 2
REMARK VINA RESULT: -6.991144937      2.498      8.975
REMARK  6 active torsions:
REMARK  status: ('A' for Active; 'I' for Inactive)
REMARK    1  A    between atoms: C2_2  and  C3_3 
REMARK    2  A    between atoms: C3_3  and  N1_4 
REMARK       I    between atoms: N1_4  and  C4_6 
REMARK       I    between atoms: C4_6  and  N2_8 
REMARK       I    between atoms: N3_12  and  C8_13 
REMARK       I    between atoms: C8_13  and  N4_15 
REMARK    3  A    between atoms: N4_15  and  C9_17 
REMARK    4  A    between atoms: C9_17  and  C10_18 
REMARK    5  A    between atoms: C9_17  and  C14_22 
REMARK    6  A    between atoms: C10_18  and  C11_19 
ROOT
HETATM    1  N1  UNL     1      -4.458  26.475   9.599  1.00  0.00    -0.322 N 
ATOM      2  H1  UNL     1      -5.248  26.973   9.188  1.00  0.00     0.169 HD
HETATM    3  C4  UNL     1      -4.444  25.123   9.268  1.00  0.00     0.325 C 
HETATM    4  O1  UNL     1      -3.475  24.389   9.697  1.00  0.00    -0.247 OA
HETATM    5  N2  UNL     1      -5.441  24.520   8.479  1.00  0.00    -0.312 N 
HETATM    6  C5  UNL     1      -5.197  23.077   8.213  1.00  0.00     0.134 C 
HETATM    7  C6  UNL     1      -4.661  23.095   6.774  1.00  0.00     0.040 C 
HETATM    8  C7  UNL     1      -5.813  23.123   5.837  1.00  0.00     0.129 C 
HETATM    9  N3  UNL     1      -6.478  24.391   5.693  1.00  0.00    -0.329 N 
HETATM   10  C8  UNL     1      -7.338  24.485   4.581  1.00  0.00     0.318 C 
HETATM   11  O2  UNL     1      -7.951  25.562   4.376  1.00  0.00    -0.247 OA
HETATM   12  N4  UNL     1      -7.572  23.418   3.649  1.00  0.00    -0.338 N 
ATOM     13  H4  UNL     1      -7.099  22.523   3.772  1.00  0.00     0.164 HD
HETATM   14  C17 UNL     1      -6.411  25.591   6.515  1.00  0.00     0.172 C 
HETATM   15  C18 UNL     1      -6.561  25.217   7.990  1.00  0.00     0.088 C 
ENDROOT
BRANCH  12  16
HETATM   16  C9  UNL     1      -8.471  23.606   2.540  1.00  0.00     0.089 C 
BRANCH  16  17
HETATM   17  C10 UNL     1      -7.975  23.151   1.227  1.00  0.00     0.029 C 
BRANCH  17  18
HETATM   18  C11 UNL     1      -7.864  24.159   0.136  1.00  0.00    -0.021 C 
HETATM   19  C12 UNL     1      -8.431  25.507   0.647  1.00  0.00     0.009 C 
HETATM   20  C13 UNL     1      -8.751  23.810  -1.038  1.00  0.00     0.009 C 
ENDBRANCH  17  18
ENDBRANCH  16  17
BRANCH  16  21
HETATM   21  C14 UNL     1      -9.713  22.758   2.867  1.00  0.00     0.000 C 
HETATM   22  C15 UNL     1      -9.700  22.301   4.304  1.00  0.00     0.011 C 
HETATM   23  C16 UNL     1     -10.990  23.406   2.466  1.00  0.00     0.011 C 
ENDBRANCH  16  21
ENDBRANCH  12  16
BRANCH   1  24
HETATM   24  C3  UNL     1      -3.631  27.310  10.372  1.00  0.00     0.065 C 
BRANCH  24  25
HETATM   25  C2  UNL     1      -3.961  28.739  10.417  1.00  0.00     0.040 C 
HETATM   26  C1  UNL     1      -2.977  29.717   9.899  1.00  0.00     0.010 C 
ENDBRANCH  24  25
ENDBRANCH   1  24
TORSDOF 6
ENDMDL
MODEL 3
REMARK VINA RESULT: -6.918132097      0.696      1.149
REMARK  6 active torsions:
REMARK  status: ('A' for Active; 'I' for Inactive)
REMARK    1  A    between atoms: C2_2  and  C3_3 
REMARK    2  A    between atoms: C3_3  and  N1_4 
REMARK       I    between atoms: N1_4  and  C4_6 
REMARK       I    between atoms: C4_6  and  N2_8 
REMARK       I    between atoms: N3_12  and  C8_13 
REMARK       I    between atoms: C8_13  and  N4_15 
REMARK    3  A    between atoms: N4_15  and  C9_17 
REMARK    4  A    between atoms: C9_17  and  C10_18 
REMARK    5  A    between atoms: C9_17  and  C14_22 
REMARK    6  A    between atoms: C10_18  and  C11_19 
ROOT
HETATM    1  N1  UNL     1      -6.487  23.617   5.132  1.00  0.00    -0.322 N 
ATOM      2  H1  UNL     1      -6.264  24.567   4.833  1.00  0.00     0.169 HD
HETATM    3  C4  UNL     1      -5.769  23.224   6.258  1.00  0.00     0.325 C 
HETATM    4  O1  UNL     1      -5.986  22.055   6.756  1.00  0.00    -0.247 OA
HETATM    5  N2  UNL     1      -4.815  24.051   6.880  1.00  0.00    -0.312 N 
HETATM    6  C5  UNL     1      -4.205  23.445   8.095  1.00  0.00     0.134 C 
HETATM    7  C6  UNL     1      -4.951  24.162   9.230  1.00  0.00     0.040 C 
HETATM    8  C7  UNL     1      -4.286  25.465   9.486  1.00  0.00     0.129 C 
HETATM    9  N3  UNL     1      -4.558  26.510   8.535  1.00  0.00    -0.329 N 
HETATM   10  C8  UNL     1      -4.197  27.804   8.959  1.00  0.00     0.318 C 
HETATM   11  O2  UNL     1      -4.409  28.776   8.193  1.00  0.00    -0.247 OA
HETATM   12  N4  UNL     1      -3.590  28.099  10.227  1.00  0.00    -0.338 N 
ATOM     13  H4  UNL     1      -3.396  27.344  10.885  1.00  0.00     0.164 HD
HETATM   14  C17 UNL     1      -5.140  26.446   7.203  1.00  0.00     0.172 C 
HETATM   15  C18 UNL     1      -4.473  25.328   6.400  1.00  0.00     0.088 C 
ENDROOT
BRANCH  12  16
HETATM   16  C9  UNL     1      -3.254  29.455  10.575  1.00  0.00     0.089 C 
BRANCH  16  17
HETATM   17  C10 UNL     1      -4.165  30.495  10.060  1.00  0.00     0.029 C 
BRANCH  17  18
HETATM   18  C11 UNL     1      -5.185  31.051  10.992  1.00  0.00    -0.021 C 
HETATM   19  C12 UNL     1      -6.581  30.533  10.565  1.00  0.00     0.009 C 
HETATM   20  C13 UNL     1      -5.296  32.554  10.865  1.00  0.00     0.009 C 
ENDBRANCH  17  18
ENDBRANCH  16  17
BRANCH  16  21
HETATM   21  C14 UNL     1      -3.329  29.517  12.112  1.00  0.00     0.000 C 
HETATM   22  C15 UNL     1      -3.439  28.137  12.709  1.00  0.00     0.011 C 
HETATM   23  C16 UNL     1      -2.250  30.339  12.720  1.00  0.00     0.011 C 
ENDBRANCH  16  21
ENDBRANCH  12  16
BRANCH   1  24
HETATM   24  C3  UNL     1      -7.451  23.001   4.312  1.00  0.00     0.065 C 
BRANCH  24  25
HETATM   25  C2  UNL     1      -8.789  22.793   4.875  1.00  0.00     0.040 C 
HETATM   26  C1  UNL     1      -9.921  22.540   3.954  1.00  0.00     0.010 C 
ENDBRANCH  24  25
ENDBRANCH   1  24
TORSDOF 6
ENDMDL
MODEL 4
REMARK VINA RESULT: -6.314833994      0.933      1.813
REMARK  6 active torsions:
REMARK  status: ('A' for Active; 'I' for Inactive)
REMARK    1  A    between atoms: C2_2  and  C3_3 
REMARK    2  A    between atoms: C3_3  and  N1_4 
REMARK       I    between atoms: N1_4  and  C4_6 
REMARK       I    between atoms: C4_6  and  N2_8 
REMARK       I    between atoms: N3_12  and  C8_13 
REMARK       I    between atoms: C8_13  and  N4_15 
REMARK    3  A    between atoms: N4_15  and  C9_17 
REMARK    4  A    between atoms: C9_17  and  C10_18 
REMARK    5  A    between atoms: C9_17  and  C14_22 
REMARK    6  A    between atoms: C10_18  and  C11_19 
ROOT
HETATM    1  N1  UNL     1      -6.589  23.535   5.234  1.00  0.00    -0.322 N 
ATOM      2  H1  UNL     1      -6.630  24.547   5.110  1.00  0.00     0.169 HD
HETATM    3  C4  UNL     1      -5.646  23.146   6.181  1.00  0.00     0.325 C 
HETATM    4  O1  UNL     1      -5.521  21.893   6.455  1.00  0.00    -0.247 OA
HETATM    5  N2  UNL     1      -4.823  24.065   6.858  1.00  0.00    -0.312 N 
HETATM    6  C5  UNL     1      -3.923  23.430   7.860  1.00  0.00     0.134 C 
HETATM    7  C6  UNL     1      -4.639  23.737   9.184  1.00  0.00     0.040 C 
HETATM    8  C7  UNL     1      -4.253  25.100   9.628  1.00  0.00     0.129 C 
HETATM    9  N3  UNL     1      -4.887  26.192   8.937  1.00  0.00    -0.329 N 
HETATM   10  C8  UNL     1      -4.767  27.444   9.573  1.00  0.00     0.318 C 
HETATM   11  O2  UNL     1      -5.300  28.449   9.042  1.00  0.00    -0.247 OA
HETATM   12  N4  UNL     1      -4.065  27.659  10.807  1.00  0.00    -0.338 N 
ATOM     13  H4  UNL     1      -3.614  26.875  11.278  1.00  0.00     0.164 HD
HETATM   14  C17 UNL     1      -5.625  26.214   7.683  1.00  0.00     0.172 C 
HETATM   15  C18 UNL     1      -4.848  25.450   6.611  1.00  0.00     0.088 C 
ENDROOT
BRANCH  12  16
HETATM   16  C9  UNL     1      -3.996  28.976  11.384  1.00  0.00     0.089 C 
BRANCH  16  17
HETATM   17  C10 UNL     1      -4.110  29.041  12.854  1.00  0.00     0.029 C 
BRANCH  17  18
HETATM   18  C11 UNL     1      -5.220  29.850  13.430  1.00  0.00    -0.021 C 
HETATM   19  C12 UNL     1      -5.819  30.739  12.313  1.00  0.00     0.009 C 
HETATM   20  C13 UNL     1      -4.714  30.840  14.456  1.00  0.00     0.009 C 
ENDBRANCH  17  18
ENDBRANCH  16  17
BRANCH  16  21
HETATM   21  C14 UNL     1      -2.599  29.512  11.021  1.00  0.00     0.000 C 
HETATM   22  C15 UNL     1      -2.638  30.319   9.748  1.00  0.00     0.011 C 
HETATM   23  C16 UNL     1      -1.928  30.216  12.145  1.00  0.00     0.011 C 
ENDBRANCH  16  21
ENDBRANCH  12  16
BRANCH   1  24
HETATM   24  C3  UNL     1      -7.498  22.849   4.407  1.00  0.00     0.065 C 
BRANCH  24  25
HETATM   25  C2  UNL     1      -8.870  22.680   4.899  1.00  0.00     0.040 C 
HETATM   26  C1  UNL     1      -9.979  22.624   3.920  1.00  0.00     0.010 C 
ENDBRANCH  24  25
ENDBRANCH   1  24
TORSDOF 6
ENDMDL
MODEL 5
REMARK VINA RESULT: -6.273463221      2.955      5.327
REMARK  6 active torsions:
REMARK  status: ('A' for Active; 'I' for Inactive)
REMARK    1  A    between atoms: C2_2  and  C3_3 
REMARK    2  A    between atoms: C3_3  and  N1_4 
REMARK       I    between atoms: N1_4  and  C4_6 
REMARK       I    between atoms: C4_6  and  N2_8 
REMARK       I    between atoms: N3_12  and  C8_13 
REMARK       I    between atoms: C8_13  and  N4_15 
REMARK    3  A    between atoms: N4_15  and  C9_17 
REMARK    4  A    between atoms: C9_17  and  C10_18 
REMARK    5  A    between atoms: C9_17  and  C14_22 
REMARK    6  A    between atoms: C10_18  and  C11_19 
ROOT
HETATM    1  N1  UNL     1      -9.210  23.960   1.032  1.00  0.00    -0.322 N 
ATOM      2  H1  UNL     1      -8.213  24.180   1.011  1.00  0.00     0.169 HD
HETATM    3  C4  UNL     1      -9.617  23.422   2.249  1.00  0.00     0.325 C 
HETATM    4  O1  UNL     1     -10.863  23.135   2.414  1.00  0.00    -0.247 OA
HETATM    5  N2  UNL     1      -8.727  23.181   3.312  1.00  0.00    -0.312 N 
HETATM    6  C5  UNL     1      -9.390  22.647   4.533  1.00  0.00     0.134 C 
HETATM    7  C6  UNL     1      -9.468  23.889   5.433  1.00  0.00     0.040 C 
HETATM    8  C7  UNL     1      -8.173  24.042   6.144  1.00  0.00     0.129 C 
HETATM    9  N3  UNL     1      -7.085  24.573   5.366  1.00  0.00    -0.329 N 
HETATM   10  C8  UNL     1      -5.979  25.014   6.119  1.00  0.00     0.318 C 
HETATM   11  O2  UNL     1      -4.990  25.501   5.518  1.00  0.00    -0.247 OA
HETATM   12  N4  UNL     1      -5.897  24.944   7.551  1.00  0.00    -0.338 N 
ATOM     13  H4  UNL     1      -6.674  24.556   8.086  1.00  0.00     0.164 HD
HETATM   14  C17 UNL     1      -6.940  24.721   3.925  1.00  0.00     0.172 C 
HETATM   15  C18 UNL     1      -7.344  23.422   3.228  1.00  0.00     0.088 C 
ENDROOT
BRANCH  12  16
HETATM   16  C9  UNL     1      -4.724  25.421   8.237  1.00  0.00     0.089 C 
BRANCH  16  17
HETATM   17  C10 UNL     1      -4.965  26.380   9.331  1.00  0.00     0.029 C 
BRANCH  17  18
HETATM   18  C11 UNL     1      -3.979  27.481   9.521  1.00  0.00    -0.021 C 
HETATM   19  C12 UNL     1      -4.031  27.944  10.998  1.00  0.00     0.009 C 
HETATM   20  C13 UNL     1      -4.363  28.715   8.735  1.00  0.00     0.009 C 
ENDBRANCH  17  18
ENDBRANCH  16  17
BRANCH  16  21
HETATM   21  C14 UNL     1      -4.082  24.173   8.870  1.00  0.00     0.000 C 
HETATM   22  C15 UNL     1      -5.124  23.144   9.229  1.00  0.00     0.011 C 
HETATM   23  C16 UNL     1      -2.959  23.619   8.068  1.00  0.00     0.011 C 
ENDBRANCH  16  21
ENDBRANCH  12  16
BRANCH   1  24
HETATM   24  C3  UNL     1      -9.860  24.271  -0.177  1.00  0.00     0.065 C 
BRANCH  24  25
HETATM   25  C2  UNL     1      -9.022  24.498  -1.360  1.00  0.00     0.040 C 
HETATM   26  C1  UNL     1      -8.047  25.613  -1.341  1.00  0.00     0.010 C 
ENDBRANCH  24  25
ENDBRANCH   1  24
TORSDOF 6
ENDMDL
