MODEL 1
REMARK VINA RESULT: -8.930161437      0.000      0.000
REMARK  6 active torsions:
REMARK  status: ('A' for Active; 'I' for Inactive)
REMARK    1  A    between atoms: C6_6  and  C7_7 
REMARK    2  A    between atoms: C7_7  and  C8_8 
REMARK    3  A    between atoms: C8_8  and  N1_9 
REMARK       I    between atoms: N1_9  and  C9_11 
REMARK    4  A    between atoms: C9_11  and  C10_13 
REMARK    5  A    between atoms: C10_13  and  N2_14 
REMARK    6  A    between atoms: C10_13  and  C14_21 
REMARK       I    between atoms: N2_14  and  C11_16 
REMARK       I    between atoms: C11_16  and  N3_18 
ROOT
HETATM    1  N1  UNL     1      -5.938  25.180   5.246  1.00  0.00    -0.359 N 
ATOM      2  H1  UNL     1      -5.045  25.148   4.753  1.00  0.00     0.162 HD
HETATM    3  C9  UNL     1      -5.916  24.897   6.637  1.00  0.00     0.240 C 
HETATM    4  O1  UNL     1      -7.001  24.928   7.266  1.00  0.00    -0.271 OA
ENDROOT
BRANCH   1   5
HETATM    5  C8  UNL     1      -7.094  25.506   4.471  1.00  0.00     0.127 C 
BRANCH   5   6
HETATM    6  C7  UNL     1      -8.118  24.392   4.387  1.00  0.00     0.058 C 
BRANCH   6   7
HETATM    7  C6  UNL     1      -8.527  24.183   2.963  1.00  0.00    -0.050 A 
HETATM    8  C4  UNL     1      -9.415  23.219   2.570  1.00  0.00    -0.055 A 
HETATM    9  C3  UNL     1      -9.722  23.115   1.211  1.00  0.00     0.014 A 
HETATM   10  C5  UNL     1     -10.037  22.309   3.559  1.00  0.00     0.049 C 
HETATM   11  C2  UNL     1      -9.164  23.944   0.267  1.00  0.00    -0.056 A 
HETATM   12  C1  UNL     1      -9.509  23.804  -1.143  1.00  0.00     0.049 C 
HETATM   13  C18 UNL     1      -8.271  24.915   0.654  1.00  0.00    -0.056 A 
HETATM   14  C17 UNL     1      -7.961  25.026   1.990  1.00  0.00     0.015 A 
HETATM   15  C19 UNL     1      -7.687  25.790  -0.363  1.00  0.00     0.049 C 
ENDBRANCH   6   7
ENDBRANCH   5   6
ENDBRANCH   1   5
BRANCH   3  16
HETATM   16  C10 UNL     1      -4.660  24.573   7.357  1.00  0.00     0.181 C 
BRANCH  16  17
HETATM   17  N2  UNL     1      -4.474  25.521   8.416  1.00  0.00    -0.329 N 
HETATM   18  C11 UNL     1      -4.242  26.896   8.233  1.00  0.00     0.318 C 
HETATM   19  O2  UNL     1      -4.186  27.365   7.079  1.00  0.00    -0.247 OA
HETATM   20  N3  UNL     1      -4.072  27.751   9.339  1.00  0.00    -0.343 N 
HETATM   21  C12 UNL     1      -3.831  29.187   9.152  1.00  0.00     0.154 C 
HETATM   22  C13 UNL     1      -4.137  27.199  10.694  1.00  0.00     0.154 C 
ATOM     23  H2  UNL     1      -4.514  25.172   9.373  1.00  0.00     0.165 HD
ENDBRANCH  16  17
BRANCH  16  24
HETATM   24  C14 UNL     1      -4.778  23.152   7.856  1.00  0.00     0.009 C 
HETATM   25  C15 UNL     1      -3.572  22.698   8.613  1.00  0.00     0.012 C 
HETATM   26  C16 UNL     1      -5.115  22.181   6.747  1.00  0.00     0.012 C 
ENDBRANCH  16  24
ENDBRANCH   3  16
TORSDOF 6
ENDMDL
MODEL 2
REMARK VINA RESULT: -8.494194241      2.336      4.748
REMARK  6 active torsions:
REMARK  status: ('A' for Active; 'I' for Inactive)
REMARK    1  A    between atoms: C6_6  and  C7_7 
REMARK    2  A    between atoms: C7_7  and  C8_8 
REMARK    3  A    between atoms: C8_8  and  N1_9 
REMARK       I    between atoms: N1_9  and  C9_11 
REMARK    4  A    between atoms: C9_11  and  C10_13 
REMARK    5  A    between atoms: C10_13  and  N2_14 
REMARK    6  A    between atoms: C10_13  and  C14_21 
REMARK       I    between atoms: N2_14  and  C11_16 
REMARK       I    between atoms: C11_16  and  N3_18 
ROOT
HETATM    1  N1  UNL     1      -8.627  24.149   2.433  1.00  0.00    -0.359 N 
ATOM      2  H1  UNL     1      -8.866  23.176   2.236  1.00  0.00     0.162 HD
HETATM    3  C9  UNL     1      -8.051  24.426   3.701  1.00  0.00     0.240 C 
HETATM    4  O1  UNL     1      -7.751  25.614   3.968  1.00  0.00    -0.271 OA
ENDROOT
BRANCH   1   5
HETATM    5  C8  UNL     1      -8.904  25.105   1.407  1.00  0.00     0.127 C 
BRANCH   5   6
HETATM    6  C7  UNL     1      -7.734  25.380   0.485  1.00  0.00     0.058 C 
BRANCH   6   7
HETATM    7  C6  UNL     1      -8.002  24.793  -0.866  1.00  0.00    -0.050 A 
HETATM    8  C4  UNL     1      -8.255  25.552  -1.977  1.00  0.00    -0.055 A 
HETATM    9  C3  UNL     1      -8.493  24.895  -3.187  1.00  0.00     0.014 A 
HETATM   10  C5  UNL     1      -8.277  27.030  -1.901  1.00  0.00     0.049 C 
HETATM   11  C2  UNL     1      -8.479  23.525  -3.294  1.00  0.00    -0.056 A 
HETATM   12  C1  UNL     1      -8.732  22.875  -4.575  1.00  0.00     0.049 C 
HETATM   13  C18 UNL     1      -8.224  22.756  -2.182  1.00  0.00    -0.056 A 
HETATM   14  C17 UNL     1      -7.990  23.393  -0.985  1.00  0.00     0.015 A 
HETATM   15  C19 UNL     1      -8.212  21.299  -2.312  1.00  0.00     0.049 C 
ENDBRANCH   6   7
ENDBRANCH   5   6
ENDBRANCH   1   5
BRANCH   3  16
HETATM   16  C10 UNL     1      -7.797  23.362   4.703  1.00  0.00     0.181 C 
BRANCH  16  17
HETATM   17  N2  UNL     1      -7.007  23.906   5.767  1.00  0.00    -0.329 N 
HETATM   18  C11 UNL     1      -6.022  23.200   6.480  1.00  0.00     0.318 C 
HETATM   19  O2  UNL     1      -5.787  22.009   6.196  1.00  0.00    -0.247 OA
HETATM   20  N3  UNL     1      -5.293  23.823   7.512  1.00  0.00    -0.343 N 
HETATM   21  C12 UNL     1      -4.263  23.090   8.257  1.00  0.00     0.154 C 
HETATM   22  C13 UNL     1      -5.570  25.223   7.846  1.00  0.00     0.154 C 
ATOM     23  H2  UNL     1      -7.172  24.878   6.026  1.00  0.00     0.165 HD
ENDBRANCH  16  17
BRANCH  16  24
HETATM   24  C14 UNL     1      -9.139  22.850   5.170  1.00  0.00     0.009 C 
HETATM   25  C15 UNL     1      -9.820  21.988   4.157  1.00  0.00     0.012 C 
HETATM   26  C16 UNL     1     -10.051  23.967   5.627  1.00  0.00     0.012 C 
ENDBRANCH  16  24
ENDBRANCH   3  16
TORSDOF 6
ENDMDL
MODEL 3
REMARK VINA RESULT: -8.456334539      1.940      3.364
REMARK  6 active torsions:
REMARK  status: ('A' for Active; 'I' for Inactive)
REMARK    1  A    between atoms: C6_6  and  C7_7 
REMARK    2  A    between atoms: C7_7  and  C8_8 
REMARK    3  A    between atoms: C8_8  and  N1_9 
REMARK       I    between atoms: N1_9  and  C9_11 
REMARK    4  A    between atoms: C9_11  and  C10_13 
REMARK    5  A    between atoms: C10_13  and  N2_14 
REMARK    6  A    between atoms: C10_13  and  C14_21 
REMARK       I    between atoms: N2_14  and  C11_16 
REMARK       I    between atoms: C11_16  and  N3_18 
ROOT
HETATM    1  N1  UNL     1      -5.979  24.503   5.352  1.00  0.00    -0.359 N 
ATOM      2  H1  UNL     1      -5.133  24.246   4.843  1.00  0.00     0.162 HD
HETATM    3  C9  UNL     1      -5.862  24.659   6.758  1.00  0.00     0.240 C 
HETATM    4  O1  UNL     1      -6.888  24.972   7.408  1.00  0.00    -0.271 OA
ENDROOT
BRANCH   1   5
HETATM    5  C8  UNL     1      -7.172  24.673   4.582  1.00  0.00     0.127 C 
BRANCH   5   6
HETATM    6  C7  UNL     1      -8.023  23.426   4.475  1.00  0.00     0.058 C 
BRANCH   6   7
HETATM    7  C6  UNL     1      -9.465  23.773   4.680  1.00  0.00    -0.050 A 
HETATM    8  C4  UNL     1     -10.292  24.172   3.665  1.00  0.00    -0.055 A 
HETATM    9  C3  UNL     1     -11.621  24.473   3.974  1.00  0.00     0.014 A 
HETATM   10  C5  UNL     1      -9.795  24.282   2.275  1.00  0.00     0.049 C 
HETATM   11  C2  UNL     1     -12.117  24.381   5.253  1.00  0.00    -0.056 A 
HETATM   12  C1  UNL     1     -13.510  24.704   5.537  1.00  0.00     0.049 C 
HETATM   13  C18 UNL     1     -11.291  23.981   6.278  1.00  0.00    -0.056 A 
HETATM   14  C17 UNL     1      -9.980  23.683   5.984  1.00  0.00     0.015 A 
HETATM   15  C19 UNL     1     -11.833  23.887   7.633  1.00  0.00     0.049 C 
ENDBRANCH   6   7
ENDBRANCH   5   6
ENDBRANCH   1   5
BRANCH   3  16
HETATM   16  C10 UNL     1      -4.574  24.465   7.470  1.00  0.00     0.181 C 
BRANCH  16  17
HETATM   17  N2  UNL     1      -4.447  25.472   8.481  1.00  0.00    -0.329 N 
HETATM   18  C11 UNL     1      -4.223  26.838   8.233  1.00  0.00     0.318 C 
HETATM   19  O2  UNL     1      -4.121  27.244   7.059  1.00  0.00    -0.247 OA
HETATM   20  N3  UNL     1      -4.113  27.755   9.296  1.00  0.00    -0.343 N 
HETATM   21  C12 UNL     1      -3.881  29.182   9.040  1.00  0.00     0.154 C 
HETATM   22  C13 UNL     1      -4.232  27.277  10.675  1.00  0.00     0.154 C 
ATOM     23  H2  UNL     1      -4.525  25.176   9.453  1.00  0.00     0.165 HD
ENDBRANCH  16  17
BRANCH  16  24
HETATM   24  C14 UNL     1      -4.575  23.064   8.033  1.00  0.00     0.009 C 
HETATM   25  C15 UNL     1      -3.286  22.702   8.697  1.00  0.00     0.012 C 
HETATM   26  C16 UNL     1      -4.957  22.029   6.999  1.00  0.00     0.012 C 
ENDBRANCH  16  24
ENDBRANCH   3  16
TORSDOF 6
ENDMDL
MODEL 4
REMARK VINA RESULT: -8.371258854      2.520      8.000
REMARK  6 active torsions:
REMARK  status: ('A' for Active; 'I' for Inactive)
REMARK    1  A    between atoms: C6_6  and  C7_7 
REMARK    2  A    between atoms: C7_7  and  C8_8 
REMARK    3  A    between atoms: C8_8  and  N1_9 
REMARK       I    between atoms: N1_9  and  C9_11 
REMARK    4  A    between atoms: C9_11  and  C10_13 
REMARK    5  A    between atoms: C10_13  and  N2_14 
REMARK    6  A    between atoms: C10_13  and  C14_21 
REMARK       I    between atoms: N2_14  and  C11_16 
REMARK       I    between atoms: C11_16  and  N3_18 
ROOT
HETATM    1  N1  UNL     1      -7.029  24.543   4.902  1.00  0.00    -0.359 N 
ATOM      2  H1  UNL     1      -7.064  23.587   5.257  1.00  0.00     0.162 HD
HETATM    3  C9  UNL     1      -8.021  24.915   3.957  1.00  0.00     0.240 C 
HETATM    4  O1  UNL     1      -7.998  26.084   3.502  1.00  0.00    -0.271 OA
ENDROOT
BRANCH   1   5
HETATM    5  C8  UNL     1      -5.985  25.381   5.401  1.00  0.00     0.127 C 
BRANCH   5   6
HETATM    6  C7  UNL     1      -4.871  24.633   6.102  1.00  0.00     0.058 C 
BRANCH   6   7
HETATM    7  C6  UNL     1      -4.646  25.212   7.464  1.00  0.00    -0.050 A 
HETATM    8  C4  UNL     1      -4.541  24.451   8.596  1.00  0.00    -0.055 A 
HETATM    9  C3  UNL     1      -4.333  25.101   9.815  1.00  0.00     0.014 A 
HETATM   10  C5  UNL     1      -4.645  22.975   8.534  1.00  0.00     0.049 C 
HETATM   11  C2  UNL     1      -4.230  26.469   9.909  1.00  0.00    -0.056 A 
HETATM   12  C1  UNL     1      -4.012  27.112  11.199  1.00  0.00     0.049 C 
HETATM   13  C18 UNL     1      -4.334  27.241   8.775  1.00  0.00    -0.056 A 
HETATM   14  C17 UNL     1      -4.540  26.610   7.570  1.00  0.00     0.015 A 
HETATM   15  C19 UNL     1      -4.222  28.694   8.892  1.00  0.00     0.049 C 
ENDBRANCH   6   7
ENDBRANCH   5   6
ENDBRANCH   1   5
BRANCH   3  16
HETATM   16  C10 UNL     1      -9.071  23.972   3.500  1.00  0.00     0.181 C 
BRANCH  16  17
HETATM   17  N2  UNL     1     -10.292  24.268   4.191  1.00  0.00    -0.329 N 
HETATM   18  C11 UNL     1     -10.566  23.923   5.526  1.00  0.00     0.318 C 
HETATM   19  O2  UNL     1      -9.709  23.313   6.195  1.00  0.00    -0.247 OA
HETATM   20  N3  UNL     1     -11.798  24.259   6.119  1.00  0.00    -0.343 N 
HETATM   21  C12 UNL     1     -12.086  23.902   7.513  1.00  0.00     0.154 C 
HETATM   22  C13 UNL     1     -12.805  24.976   5.332  1.00  0.00     0.154 C 
ATOM     23  H2  UNL     1     -11.016  24.767   3.674  1.00  0.00     0.165 HD
ENDBRANCH  16  17
BRANCH  16  24
HETATM   24  C14 UNL     1      -9.193  24.119   2.003  1.00  0.00     0.009 C 
HETATM   25  C15 UNL     1     -10.466  23.552   1.463  1.00  0.00     0.012 C 
HETATM   26  C16 UNL     1      -7.998  23.551   1.271  1.00  0.00     0.012 C 
ENDBRANCH  16  24
ENDBRANCH   3  16
TORSDOF 6
ENDMDL
MODEL 5
REMARK VINA RESULT: -8.269542290      2.395      8.306
REMARK  6 active torsions:
REMARK  status: ('A' for Active; 'I' for Inactive)
REMARK    1  A    between atoms: C6_6  and  C7_7 
REMARK    2  A    between atoms: C7_7  and  C8_8 
REMARK    3  A    between atoms: C8_8  and  N1_9 
REMARK       I    between atoms: N1_9  and  C9_11 
REMARK    4  A    between atoms: C9_11  and  C10_13 
REMARK    5  A    between atoms: C10_13  and  N2_14 
REMARK    6  A    between atoms: C10_13  and  C14_21 
REMARK       I    between atoms: N2_14  and  C11_16 
REMARK       I    between atoms: C11_16  and  N3_18 
ROOT
HETATM    1  N1  UNL     1      -6.826  24.435   5.569  1.00  0.00    -0.359 N 
ATOM      2  H1  UNL     1      -6.917  25.446   5.461  1.00  0.00     0.162 HD
HETATM    3  C9  UNL     1      -7.738  23.626   4.842  1.00  0.00     0.240 C 
HETATM    4  O1  UNL     1      -7.649  22.380   4.959  1.00  0.00    -0.271 OA
ENDROOT
BRANCH   1   5
HETATM    5  C8  UNL     1      -5.792  23.967   6.438  1.00  0.00     0.127 C 
BRANCH   5   6
HETATM    6  C7  UNL     1      -4.555  24.840   6.455  1.00  0.00     0.058 C 
BRANCH   6   7
HETATM    7  C6  UNL     1      -4.426  25.513   7.786  1.00  0.00    -0.050 A 
HETATM    8  C4  UNL     1      -4.382  24.832   8.972  1.00  0.00    -0.055 A 
HETATM    9  C3  UNL     1      -4.262  25.566  10.154  1.00  0.00     0.014 A 
HETATM   10  C5  UNL     1      -4.460  23.353   9.004  1.00  0.00     0.049 C 
HETATM   11  C2  UNL     1      -4.186  26.939  10.161  1.00  0.00    -0.056 A 
HETATM   12  C1  UNL     1      -4.061  27.672  11.415  1.00  0.00     0.049 C 
HETATM   13  C18 UNL     1      -4.228  27.631   8.973  1.00  0.00    -0.056 A 
HETATM   14  C17 UNL     1      -4.348  26.917   7.803  1.00  0.00     0.015 A 
HETATM   15  C19 UNL     1      -4.146  29.091   8.997  1.00  0.00     0.049 C 
ENDBRANCH   6   7
ENDBRANCH   5   6
ENDBRANCH   1   5
BRANCH   3  16
HETATM   16  C10 UNL     1      -8.778  24.207   3.958  1.00  0.00     0.181 C 
BRANCH  16  17
HETATM   17  N2  UNL     1      -8.410  23.973   2.593  1.00  0.00    -0.329 N 
HETATM   18  C11 UNL     1      -8.346  24.962   1.595  1.00  0.00     0.318 C 
HETATM   19  O2  UNL     1      -8.623  26.144   1.879  1.00  0.00    -0.247 OA
HETATM   20  N3  UNL     1      -7.971  24.635   0.278  1.00  0.00    -0.343 N 
HETATM   21  C12 UNL     1      -7.901  25.665  -0.765  1.00  0.00     0.154 C 
HETATM   22  C13 UNL     1      -7.646  23.245  -0.054  1.00  0.00     0.154 C 
ATOM     23  H2  UNL     1      -8.177  23.017   2.325  1.00  0.00     0.165 HD
ENDBRANCH  16  17
BRANCH  16  24
HETATM   24  C14 UNL     1     -10.095  23.568   4.328  1.00  0.00     0.009 C 
HETATM   25  C15 UNL     1     -11.198  23.913   3.379  1.00  0.00     0.012 C 
HETATM   26  C16 UNL     1     -10.499  23.870   5.754  1.00  0.00     0.012 C 
ENDBRANCH  16  24
ENDBRANCH   3  16
TORSDOF 6
ENDMDL
