MODEL 1
REMARK VINA RESULT: -6.794577351      0.000      0.000
REMARK  11 active torsions:
REMARK  status: ('A' for Active; 'I' for Inactive)
REMARK    1  A    between atoms: C2_2  and  C4_5 
REMARK    2  A    between atoms: C4_5  and  C5_6 
REMARK    3  A    between atoms: C4_5  and  N1_9 
REMARK    4  A    between atoms: C5_6  and  O1_7 
REMARK    5  A    between atoms: N1_9  and  C6_11 
REMARK    6  A    between atoms: C6_11  and  C7_12 
REMARK       I    between atoms: C7_12  and  N2_14 
REMARK    7  A    between atoms: N2_14  and  C8_16 
REMARK    8  A    between atoms: C8_16  and  C9_17 
REMARK    9  A    between atoms: C9_17  and  C10_18 
REMARK   10  A    between atoms: C9_17  and  N4_28 
REMARK       I    between atoms: C10_18  and  N3_20 
REMARK   11  A    between atoms: N3_20  and  C11_22 
ROOT
HETATM    1  C9  UNL     1      12.148  39.110  29.953  1.00  0.00     0.193 C 
ENDROOT
BRANCH   1   2
HETATM    2  C8  UNL     1      11.973  39.057  31.476  1.00  0.00     0.158 C 
BRANCH   2   3
HETATM    3  N2  UNL     1      11.710  40.380  31.992  1.00  0.00    -0.354 N 
HETATM    4  C7  UNL     1      10.831  40.632  33.103  1.00  0.00     0.256 C 
HETATM    5  O2  UNL     1      10.305  39.644  33.621  1.00  0.00    -0.267 OA
ATOM      6  H2  UNL     1      12.170  41.174  31.547  1.00  0.00     0.162 HD
BRANCH   4   7
HETATM    7  C6  UNL     1      10.630  42.018  33.524  1.00  0.00     0.158 C 
BRANCH   7   8
HETATM    8  N1  UNL     1      11.311  42.986  32.792  1.00  0.00    -0.385 N 
ATOM      9  H1  UNL     1      12.317  43.064  32.935  1.00  0.00     0.159 HD
BRANCH   8  10
HETATM   10  C4  UNL     1      10.722  43.851  31.882  1.00  0.00     0.143 C 
BRANCH  10  11
HETATM   11  C2  UNL     1      11.445  45.214  31.951  1.00  0.00     0.118 C 
HETATM   12  C1  UNL     1      10.510  46.199  32.658  1.00  0.00     0.053 C 
HETATM   13  C3  UNL     1      11.750  45.765  30.604  1.00  0.00     0.053 C 
HETATM   14  F1  UNL     1      12.605  45.021  32.662  1.00  0.00    -0.241 F 
ENDBRANCH  10  11
BRANCH  10  15
HETATM   15  C5  UNL     1      10.541  43.498  30.454  1.00  0.00     0.192 C 
BRANCH  15  16
HETATM   16  O1  UNL     1      11.385  42.473  30.030  1.00  0.00    -0.399 OA
ATOM     17  H1  UNL     1      12.231  42.482  30.462  1.00  0.00     0.209 HD
ENDBRANCH  15  16
ENDBRANCH  10  15
ENDBRANCH   8  10
ENDBRANCH   7   8
ENDBRANCH   4   7
ENDBRANCH   2   3
ENDBRANCH   1   2
BRANCH   1  18
HETATM   18  C10 UNL     1      10.840  39.003  29.272  1.00  0.00     0.242 C 
HETATM   19  O3  UNL     1      10.275  37.917  29.001  1.00  0.00    -0.271 OA
HETATM   20  N3  UNL     1      10.092  40.169  28.855  1.00  0.00    -0.355 N 
ATOM     21  H3  UNL     1      10.477  41.094  29.042  1.00  0.00     0.162 HD
BRANCH  20  22
HETATM   22  C11 UNL     1       8.833  40.065  28.192  1.00  0.00     0.084 C 
HETATM   23  C12 UNL     1       8.457  41.383  27.572  1.00  0.00     0.025 C 
HETATM   24  C13 UNL     1       7.057  41.346  26.990  1.00  0.00     0.002 C 
HETATM   25  C14 UNL     1       6.416  39.982  27.134  1.00  0.00     0.000 C 
HETATM   26  C15 UNL     1       6.455  39.438  28.534  1.00  0.00     0.002 C 
HETATM   27  C16 UNL     1       7.749  39.784  29.246  1.00  0.00     0.025 C 
ENDBRANCH  20  22
ENDBRANCH   1  18
BRANCH   1  28
HETATM   28  N4  UNL     1      13.119  38.195  29.548  1.00  0.00    -0.379 N 
HETATM   29  C17 UNL     1      13.690  37.271  30.414  1.00  0.00     0.123 C 
HETATM   30  C18 UNL     1      15.219  37.406  30.333  1.00  0.00     0.020 C 
HETATM   31  C19 UNL     1      15.658  37.512  28.911  1.00  0.00     0.007 C 
HETATM   32  C20 UNL     1      14.601  37.197  27.891  1.00  0.00     0.044 C 
HETATM   33  C21 UNL     1      13.302  37.937  28.187  1.00  0.00     0.059 C 
ENDBRANCH   1  28
TORSDOF 11
ENDMDL
MODEL 2
REMARK VINA RESULT: -6.681417190      3.918      7.383
REMARK  11 active torsions:
REMARK  status: ('A' for Active; 'I' for Inactive)
REMARK    1  A    between atoms: C2_2  and  C4_5 
REMARK    2  A    between atoms: C4_5  and  C5_6 
REMARK    3  A    between atoms: C4_5  and  N1_9 
REMARK    4  A    between atoms: C5_6  and  O1_7 
REMARK    5  A    between atoms: N1_9  and  C6_11 
REMARK    6  A    between atoms: C6_11  and  C7_12 
REMARK       I    between atoms: C7_12  and  N2_14 
REMARK    7  A    between atoms: N2_14  and  C8_16 
REMARK    8  A    between atoms: C8_16  and  C9_17 
REMARK    9  A    between atoms: C9_17  and  C10_18 
REMARK   10  A    between atoms: C9_17  and  N4_28 
REMARK       I    between atoms: C10_18  and  N3_20 
REMARK   11  A    between atoms: N3_20  and  C11_22 
ROOT
HETATM    1  C9  UNL     1      10.022  42.323  32.156  1.00  0.00     0.193 C 
ENDROOT
BRANCH   1   2
HETATM    2  C8  UNL     1      10.157  41.890  33.621  1.00  0.00     0.158 C 
BRANCH   2   3
HETATM    3  N2  UNL     1       8.957  41.210  34.050  1.00  0.00    -0.354 N 
HETATM    4  C7  UNL     1       8.904  39.795  34.313  1.00  0.00     0.256 C 
HETATM    5  O2  UNL     1       9.958  39.171  34.166  1.00  0.00    -0.267 OA
ATOM      6  H2  UNL     1       8.106  41.758  34.173  1.00  0.00     0.162 HD
BRANCH   4   7
HETATM    7  C6  UNL     1       7.626  39.217  34.726  1.00  0.00     0.158 C 
BRANCH   7   8
HETATM    8  N1  UNL     1       7.387  39.173  36.096  1.00  0.00    -0.385 N 
ATOM      9  H1  UNL     1       6.822  39.919  36.500  1.00  0.00     0.159 HD
BRANCH   8  10
HETATM   10  C4  UNL     1       7.860  38.190  36.952  1.00  0.00     0.143 C 
BRANCH  10  11
HETATM   11  C2  UNL     1       7.303  38.453  38.368  1.00  0.00     0.118 C 
HETATM   12  C1  UNL     1       5.944  37.752  38.469  1.00  0.00     0.053 C 
HETATM   13  C3  UNL     1       7.087  39.900  38.634  1.00  0.00     0.053 C 
HETATM   14  F1  UNL     1       8.206  37.933  39.262  1.00  0.00    -0.241 F 
ENDBRANCH  10  11
BRANCH  10  15
HETATM   15  C5  UNL     1       7.710  36.745  36.660  1.00  0.00     0.192 C 
BRANCH  15  16
HETATM   16  O1  UNL     1       8.929  36.078  36.549  1.00  0.00    -0.399 OA
ATOM     17  H1  UNL     1       8.835  35.163  36.311  1.00  0.00     0.209 HD
ENDBRANCH  15  16
ENDBRANCH  10  15
ENDBRANCH   8  10
ENDBRANCH   7   8
ENDBRANCH   4   7
ENDBRANCH   2   3
ENDBRANCH   1   2
BRANCH   1  18
HETATM   18  C10 UNL     1      10.922  41.531  31.291  1.00  0.00     0.242 C 
HETATM   19  O3  UNL     1      11.461  41.971  30.248  1.00  0.00    -0.271 OA
HETATM   20  N3  UNL     1      11.259  40.155  31.586  1.00  0.00    -0.355 N 
ATOM     21  H3  UNL     1      10.866  39.719  32.420  1.00  0.00     0.162 HD
BRANCH  20  22
HETATM   22  C11 UNL     1      12.121  39.389  30.747  1.00  0.00     0.084 C 
HETATM   23  C12 UNL     1      11.334  38.723  29.653  1.00  0.00     0.025 C 
HETATM   24  C13 UNL     1      12.199  37.782  28.836  1.00  0.00     0.002 C 
HETATM   25  C14 UNL     1      13.641  37.792  29.295  1.00  0.00     0.000 C 
HETATM   26  C15 UNL     1      13.810  37.568  30.772  1.00  0.00     0.002 C 
HETATM   27  C16 UNL     1      12.717  38.241  31.580  1.00  0.00     0.025 C 
ENDBRANCH  20  22
ENDBRANCH   1  18
BRANCH   1  28
HETATM   28  N4  UNL     1      10.144  43.708  32.052  1.00  0.00    -0.379 N 
HETATM   29  C17 UNL     1       9.255  44.489  31.325  1.00  0.00     0.123 C 
HETATM   30  C18 UNL     1      10.057  45.351  30.337  1.00  0.00     0.020 C 
HETATM   31  C19 UNL     1      11.244  45.951  31.013  1.00  0.00     0.007 C 
HETATM   32  C20 UNL     1      11.256  45.827  32.510  1.00  0.00     0.044 C 
HETATM   33  C21 UNL     1      10.955  44.401  32.954  1.00  0.00     0.059 C 
ENDBRANCH   1  28
TORSDOF 11
ENDMDL
MODEL 3
REMARK VINA RESULT: -6.573623946      4.690      7.745
REMARK  11 active torsions:
REMARK  status: ('A' for Active; 'I' for Inactive)
REMARK    1  A    between atoms: C2_2  and  C4_5 
REMARK    2  A    between atoms: C4_5  and  C5_6 
REMARK    3  A    between atoms: C4_5  and  N1_9 
REMARK    4  A    between atoms: C5_6  and  O1_7 
REMARK    5  A    between atoms: N1_9  and  C6_11 
REMARK    6  A    between atoms: C6_11  and  C7_12 
REMARK       I    between atoms: C7_12  and  N2_14 
REMARK    7  A    between atoms: N2_14  and  C8_16 
REMARK    8  A    between atoms: C8_16  and  C9_17 
REMARK    9  A    between atoms: C9_17  and  C10_18 
REMARK   10  A    between atoms: C9_17  and  N4_28 
REMARK       I    between atoms: C10_18  and  N3_20 
REMARK   11  A    between atoms: N3_20  and  C11_22 
ROOT
HETATM    1  C9  UNL     1       7.275  39.841  35.355  1.00  0.00     0.193 C 
ENDROOT
BRANCH   1   2
HETATM    2  C8  UNL     1       8.499  39.379  34.556  1.00  0.00     0.158 C 
BRANCH   2   3
HETATM    3  N2  UNL     1       9.168  40.518  33.970  1.00  0.00    -0.354 N 
HETATM    4  C7  UNL     1      10.467  40.438  33.355  1.00  0.00     0.256 C 
HETATM    5  O2  UNL     1      10.997  39.325  33.336  1.00  0.00    -0.267 OA
ATOM      6  H2  UNL     1       8.696  41.422  33.993  1.00  0.00     0.162 HD
BRANCH   4   7
HETATM    7  C6  UNL     1      11.049  41.664  32.811  1.00  0.00     0.158 C 
BRANCH   7   8
HETATM    8  N1  UNL     1      11.341  42.665  33.732  1.00  0.00    -0.385 N 
ATOM      9  H1  UNL     1      10.864  42.632  34.632  1.00  0.00     0.159 HD
BRANCH   8  10
HETATM   10  C4  UNL     1      12.234  43.705  33.516  1.00  0.00     0.143 C 
BRANCH  10  11
HETATM   11  C2  UNL     1      11.441  44.961  33.091  1.00  0.00     0.118 C 
HETATM   12  C1  UNL     1      11.836  45.292  31.648  1.00  0.00     0.053 C 
HETATM   13  C3  UNL     1      11.758  46.146  33.931  1.00  0.00     0.053 C 
HETATM   14  F1  UNL     1      10.106  44.650  33.189  1.00  0.00    -0.241 F 
ENDBRANCH  10  11
BRANCH  10  15
HETATM   15  C5  UNL     1      13.235  44.114  34.529  1.00  0.00     0.192 C 
BRANCH  15  16
HETATM   16  O1  UNL     1      14.331  43.256  34.596  1.00  0.00    -0.399 OA
ATOM     17  H1  UNL     1      14.806  43.318  35.416  1.00  0.00     0.209 HD
ENDBRANCH  15  16
ENDBRANCH  10  15
ENDBRANCH   8  10
ENDBRANCH   7   8
ENDBRANCH   4   7
ENDBRANCH   2   3
ENDBRANCH   1   2
BRANCH   1  18
HETATM   18  C10 UNL     1       7.137  41.313  35.300  1.00  0.00     0.242 C 
HETATM   19  O3  UNL     1       6.612  41.933  34.346  1.00  0.00    -0.271 OA
HETATM   20  N3  UNL     1       7.607  42.170  36.366  1.00  0.00    -0.355 N 
ATOM     21  H3  UNL     1       8.043  41.745  37.184  1.00  0.00     0.162 HD
BRANCH  20  22
HETATM   22  C11 UNL     1       7.480  43.589  36.309  1.00  0.00     0.084 C 
HETATM   23  C12 UNL     1       8.823  44.228  36.088  1.00  0.00     0.025 C 
HETATM   24  C13 UNL     1       8.743  45.740  36.173  1.00  0.00     0.002 C 
HETATM   25  C14 UNL     1       7.328  46.223  36.407  1.00  0.00     0.000 C 
HETATM   26  C15 UNL     1       6.644  45.559  37.569  1.00  0.00     0.002 C 
HETATM   27  C16 UNL     1       7.009  44.092  37.684  1.00  0.00     0.025 C 
ENDBRANCH  20  22
ENDBRANCH   1  18
BRANCH   1  28
HETATM   28  N4  UNL     1       7.295  39.281  36.632  1.00  0.00    -0.379 N 
HETATM   29  C17 UNL     1       6.140  38.929  37.318  1.00  0.00     0.123 C 
HETATM   30  C18 UNL     1       6.171  39.596  38.702  1.00  0.00     0.020 C 
HETATM   31  C19 UNL     1       7.520  39.445  39.323  1.00  0.00     0.007 C 
HETATM   32  C20 UNL     1       8.438  38.479  38.629  1.00  0.00     0.044 C 
HETATM   33  C21 UNL     1       8.480  38.731  37.127  1.00  0.00     0.059 C 
ENDBRANCH   1  28
TORSDOF 11
ENDMDL
MODEL 4
REMARK VINA RESULT: -6.571458702      3.476      7.081
REMARK  11 active torsions:
REMARK  status: ('A' for Active; 'I' for Inactive)
REMARK    1  A    between atoms: C2_2  and  C4_5 
REMARK    2  A    between atoms: C4_5  and  C5_6 
REMARK    3  A    between atoms: C4_5  and  N1_9 
REMARK    4  A    between atoms: C5_6  and  O1_7 
REMARK    5  A    between atoms: N1_9  and  C6_11 
REMARK    6  A    between atoms: C6_11  and  C7_12 
REMARK       I    between atoms: C7_12  and  N2_14 
REMARK    7  A    between atoms: N2_14  and  C8_16 
REMARK    8  A    between atoms: C8_16  and  C9_17 
REMARK    9  A    between atoms: C9_17  and  C10_18 
REMARK   10  A    between atoms: C9_17  and  N4_28 
REMARK       I    between atoms: C10_18  and  N3_20 
REMARK   11  A    between atoms: N3_20  and  C11_22 
ROOT
HETATM    1  C9  UNL     1      10.387  42.990  32.570  1.00  0.00     0.193 C 
ENDROOT
BRANCH   1   2
HETATM    2  C8  UNL     1      10.347  42.293  33.936  1.00  0.00     0.158 C 
BRANCH   2   3
HETATM    3  N2  UNL     1       9.053  41.686  34.144  1.00  0.00    -0.354 N 
HETATM    4  C7  UNL     1       8.853  40.262  34.217  1.00  0.00     0.256 C 
HETATM    5  O2  UNL     1       9.862  39.560  34.103  1.00  0.00    -0.267 OA
ATOM      6  H2  UNL     1       8.241  42.295  34.245  1.00  0.00     0.162 HD
BRANCH   4   7
HETATM    7  C6  UNL     1       7.492  39.765  34.414  1.00  0.00     0.158 C 
BRANCH   7   8
HETATM    8  N1  UNL     1       7.092  39.583  35.734  1.00  0.00    -0.385 N 
ATOM      9  H1  UNL     1       6.091  39.527  35.920  1.00  0.00     0.159 HD
BRANCH   8  10
HETATM   10  C4  UNL     1       7.953  39.473  36.816  1.00  0.00     0.143 C 
BRANCH  10  11
HETATM   11  C2  UNL     1       7.282  40.112  38.052  1.00  0.00     0.118 C 
HETATM   12  C1  UNL     1       7.733  39.321  39.284  1.00  0.00     0.053 C 
HETATM   13  C3  UNL     1       5.798  40.048  37.991  1.00  0.00     0.053 C 
HETATM   14  F1  UNL     1       7.702  41.419  38.111  1.00  0.00    -0.241 F 
ENDBRANCH  10  11
BRANCH  10  15
HETATM   15  C5  UNL     1       8.545  38.180  37.230  1.00  0.00     0.192 C 
BRANCH  15  16
HETATM   16  O1  UNL     1       9.635  37.799  36.449  1.00  0.00    -0.399 OA
ATOM     17  H1  UNL     1       9.498  36.979  35.989  1.00  0.00     0.209 HD
ENDBRANCH  15  16
ENDBRANCH  10  15
ENDBRANCH   8  10
ENDBRANCH   7   8
ENDBRANCH   4   7
ENDBRANCH   2   3
ENDBRANCH   1   2
BRANCH   1  18
HETATM   18  C10 UNL     1      10.978  42.102  31.546  1.00  0.00     0.242 C 
HETATM   19  O3  UNL     1      11.273  42.469  30.384  1.00  0.00    -0.271 OA
HETATM   20  N3  UNL     1      11.268  40.710  31.809  1.00  0.00    -0.355 N 
ATOM     21  H3  UNL     1      11.063  40.330  32.733  1.00  0.00     0.162 HD
BRANCH  20  22
HETATM   22  C11 UNL     1      11.831  39.852  30.819  1.00  0.00     0.084 C 
HETATM   23  C12 UNL     1      10.749  39.272  29.951  1.00  0.00     0.025 C 
HETATM   24  C13 UNL     1      11.301  38.240  28.986  1.00  0.00     0.002 C 
HETATM   25  C14 UNL     1      12.803  38.095  29.105  1.00  0.00     0.000 C 
HETATM   26  C15 UNL     1      13.280  37.859  30.511  1.00  0.00     0.002 C 
HETATM   27  C16 UNL     1      12.478  38.649  31.527  1.00  0.00     0.025 C 
ENDBRANCH  20  22
ENDBRANCH   1  18
BRANCH   1  28
HETATM   28  N4  UNL     1      10.973  44.250  32.691  1.00  0.00    -0.379 N 
HETATM   29  C17 UNL     1      12.274  44.435  33.140  1.00  0.00     0.123 C 
HETATM   30  C18 UNL     1      12.252  45.441  34.302  1.00  0.00     0.020 C 
HETATM   31  C19 UNL     1      11.372  46.600  33.971  1.00  0.00     0.007 C 
HETATM   32  C20 UNL     1      10.936  46.682  32.536  1.00  0.00     0.044 C 
HETATM   33  C21 UNL     1      10.399  45.345  32.039  1.00  0.00     0.059 C 
ENDBRANCH   1  28
TORSDOF 11
ENDMDL
MODEL 5
REMARK VINA RESULT: -6.555444039      3.741      6.898
REMARK  11 active torsions:
REMARK  status: ('A' for Active; 'I' for Inactive)
REMARK    1  A    between atoms: C2_2  and  C4_5 
REMARK    2  A    between atoms: C4_5  and  C5_6 
REMARK    3  A    between atoms: C4_5  and  N1_9 
REMARK    4  A    between atoms: C5_6  and  O1_7 
REMARK    5  A    between atoms: N1_9  and  C6_11 
REMARK    6  A    between atoms: C6_11  and  C7_12 
REMARK       I    between atoms: C7_12  and  N2_14 
REMARK    7  A    between atoms: N2_14  and  C8_16 
REMARK    8  A    between atoms: C8_16  and  C9_17 
REMARK    9  A    between atoms: C9_17  and  C10_18 
REMARK   10  A    between atoms: C9_17  and  N4_28 
REMARK       I    between atoms: C10_18  and  N3_20 
REMARK   11  A    between atoms: N3_20  and  C11_22 
ROOT
HETATM    1  C9  UNL     1      10.158  41.139  32.275  1.00  0.00     0.193 C 
ENDROOT
BRANCH   1   2
HETATM    2  C8  UNL     1      10.142  40.253  33.527  1.00  0.00     0.158 C 
BRANCH   2   3
HETATM    3  N2  UNL     1       8.813  40.216  34.092  1.00  0.00    -0.354 N 
HETATM    4  C7  UNL     1       8.433  39.323  35.155  1.00  0.00     0.256 C 
HETATM    5  O2  UNL     1       9.316  38.577  35.586  1.00  0.00    -0.267 OA
ATOM      6  H2  UNL     1       8.110  40.854  33.719  1.00  0.00     0.162 HD
BRANCH   4   7
HETATM    7  C6  UNL     1       7.051  39.366  35.632  1.00  0.00     0.158 C 
BRANCH   7   8
HETATM    8  N1  UNL     1       6.747  40.379  36.537  1.00  0.00    -0.385 N 
ATOM      9  H1  UNL     1       5.866  40.875  36.410  1.00  0.00     0.159 HD
BRANCH   8  10
HETATM   10  C4  UNL     1       7.554  40.763  37.598  1.00  0.00     0.143 C 
BRANCH  10  11
HETATM   11  C2  UNL     1       7.080  42.141  38.109  1.00  0.00     0.118 C 
HETATM   12  C1  UNL     1       5.662  42.370  37.576  1.00  0.00     0.053 C 
HETATM   13  C3  UNL     1       7.934  43.255  37.619  1.00  0.00     0.053 C 
HETATM   14  F1  UNL     1       7.100  42.092  39.482  1.00  0.00    -0.241 F 
ENDBRANCH  10  11
BRANCH  10  15
HETATM   15  C5  UNL     1       7.788  39.891  38.773  1.00  0.00     0.192 C 
BRANCH  15  16
HETATM   16  O1  UNL     1       8.874  39.032  38.611  1.00  0.00    -0.399 OA
ATOM     17  H1  UNL     1       9.582  39.205  39.220  1.00  0.00     0.209 HD
ENDBRANCH  15  16
ENDBRANCH  10  15
ENDBRANCH   8  10
ENDBRANCH   7   8
ENDBRANCH   4   7
ENDBRANCH   2   3
ENDBRANCH   1   2
BRANCH   1  18
HETATM   18  C10 UNL     1      11.111  40.614  31.274  1.00  0.00     0.242 C 
HETATM   19  O3  UNL     1      11.484  41.249  30.259  1.00  0.00    -0.271 OA
HETATM   20  N3  UNL     1      11.702  39.299  31.390  1.00  0.00    -0.355 N 
ATOM     21  H3  UNL     1      11.457  38.717  32.190  1.00  0.00     0.162 HD
BRANCH  20  22
HETATM   22  C11 UNL     1      12.616  38.790  30.420  1.00  0.00     0.084 C 
HETATM   23  C12 UNL     1      11.872  38.133  29.291  1.00  0.00     0.025 C 
HETATM   24  C13 UNL     1      12.818  37.451  28.321  1.00  0.00     0.002 C 
HETATM   25  C14 UNL     1      14.268  37.649  28.706  1.00  0.00     0.000 C 
HETATM   26  C15 UNL     1      14.572  37.288  30.133  1.00  0.00     0.002 C 
HETATM   27  C16 UNL     1      13.444  37.670  31.072  1.00  0.00     0.025 C 
ENDBRANCH  20  22
ENDBRANCH   1  18
BRANCH   1  28
HETATM   28  N4  UNL     1      10.330  42.475  32.635  1.00  0.00    -0.379 N 
HETATM   29  C17 UNL     1      11.502  42.957  33.204  1.00  0.00     0.123 C 
HETATM   30  C18 UNL     1      11.146  43.697  34.503  1.00  0.00     0.020 C 
HETATM   31  C19 UNL     1       9.965  44.583  34.290  1.00  0.00     0.007 C 
HETATM   32  C20 UNL     1       9.561  44.777  32.856  1.00  0.00     0.044 C 
HETATM   33  C21 UNL     1       9.469  43.447  32.119  1.00  0.00     0.059 C 
ENDBRANCH   1  28
TORSDOF 11
ENDMDL
