MODEL 1
REMARK VINA RESULT: -6.366484589      0.000      0.000
REMARK  13 active torsions:
REMARK  status: ('A' for Active; 'I' for Inactive)
REMARK    1  A    between atoms: O1_1  and  C1_3 
REMARK    2  A    between atoms: C1_3  and  C2_4 
REMARK    3  A    between atoms: C3_5  and  O2_6 
REMARK    4  A    between atoms: C4_8  and  O3_9 
REMARK    5  A    between atoms: C5_11  and  O4_12 
REMARK    6  A    between atoms: N1_15  and  C7_16 
REMARK    7  A    between atoms: C7_16  and  C8_17 
REMARK    8  A    between atoms: C8_17  and  C9_18 
REMARK    9  A    between atoms: C9_18  and  C10_19 
REMARK   10  A    between atoms: C10_19  and  C11_20 
REMARK   11  A    between atoms: C11_20  and  C12_21 
REMARK   12  A    between atoms: C12_21  and  C13_22 
REMARK   13  A    between atoms: C13_22  and  C14_23 
ROOT
HETATM    1  C2  UNL     1      10.331  45.655  35.026  1.00  0.00     0.138 C 
HETATM    2  C3  UNL     1      11.446  46.339  34.331  1.00  0.00     0.174 C 
HETATM    3  C4  UNL     1      12.579  45.410  33.969  1.00  0.00     0.182 C 
HETATM    4  C5  UNL     1      12.106  44.065  33.522  1.00  0.00     0.187 C 
HETATM    5  C6  UNL     1      10.626  43.959  33.330  1.00  0.00     0.093 C 
HETATM    6  N1  UNL     1       9.793  44.572  34.255  1.00  0.00    -0.382 N 
ENDROOT
BRANCH   6   7
HETATM    7  C7  UNL     1       8.846  43.790  34.964  1.00  0.00     0.122 C 
BRANCH   7   8
HETATM    8  C8  UNL     1       8.877  42.320  34.717  1.00  0.00     0.020 C 
BRANCH   8   9
HETATM    9  C9  UNL     1       7.543  41.773  34.264  1.00  0.00     0.002 C 
BRANCH   9  10
HETATM   10  C10 UNL     1       7.769  40.548  33.362  1.00  0.00     0.000 C 
BRANCH  10  11
HETATM   11  C11 UNL     1       7.111  40.835  32.034  1.00  0.00     0.000 C 
BRANCH  11  12
HETATM   12  C12 UNL     1       8.032  40.479  30.907  1.00  0.00     0.005 C 
BRANCH  12  13
HETATM   13  C13 UNL     1       9.361  41.141  31.023  1.00  0.00     0.038 C 
BRANCH  13  14
HETATM   14  C14 UNL     1      10.469  40.181  30.715  1.00  0.00    -0.058 A 
HETATM   15  C15 UNL     1      10.623  39.703  29.436  1.00  0.00     0.008 A 
HETATM   16  C16 UNL     1      11.663  38.816  29.212  1.00  0.00     0.019 A 
HETATM   17  C17 UNL     1      12.493  38.454  30.268  1.00  0.00     0.011 A 
HETATM   18 BR1  UNL     1      13.930  37.239  29.981  1.00  0.00    -0.051 Br
HETATM   19  C18 UNL     1      12.325  38.945  31.546  1.00  0.00     0.019 A 
HETATM   20  C19 UNL     1      11.288  39.828  31.769  1.00  0.00     0.008 A 
ENDBRANCH  13  14
ENDBRANCH  12  13
ENDBRANCH  11  12
ENDBRANCH  10  11
ENDBRANCH   9  10
ENDBRANCH   8   9
ENDBRANCH   7   8
ENDBRANCH   6   7
BRANCH   1  21
HETATM   21  C1  UNL     1      10.625  45.267  36.452  1.00  0.00     0.192 C 
BRANCH  21  22
HETATM   22  O1  UNL     1      11.374  46.205  37.122  1.00  0.00    -0.399 OA
ATOM     23  H1  UNL     1      11.004  47.079  37.076  1.00  0.00     0.209 HD
ENDBRANCH  21  22
ENDBRANCH   1  21
BRANCH   2  24
HETATM   24  O2  UNL     1      10.953  46.868  33.131  1.00  0.00    -0.391 OA
ATOM     25  H2  UNL     1      11.474  46.518  32.417  1.00  0.00     0.210 HD
ENDBRANCH   2  24
BRANCH   4  26
HETATM   26  O4  UNL     1      12.649  43.050  34.310  1.00  0.00    -0.388 OA
ATOM     27  H4  UNL     1      13.588  42.979  34.182  1.00  0.00     0.210 HD
ENDBRANCH   4  26
BRANCH   3  28
HETATM   28  O3  UNL     1      13.392  45.275  35.114  1.00  0.00    -0.390 OA
ATOM     29  H3  UNL     1      13.106  45.929  35.741  1.00  0.00     0.210 HD
ENDBRANCH   3  28
TORSDOF 13
ENDMDL
MODEL 2
REMARK VINA RESULT: -5.879633858      4.125      5.768
REMARK  13 active torsions:
REMARK  status: ('A' for Active; 'I' for Inactive)
REMARK    1  A    between atoms: O1_1  and  C1_3 
REMARK    2  A    between atoms: C1_3  and  C2_4 
REMARK    3  A    between atoms: C3_5  and  O2_6 
REMARK    4  A    between atoms: C4_8  and  O3_9 
REMARK    5  A    between atoms: C5_11  and  O4_12 
REMARK    6  A    between atoms: N1_15  and  C7_16 
REMARK    7  A    between atoms: C7_16  and  C8_17 
REMARK    8  A    between atoms: C8_17  and  C9_18 
REMARK    9  A    between atoms: C9_18  and  C10_19 
REMARK   10  A    between atoms: C10_19  and  C11_20 
REMARK   11  A    between atoms: C11_20  and  C12_21 
REMARK   12  A    between atoms: C12_21  and  C13_22 
REMARK   13  A    between atoms: C13_22  and  C14_23 
ROOT
HETATM    1  C2  UNL     1      10.361  45.688  35.020  1.00  0.00     0.138 C 
HETATM    2  C3  UNL     1      11.481  46.351  34.313  1.00  0.00     0.174 C 
HETATM    3  C4  UNL     1      12.593  45.401  33.939  1.00  0.00     0.182 C 
HETATM    4  C5  UNL     1      12.090  44.065  33.498  1.00  0.00     0.187 C 
HETATM    5  C6  UNL     1      10.607  43.986  33.322  1.00  0.00     0.093 C 
HETATM    6  N1  UNL     1       9.796  44.614  34.256  1.00  0.00    -0.382 N 
ENDROOT
BRANCH   6   7
HETATM    7  C7  UNL     1       8.842  43.850  34.975  1.00  0.00     0.122 C 
BRANCH   7   8
HETATM    8  C8  UNL     1       8.873  42.375  34.763  1.00  0.00     0.020 C 
BRANCH   8   9
HETATM    9  C9  UNL     1       7.785  41.650  35.522  1.00  0.00     0.002 C 
BRANCH   9  10
HETATM   10  C10 UNL     1       7.384  40.378  34.756  1.00  0.00     0.000 C 
BRANCH  10  11
HETATM   11  C11 UNL     1       8.623  39.528  34.607  1.00  0.00     0.000 C 
BRANCH  11  12
HETATM   12  C12 UNL     1       8.430  38.201  35.277  1.00  0.00     0.005 C 
BRANCH  12  13
HETATM   13  C13 UNL     1       8.979  38.173  36.661  1.00  0.00     0.038 C 
BRANCH  13  14
HETATM   14  C14 UNL     1       7.898  38.406  37.673  1.00  0.00    -0.058 A 
HETATM   15  C15 UNL     1       6.743  37.663  37.622  1.00  0.00     0.008 A 
HETATM   16  C16 UNL     1       5.779  37.925  38.581  1.00  0.00     0.019 A 
HETATM   17  C17 UNL     1       6.014  38.906  39.538  1.00  0.00     0.011 A 
HETATM   18 BR1  UNL     1       4.703  39.280  40.867  1.00  0.00    -0.051 Br
HETATM   19  C18 UNL     1       7.180  39.643  39.576  1.00  0.00     0.019 A 
HETATM   20  C19 UNL     1       8.140  39.382  38.619  1.00  0.00     0.008 A 
ENDBRANCH  13  14
ENDBRANCH  12  13
ENDBRANCH  11  12
ENDBRANCH  10  11
ENDBRANCH   9  10
ENDBRANCH   8   9
ENDBRANCH   7   8
ENDBRANCH   6   7
BRANCH   1  21
HETATM   21  C1  UNL     1      10.664  45.294  36.443  1.00  0.00     0.192 C 
BRANCH  21  22
HETATM   22  O1  UNL     1      11.397  46.241  37.120  1.00  0.00    -0.399 OA
ATOM     23  H1  UNL     1      11.871  46.828  36.542  1.00  0.00     0.209 HD
ENDBRANCH  21  22
ENDBRANCH   1  21
BRANCH   2  24
HETATM   24  O2  UNL     1      10.985  46.888  33.118  1.00  0.00    -0.391 OA
ATOM     25  H2  UNL     1      10.252  47.455  33.330  1.00  0.00     0.210 HD
ENDBRANCH   2  24
BRANCH   4  26
HETATM   26  O4  UNL     1      12.624  43.040  34.280  1.00  0.00    -0.388 OA
ATOM     27  H4  UNL     1      13.564  42.970  34.163  1.00  0.00     0.210 HD
ENDBRANCH   4  26
BRANCH   3  28
HETATM   28  O3  UNL     1      13.415  45.251  35.075  1.00  0.00    -0.390 OA
ATOM     29  H3  UNL     1      13.197  44.416  35.473  1.00  0.00     0.210 HD
ENDBRANCH   3  28
TORSDOF 13
ENDMDL
MODEL 3
REMARK VINA RESULT: -5.806981290      3.641      5.469
REMARK  13 active torsions:
REMARK  status: ('A' for Active; 'I' for Inactive)
REMARK    1  A    between atoms: O1_1  and  C1_3 
REMARK    2  A    between atoms: C1_3  and  C2_4 
REMARK    3  A    between atoms: C3_5  and  O2_6 
REMARK    4  A    between atoms: C4_8  and  O3_9 
REMARK    5  A    between atoms: C5_11  and  O4_12 
REMARK    6  A    between atoms: N1_15  and  C7_16 
REMARK    7  A    between atoms: C7_16  and  C8_17 
REMARK    8  A    between atoms: C8_17  and  C9_18 
REMARK    9  A    between atoms: C9_18  and  C10_19 
REMARK   10  A    between atoms: C10_19  and  C11_20 
REMARK   11  A    between atoms: C11_20  and  C12_21 
REMARK   12  A    between atoms: C12_21  and  C13_22 
REMARK   13  A    between atoms: C13_22  and  C14_23 
ROOT
HETATM    1  C2  UNL     1      10.485  45.830  34.900  1.00  0.00     0.138 C 
HETATM    2  C3  UNL     1      11.705  46.401  34.283  1.00  0.00     0.174 C 
HETATM    3  C4  UNL     1      12.750  45.360  33.962  1.00  0.00     0.182 C 
HETATM    4  C5  UNL     1      12.161  44.083  33.457  1.00  0.00     0.187 C 
HETATM    5  C6  UNL     1      10.692  44.142  33.182  1.00  0.00     0.093 C 
HETATM    6  N1  UNL     1       9.879  44.825  34.075  1.00  0.00    -0.382 N 
ENDROOT
BRANCH   6   7
HETATM    7  C7  UNL     1       8.814  44.139  34.712  1.00  0.00     0.122 C 
BRANCH   7   8
HETATM    8  C8  UNL     1       8.830  42.651  34.618  1.00  0.00     0.020 C 
BRANCH   8   9
HETATM    9  C9  UNL     1       8.058  41.985  35.734  1.00  0.00     0.002 C 
BRANCH   9  10
HETATM   10  C10 UNL     1       7.271  43.048  36.520  1.00  0.00     0.000 C 
BRANCH  10  11
HETATM   11  C11 UNL     1       7.687  42.942  37.967  1.00  0.00     0.000 C 
BRANCH  11  12
HETATM   12  C12 UNL     1       6.553  42.430  38.802  1.00  0.00     0.005 C 
BRANCH  12  13
HETATM   13  C13 UNL     1       6.914  41.207  39.571  1.00  0.00     0.038 C 
BRANCH  13  14
HETATM   14  C14 UNL     1       7.044  40.020  38.664  1.00  0.00    -0.058 A 
HETATM   15  C15 UNL     1       8.243  39.356  38.576  1.00  0.00     0.008 A 
HETATM   16  C16 UNL     1       8.302  38.268  37.720  1.00  0.00     0.019 A 
HETATM   17  C17 UNL     1       7.170  37.900  37.001  1.00  0.00     0.011 A 
HETATM   18 BR1  UNL     1       7.230  36.407  35.821  1.00  0.00    -0.051 Br
HETATM   19  C18 UNL     1       5.973  38.578  37.103  1.00  0.00     0.019 A 
HETATM   20  C19 UNL     1       5.914  39.662  37.955  1.00  0.00     0.008 A 
ENDBRANCH  13  14
ENDBRANCH  12  13
ENDBRANCH  11  12
ENDBRANCH  10  11
ENDBRANCH   9  10
ENDBRANCH   8   9
ENDBRANCH   7   8
ENDBRANCH   6   7
BRANCH   1  21
HETATM   21  C1  UNL     1      10.654  45.386  36.330  1.00  0.00     0.192 C 
BRANCH  21  22
HETATM   22  O1  UNL     1      11.416  46.254  37.077  1.00  0.00    -0.399 OA
ATOM     23  H1  UNL     1      11.547  45.959  37.971  1.00  0.00     0.209 HD
ENDBRANCH  21  22
ENDBRANCH   1  21
BRANCH   2  24
HETATM   24  O2  UNL     1      11.342  47.002  33.071  1.00  0.00    -0.391 OA
ATOM     25  H2  UNL     1      12.072  46.918  32.469  1.00  0.00     0.210 HD
ENDBRANCH   2  24
BRANCH   4  26
HETATM   26  O4  UNL     1      12.547  43.001  34.249  1.00  0.00    -0.388 OA
ATOM     27  H4  UNL     1      11.851  42.743  34.842  1.00  0.00     0.210 HD
ENDBRANCH   4  26
BRANCH   3  28
HETATM   28  O3  UNL     1      13.477  45.117  35.146  1.00  0.00    -0.390 OA
ATOM     29  H3  UNL     1      14.382  45.352  34.975  1.00  0.00     0.210 HD
ENDBRANCH   3  28
TORSDOF 13
ENDMDL
MODEL 4
REMARK VINA RESULT: -5.767916036      1.967      3.253
REMARK  13 active torsions:
REMARK  status: ('A' for Active; 'I' for Inactive)
REMARK    1  A    between atoms: O1_1  and  C1_3 
REMARK    2  A    between atoms: C1_3  and  C2_4 
REMARK    3  A    between atoms: C3_5  and  O2_6 
REMARK    4  A    between atoms: C4_8  and  O3_9 
REMARK    5  A    between atoms: C5_11  and  O4_12 
REMARK    6  A    between atoms: N1_15  and  C7_16 
REMARK    7  A    between atoms: C7_16  and  C8_17 
REMARK    8  A    between atoms: C8_17  and  C9_18 
REMARK    9  A    between atoms: C9_18  and  C10_19 
REMARK   10  A    between atoms: C10_19  and  C11_20 
REMARK   11  A    between atoms: C11_20  and  C12_21 
REMARK   12  A    between atoms: C12_21  and  C13_22 
REMARK   13  A    between atoms: C13_22  and  C14_23 
ROOT
HETATM    1  C2  UNL     1      10.143  46.110  33.742  1.00  0.00     0.138 C 
HETATM    2  C3  UNL     1      10.370  45.676  35.140  1.00  0.00     0.174 C 
HETATM    3  C4  UNL     1      10.740  44.217  35.256  1.00  0.00     0.182 C 
HETATM    4  C5  UNL     1      11.638  43.757  34.154  1.00  0.00     0.187 C 
HETATM    5  C6  UNL     1      12.153  44.851  33.274  1.00  0.00     0.093 C 
HETATM    6  N1  UNL     1      11.284  45.869  32.907  1.00  0.00    -0.382 N 
ENDROOT
BRANCH   6   7
HETATM    7  C7  UNL     1      11.038  46.111  31.531  1.00  0.00     0.122 C 
BRANCH   7   8
HETATM    8  C8  UNL     1      12.013  45.527  30.567  1.00  0.00     0.020 C 
BRANCH   8   9
HETATM    9  C9  UNL     1      11.352  44.673  29.509  1.00  0.00     0.002 C 
BRANCH   9  10
HETATM   10  C10 UNL     1      11.190  43.236  30.035  1.00  0.00     0.000 C 
BRANCH  10  11
HETATM   11  C11 UNL     1       9.715  42.996  30.250  1.00  0.00     0.000 C 
BRANCH  11  12
HETATM   12  C12 UNL     1       9.329  41.635  29.756  1.00  0.00     0.005 C 
BRANCH  12  13
HETATM   13  C13 UNL     1       9.436  40.591  30.813  1.00  0.00     0.038 C 
BRANCH  13  14
HETATM   14  C14 UNL     1      10.657  39.745  30.612  1.00  0.00    -0.058 A 
HETATM   15  C15 UNL     1      11.463  39.444  31.683  1.00  0.00     0.008 A 
HETATM   16  C16 UNL     1      12.578  38.660  31.436  1.00  0.00     0.019 A 
HETATM   17  C17 UNL     1      12.831  38.219  30.142  1.00  0.00     0.011 A 
HETATM   18 BR1  UNL     1      14.358  37.140  29.781  1.00  0.00    -0.051 Br
HETATM   19  C18 UNL     1      12.011  38.531  29.077  1.00  0.00     0.019 A 
HETATM   20  C19 UNL     1      10.900  39.312  29.324  1.00  0.00     0.008 A 
ENDBRANCH  13  14
ENDBRANCH  12  13
ENDBRANCH  11  12
ENDBRANCH  10  11
ENDBRANCH   9  10
ENDBRANCH   8   9
ENDBRANCH   7   8
ENDBRANCH   6   7
BRANCH   1  21
HETATM   21  C1  UNL     1       8.858  45.614  33.132  1.00  0.00     0.192 C 
BRANCH  21  22
HETATM   22  O1  UNL     1       7.822  45.552  34.034  1.00  0.00    -0.399 OA
ATOM     23  H1  UNL     1       7.619  44.665  34.307  1.00  0.00     0.209 HD
ENDBRANCH  21  22
ENDBRANCH   1  21
BRANCH   2  24
HETATM   24  O2  UNL     1      11.445  46.411  35.657  1.00  0.00    -0.391 OA
ATOM     25  H2  UNL     1      11.629  46.091  36.532  1.00  0.00     0.210 HD
ENDBRANCH   2  24
BRANCH   4  26
HETATM   26  O4  UNL     1      11.077  42.686  33.458  1.00  0.00    -0.388 OA
ATOM     27  H4  UNL     1      11.726  42.018  33.271  1.00  0.00     0.210 HD
ENDBRANCH   4  26
BRANCH   3  28
HETATM   28  O3  UNL     1       9.538  43.478  35.234  1.00  0.00    -0.390 OA
ATOM     29  H3  UNL     1       9.591  42.876  34.500  1.00  0.00     0.210 HD
ENDBRANCH   3  28
TORSDOF 13
ENDMDL
MODEL 5
REMARK VINA RESULT: -5.749384248      1.915      3.074
REMARK  13 active torsions:
REMARK  status: ('A' for Active; 'I' for Inactive)
REMARK    1  A    between atoms: O1_1  and  C1_3 
REMARK    2  A    between atoms: C1_3  and  C2_4 
REMARK    3  A    between atoms: C3_5  and  O2_6 
REMARK    4  A    between atoms: C4_8  and  O3_9 
REMARK    5  A    between atoms: C5_11  and  O4_12 
REMARK    6  A    between atoms: N1_15  and  C7_16 
REMARK    7  A    between atoms: C7_16  and  C8_17 
REMARK    8  A    between atoms: C8_17  and  C9_18 
REMARK    9  A    between atoms: C9_18  and  C10_19 
REMARK   10  A    between atoms: C10_19  and  C11_20 
REMARK   11  A    between atoms: C11_20  and  C12_21 
REMARK   12  A    between atoms: C12_21  and  C13_22 
REMARK   13  A    between atoms: C13_22  and  C14_23 
ROOT
HETATM    1  C2  UNL     1      10.367  45.534  34.942  1.00  0.00     0.138 C 
HETATM    2  C3  UNL     1      11.451  46.283  34.263  1.00  0.00     0.174 C 
HETATM    3  C4  UNL     1      12.654  45.428  33.945  1.00  0.00     0.182 C 
HETATM    4  C5  UNL     1      12.286  44.047  33.510  1.00  0.00     0.187 C 
HETATM    5  C6  UNL     1      10.822  43.836  33.283  1.00  0.00     0.093 C 
HETATM    6  N1  UNL     1       9.926  44.404  34.177  1.00  0.00    -0.382 N 
ENDROOT
BRANCH   6   7
HETATM    7  C7  UNL     1       9.016  43.570  34.875  1.00  0.00     0.122 C 
BRANCH   7   8
HETATM    8  C8  UNL     1       7.567  43.872  34.701  1.00  0.00     0.020 C 
BRANCH   8   9
HETATM    9  C9  UNL     1       6.730  43.433  35.881  1.00  0.00     0.002 C 
BRANCH   9  10
HETATM   10  C10 UNL     1       7.580  42.554  36.815  1.00  0.00     0.000 C 
BRANCH  10  11
HETATM   11  C11 UNL     1       6.806  41.284  37.069  1.00  0.00     0.000 C 
BRANCH  11  12
HETATM   12  C12 UNL     1       7.501  40.113  36.442  1.00  0.00     0.005 C 
BRANCH  12  13
HETATM   13  C13 UNL     1       6.893  39.717  35.141  1.00  0.00     0.038 C 
BRANCH  13  14
HETATM   14  C14 UNL     1       7.791  40.077  33.996  1.00  0.00    -0.058 A 
HETATM   15  C15 UNL     1       7.256  40.619  32.853  1.00  0.00     0.008 A 
HETATM   16  C16 UNL     1       8.134  40.929  31.828  1.00  0.00     0.019 A 
HETATM   17  C17 UNL     1       9.493  40.686  31.995  1.00  0.00     0.011 A 
HETATM   18 BR1  UNL     1      10.718  41.107  30.599  1.00  0.00    -0.051 Br
HETATM   19  C18 UNL     1      10.015  40.142  33.150  1.00  0.00     0.019 A 
HETATM   20  C19 UNL     1       9.139  39.833  34.171  1.00  0.00     0.008 A 
ENDBRANCH  13  14
ENDBRANCH  12  13
ENDBRANCH  11  12
ENDBRANCH  10  11
ENDBRANCH   9  10
ENDBRANCH   8   9
ENDBRANCH   7   8
ENDBRANCH   6   7
BRANCH   1  21
HETATM   21  C1  UNL     1      10.651  45.189  36.381  1.00  0.00     0.192 C 
BRANCH  21  22
HETATM   22  O1  UNL     1      11.307  46.192  37.056  1.00  0.00    -0.399 OA
ATOM     23  H1  UNL     1      12.243  46.045  37.122  1.00  0.00     0.209 HD
ENDBRANCH  21  22
ENDBRANCH   1  21
BRANCH   2  24
HETATM   24  O2  UNL     1      10.954  46.757  33.042  1.00  0.00    -0.391 OA
ATOM     25  H2  UNL     1      10.258  46.175  32.759  1.00  0.00     0.210 HD
ENDBRANCH   2  24
BRANCH   4  26
HETATM   26  O4  UNL     1      12.877  43.084  34.328  1.00  0.00    -0.388 OA
ATOM     27  H4  UNL     1      13.580  42.632  33.877  1.00  0.00     0.210 HD
ENDBRANCH   4  26
BRANCH   3  28
HETATM   28  O3  UNL     1      13.444  45.367  35.112  1.00  0.00    -0.390 OA
ATOM     29  H3  UNL     1      13.293  44.518  35.510  1.00  0.00     0.210 HD
ENDBRANCH   3  28
TORSDOF 13
ENDMDL
