MODEL 1
REMARK VINA RESULT: -6.954096209      0.000      0.000
REMARK  11 active torsions:
REMARK  status: ('A' for Active; 'I' for Inactive)
REMARK    1  A    between atoms: C2_2  and  N2_6 
REMARK    2  A    between atoms: N2_6  and  C3_8 
REMARK    3  A    between atoms: C3_8  and  C4_9 
REMARK    4  A    between atoms: C4_9  and  C5_10 
REMARK    5  A    between atoms: C5_10  and  N3_11 
REMARK    6  A    between atoms: C7_16  and  N5_17 
REMARK    7  A    between atoms: N5_17  and  C8_19 
REMARK    8  A    between atoms: C8_19  and  C9_20 
REMARK    9  A    between atoms: C9_20  and  C10_21 
REMARK   10  A    between atoms: C10_21  and  N6_22 
REMARK   11  A    between atoms: N7_25  and  C13_26 
ROOT
HETATM    1  N3  UNL     1      11.627  40.960  32.471  1.00  0.00    -0.374 N 
ATOM      2  H3  UNL     1      12.574  41.316  32.343  1.00  0.00     0.161 HD
HETATM    3  C6  UNL     1      11.010  41.740  33.204  1.00  0.00     0.140 A 
HETATM    4  N4  UNL     1      11.676  42.850  33.665  1.00  0.00    -0.175 N 
ATOM      5  H4  UNL     1      12.647  42.995  33.392  1.00  0.00     0.186 HD
HETATM    6  C7  UNL     1      11.086  43.745  34.461  1.00  0.00     0.679 A 
HETATM    7  N8  UNL     1       9.799  43.587  34.844  1.00  0.00    -0.200 N 
ATOM      8  H8  UNL     1       9.360  44.278  35.451  1.00  0.00     0.183 HD
HETATM    9  C18 UNL     1       9.102  42.524  34.425  1.00  0.00     0.133 A 
HETATM   10  C19 UNL     1       9.711  41.591  33.598  1.00  0.00     0.094 A 
HETATM   11 CL1  UNL     1       8.723  40.214  33.087  1.00  0.00    -0.079 Cl
ENDROOT
BRANCH   6  12
HETATM   12  N5  UNL     1      11.820  44.750  34.829  1.00  0.00    -0.226 N 
ATOM     13  H5  UNL     1      12.782  44.578  35.119  1.00  0.00     0.177 HD
BRANCH  12  14
HETATM   14  C8  UNL     1      11.325  46.082  34.840  1.00  0.00     0.140 C 
BRANCH  14  15
HETATM   15  C9  UNL     1      11.467  46.728  33.483  1.00  0.00     0.050 C 
BRANCH  15  16
HETATM   16  C10 UNL     1      10.103  46.717  32.804  1.00  0.00     0.274 C 
BRANCH  16  17
HETATM   17  N6  UNL     1      10.082  45.835  31.646  1.00  0.00     0.091 N 
HETATM   18  C11 UNL     1       9.057  46.359  30.762  1.00  0.00     0.291 C 
HETATM   19  C12 UNL     1       9.669  46.880  29.486  1.00  0.00     0.147 C 
HETATM   20  N7  UNL     1      10.429  45.828  28.875  1.00  0.00    -0.406 N 
HETATM   21  C16 UNL     1      11.470  45.302  29.670  1.00  0.00     0.147 C 
HETATM   22  C17 UNL     1      11.405  45.909  31.057  1.00  0.00     0.291 C 
BRANCH  20  23
HETATM   23  C13 UNL     1      10.696  46.074  27.512  1.00  0.00     0.071 C 
HETATM   24  C14 UNL     1      10.659  47.565  27.182  1.00  0.00     0.031 C 
HETATM   25  C15 UNL     1      11.971  45.524  26.983  1.00  0.00     0.031 C 
ENDBRANCH  20  23
ENDBRANCH  16  17
ENDBRANCH  15  16
ENDBRANCH  14  15
ENDBRANCH  12  14
ENDBRANCH   6  12
BRANCH   1  26
HETATM   26  C5  UNL     1      11.502  39.781  31.763  1.00  0.00     0.123 C 
BRANCH  26  27
HETATM   27  C4  UNL     1      11.281  40.017  30.252  1.00  0.00     0.039 C 
BRANCH  27  28
HETATM   28  C3  UNL     1      11.275  38.649  29.572  1.00  0.00     0.122 C 
BRANCH  28  29
HETATM   29  N2  UNL     1      12.137  38.637  28.429  1.00  0.00    -0.380 N 
ATOM     30  H2  UNL     1      11.958  39.268  27.647  1.00  0.00     0.160 HD
BRANCH  29  31
HETATM   31  C2  UNL     1      13.231  37.753  28.386  1.00  0.00     0.066 C 
HETATM   32  C1  UNL     1      13.935  37.345  29.633  1.00  0.00     0.088 C 
HETATM   33  N1  UNL     1      13.622  37.297  27.247  1.00  0.00    -0.389 N 
ATOM     34  H12 UNL     1      14.415  36.656  27.216  1.00  0.00     0.157 HD
ATOM     35  H11 UNL     1      13.140  37.576  26.393  1.00  0.00     0.157 HD
ENDBRANCH  29  31
ENDBRANCH  28  29
ENDBRANCH  27  28
ENDBRANCH  26  27
ENDBRANCH   1  26
TORSDOF 11
ENDMDL
MODEL 2
REMARK VINA RESULT: -6.946556183      2.729      5.154
REMARK  11 active torsions:
REMARK  status: ('A' for Active; 'I' for Inactive)
REMARK    1  A    between atoms: C2_2  and  N2_6 
REMARK    2  A    between atoms: N2_6  and  C3_8 
REMARK    3  A    between atoms: C3_8  and  C4_9 
REMARK    4  A    between atoms: C4_9  and  C5_10 
REMARK    5  A    between atoms: C5_10  and  N3_11 
REMARK    6  A    between atoms: C7_16  and  N5_17 
REMARK    7  A    between atoms: N5_17  and  C8_19 
REMARK    8  A    between atoms: C8_19  and  C9_20 
REMARK    9  A    between atoms: C9_20  and  C10_21 
REMARK   10  A    between atoms: C10_21  and  N6_22 
REMARK   11  A    between atoms: N7_25  and  C13_26 
ROOT
HETATM    1  N3  UNL     1      11.655  40.459  32.373  1.00  0.00    -0.374 N 
ATOM      2  H3  UNL     1      12.190  40.208  33.205  1.00  0.00     0.161 HD
HETATM    3  C6  UNL     1      11.407  41.668  32.418  1.00  0.00     0.140 A 
HETATM    4  N4  UNL     1      11.867  42.380  33.499  1.00  0.00    -0.175 N 
ATOM      5  H4  UNL     1      12.393  41.894  34.225  1.00  0.00     0.186 HD
HETATM    6  C7  UNL     1      11.644  43.690  33.627  1.00  0.00     0.679 A 
HETATM    7  N8  UNL     1      10.951  44.368  32.686  1.00  0.00    -0.200 N 
ATOM      8  H8  UNL     1      10.787  45.368  32.795  1.00  0.00     0.183 HD
HETATM    9  C18 UNL     1      10.478  43.725  31.610  1.00  0.00     0.133 A 
HETATM   10  C19 UNL     1      10.707  42.364  31.473  1.00  0.00     0.094 A 
HETATM   11 CL1  UNL     1      10.051  41.588  30.024  1.00  0.00    -0.079 Cl
ENDROOT
BRANCH   6  12
HETATM   12  N5  UNL     1      12.130  44.248  34.693  1.00  0.00    -0.226 N 
ATOM     13  H5  UNL     1      12.887  43.782  35.193  1.00  0.00     0.177 HD
BRANCH  12  14
HETATM   14  C8  UNL     1      11.639  45.487  35.187  1.00  0.00     0.140 C 
BRANCH  14  15
HETATM   15  C9  UNL     1      10.578  45.273  36.239  1.00  0.00     0.050 C 
BRANCH  15  16
HETATM   16  C10 UNL     1       9.233  45.675  35.649  1.00  0.00     0.274 C 
BRANCH  16  17
HETATM   17  N6  UNL     1       8.206  44.676  35.910  1.00  0.00     0.091 N 
HETATM   18  C11 UNL     1       7.924  44.048  34.631  1.00  0.00     0.291 C 
HETATM   19  C12 UNL     1       8.354  42.603  34.642  1.00  0.00     0.147 C 
HETATM   20  N7  UNL     1       7.704  41.935  35.732  1.00  0.00    -0.406 N 
HETATM   21  C16 UNL     1       7.970  42.474  37.009  1.00  0.00     0.147 C 
HETATM   22  C17 UNL     1       8.780  43.747  36.864  1.00  0.00     0.291 C 
BRANCH  20  23
HETATM   23  C13 UNL     1       7.713  40.532  35.590  1.00  0.00     0.071 C 
HETATM   24  C14 UNL     1       8.698  40.072  34.517  1.00  0.00     0.031 C 
HETATM   25  C15 UNL     1       7.987  39.748  36.823  1.00  0.00     0.031 C 
ENDBRANCH  20  23
ENDBRANCH  16  17
ENDBRANCH  15  16
ENDBRANCH  14  15
ENDBRANCH  12  14
ENDBRANCH   6  12
BRANCH   1  26
HETATM   26  C5  UNL     1      11.474  39.324  31.609  1.00  0.00     0.123 C 
BRANCH  26  27
HETATM   27  C4  UNL     1      12.733  38.430  31.565  1.00  0.00     0.039 C 
BRANCH  27  28
HETATM   28  C3  UNL     1      12.927  37.985  30.116  1.00  0.00     0.122 C 
BRANCH  28  29
HETATM   29  N2  UNL     1      14.075  37.141  29.985  1.00  0.00    -0.380 N 
ATOM     30  H2  UNL     1      14.209  36.357  30.624  1.00  0.00     0.160 HD
BRANCH  29  31
HETATM   31  C2  UNL     1      15.020  37.394  28.972  1.00  0.00     0.066 C 
HETATM   32  C1  UNL     1      14.588  37.695  27.580  1.00  0.00     0.088 C 
HETATM   33  N1  UNL     1      16.274  37.362  29.264  1.00  0.00    -0.389 N 
ATOM     34  H12 UNL     1      16.958  37.546  28.531  1.00  0.00     0.157 HD
ATOM     35  H11 UNL     1      16.570  37.156  30.219  1.00  0.00     0.157 HD
ENDBRANCH  29  31
ENDBRANCH  28  29
ENDBRANCH  27  28
ENDBRANCH  26  27
ENDBRANCH   1  26
TORSDOF 11
ENDMDL
MODEL 3
REMARK VINA RESULT: -6.894278838      1.521      2.179
REMARK  11 active torsions:
REMARK  status: ('A' for Active; 'I' for Inactive)
REMARK    1  A    between atoms: C2_2  and  N2_6 
REMARK    2  A    between atoms: N2_6  and  C3_8 
REMARK    3  A    between atoms: C3_8  and  C4_9 
REMARK    4  A    between atoms: C4_9  and  C5_10 
REMARK    5  A    between atoms: C5_10  and  N3_11 
REMARK    6  A    between atoms: C7_16  and  N5_17 
REMARK    7  A    between atoms: N5_17  and  C8_19 
REMARK    8  A    between atoms: C8_19  and  C9_20 
REMARK    9  A    between atoms: C9_20  and  C10_21 
REMARK   10  A    between atoms: C10_21  and  N6_22 
REMARK   11  A    between atoms: N7_25  and  C13_26 
ROOT
HETATM    1  N3  UNL     1      11.381  39.636  30.420  1.00  0.00    -0.374 N 
ATOM      2  H3  UNL     1      12.377  39.596  30.638  1.00  0.00     0.161 HD
HETATM    3  C6  UNL     1      10.846  40.454  31.175  1.00  0.00     0.140 A 
HETATM    4  N4  UNL     1      11.642  41.098  32.092  1.00  0.00    -0.175 N 
ATOM      5  H4  UNL     1      12.639  40.883  32.121  1.00  0.00     0.186 HD
HETATM    6  C7  UNL     1      11.147  41.996  32.947  1.00  0.00     0.679 A 
HETATM    7  N8  UNL     1       9.832  42.306  32.938  1.00  0.00    -0.200 N 
ATOM      8  H8  UNL     1       9.466  42.994  33.595  1.00  0.00     0.183 HD
HETATM    9  C18 UNL     1       9.009  41.710  32.066  1.00  0.00     0.133 A 
HETATM   10  C19 UNL     1       9.519  40.775  31.176  1.00  0.00     0.094 A 
HETATM   11 CL1  UNL     1       8.368  40.032  30.056  1.00  0.00    -0.079 Cl
ENDROOT
BRANCH   6  12
HETATM   12  N5  UNL     1      12.000  42.534  33.763  1.00  0.00    -0.226 N 
ATOM     13  H5  UNL     1      12.836  42.009  34.020  1.00  0.00     0.177 HD
BRANCH  12  14
HETATM   14  C8  UNL     1      11.806  43.831  34.310  1.00  0.00     0.140 C 
BRANCH  14  15
HETATM   15  C9  UNL     1      12.383  44.896  33.407  1.00  0.00     0.050 C 
BRANCH  15  16
HETATM   16  C10 UNL     1      11.259  45.844  33.009  1.00  0.00     0.274 C 
BRANCH  16  17
HETATM   17  N6  UNL     1      10.706  45.513  31.703  1.00  0.00     0.091 N 
HETATM   18  C11 UNL     1      10.124  46.741  31.192  1.00  0.00     0.291 C 
HETATM   19  C12 UNL     1      10.880  47.224  29.980  1.00  0.00     0.147 C 
HETATM   20  N7  UNL     1      10.897  46.179  28.998  1.00  0.00    -0.406 N 
HETATM   21  C16 UNL     1      11.488  44.969  29.421  1.00  0.00     0.147 C 
HETATM   22  C17 UNL     1      11.822  45.057  30.897  1.00  0.00     0.291 C 
BRANCH  20  23
HETATM   23  C13 UNL     1      11.210  46.654  27.708  1.00  0.00     0.071 C 
HETATM   24  C14 UNL     1      12.021  45.638  26.906  1.00  0.00     0.031 C 
HETATM   25  C15 UNL     1      10.061  47.081  26.868  1.00  0.00     0.031 C 
ENDBRANCH  20  23
ENDBRANCH  16  17
ENDBRANCH  15  16
ENDBRANCH  14  15
ENDBRANCH  12  14
ENDBRANCH   6  12
BRANCH   1  26
HETATM   26  C5  UNL     1      11.123  38.757  29.387  1.00  0.00     0.123 C 
BRANCH  26  27
HETATM   27  C4  UNL     1      12.388  38.007  28.915  1.00  0.00     0.039 C 
BRANCH  27  28
HETATM   28  C3  UNL     1      13.287  37.813  30.136  1.00  0.00     0.122 C 
BRANCH  28  29
HETATM   29  N2  UNL     1      14.253  36.782  29.907  1.00  0.00    -0.380 N 
ATOM     30  H2  UNL     1      14.061  35.826  30.209  1.00  0.00     0.160 HD
BRANCH  29  31
HETATM   31  C2  UNL     1      15.467  37.088  29.265  1.00  0.00     0.066 C 
HETATM   32  C1  UNL     1      16.646  37.561  30.042  1.00  0.00     0.088 C 
HETATM   33  N1  UNL     1      15.550  36.955  27.987  1.00  0.00    -0.389 N 
ATOM     34  H12 UNL     1      16.430  37.177  27.521  1.00  0.00     0.157 HD
ATOM     35  H11 UNL     1      14.742  36.631  27.454  1.00  0.00     0.157 HD
ENDBRANCH  29  31
ENDBRANCH  28  29
ENDBRANCH  27  28
ENDBRANCH  26  27
ENDBRANCH   1  26
TORSDOF 11
ENDMDL
MODEL 4
REMARK VINA RESULT: -6.764792852      1.907      4.220
REMARK  11 active torsions:
REMARK  status: ('A' for Active; 'I' for Inactive)
REMARK    1  A    between atoms: C2_2  and  N2_6 
REMARK    2  A    between atoms: N2_6  and  C3_8 
REMARK    3  A    between atoms: C3_8  and  C4_9 
REMARK    4  A    between atoms: C4_9  and  C5_10 
REMARK    5  A    between atoms: C5_10  and  N3_11 
REMARK    6  A    between atoms: C7_16  and  N5_17 
REMARK    7  A    between atoms: N5_17  and  C8_19 
REMARK    8  A    between atoms: C8_19  and  C9_20 
REMARK    9  A    between atoms: C9_20  and  C10_21 
REMARK   10  A    between atoms: C10_21  and  N6_22 
REMARK   11  A    between atoms: N7_25  and  C13_26 
ROOT
HETATM    1  N3  UNL     1      11.368  41.032  30.753  1.00  0.00    -0.374 N 
ATOM      2  H3  UNL     1      12.322  41.393  30.717  1.00  0.00     0.161 HD
HETATM    3  C6  UNL     1      10.598  41.920  30.375  1.00  0.00     0.140 A 
HETATM    4  N4  UNL     1      11.141  43.129  30.009  1.00  0.00    -0.175 N 
ATOM      5  H4  UNL     1      12.152  43.254  30.061  1.00  0.00     0.186 HD
HETATM    6  C7  UNL     1      10.383  44.143  29.589  1.00  0.00     0.679 A 
HETATM    7  N8  UNL     1       9.040  44.014  29.507  1.00  0.00    -0.200 N 
ATOM      8  H8  UNL     1       8.472  44.797  29.184  1.00  0.00     0.183 HD
HETATM    9  C18 UNL     1       8.456  42.860  29.850  1.00  0.00     0.133 A 
HETATM   10  C19 UNL     1       9.240  41.802  30.288  1.00  0.00     0.094 A 
HETATM   11 CL1  UNL     1       8.394  40.310  30.723  1.00  0.00    -0.079 Cl
ENDROOT
BRANCH   6  12
HETATM   12  N5  UNL     1      11.014  45.232  29.273  1.00  0.00    -0.226 N 
ATOM     13  H5  UNL     1      12.026  45.198  29.147  1.00  0.00     0.177 HD
BRANCH  12  14
HETATM   14  C8  UNL     1      10.341  46.471  29.097  1.00  0.00     0.140 C 
BRANCH  14  15
HETATM   15  C9  UNL     1      10.587  47.396  30.265  1.00  0.00     0.050 C 
BRANCH  15  16
HETATM   16  C10 UNL     1       9.339  47.407  31.138  1.00  0.00     0.274 C 
BRANCH  16  17
HETATM   17  N6  UNL     1       9.645  47.092  32.526  1.00  0.00     0.091 N 
HETATM   18  C11 UNL     1       9.143  45.749  32.753  1.00  0.00     0.291 C 
HETATM   19  C12 UNL     1      10.280  44.792  33.009  1.00  0.00     0.147 C 
HETATM   20  N7  UNL     1      11.053  45.278  34.115  1.00  0.00    -0.406 N 
HETATM   21  C16 UNL     1      11.604  46.565  33.940  1.00  0.00     0.147 C 
HETATM   22  C17 UNL     1      11.088  47.167  32.647  1.00  0.00     0.291 C 
BRANCH  20  23
HETATM   23  C13 UNL     1      11.870  44.279  34.684  1.00  0.00     0.071 C 
HETATM   24  C14 UNL     1      11.855  42.991  33.864  1.00  0.00     0.031 C 
HETATM   25  C15 UNL     1      13.290  44.649  34.923  1.00  0.00     0.031 C 
ENDBRANCH  20  23
ENDBRANCH  16  17
ENDBRANCH  15  16
ENDBRANCH  14  15
ENDBRANCH  12  14
ENDBRANCH   6  12
BRANCH   1  26
HETATM   26  C5  UNL     1      11.409  39.728  31.205  1.00  0.00     0.123 C 
BRANCH  26  27
HETATM   27  C4  UNL     1      12.067  38.767  30.190  1.00  0.00     0.039 C 
BRANCH  27  28
HETATM   28  C3  UNL     1      13.211  38.054  30.909  1.00  0.00     0.122 C 
BRANCH  28  29
HETATM   29  N2  UNL     1      13.795  37.046  30.078  1.00  0.00    -0.380 N 
ATOM     30  H2  UNL     1      13.448  36.087  30.118  1.00  0.00     0.160 HD
BRANCH  29  31
HETATM   31  C2  UNL     1      14.848  37.379  29.206  1.00  0.00     0.066 C 
HETATM   32  C1  UNL     1      14.594  37.633  27.762  1.00  0.00     0.088 C 
HETATM   33  N1  UNL     1      16.045  37.461  29.673  1.00  0.00    -0.389 N 
ATOM     34  H12 UNL     1      16.808  37.703  29.041  1.00  0.00     0.157 HD
ATOM     35  H11 UNL     1      16.219  37.287  30.663  1.00  0.00     0.157 HD
ENDBRANCH  29  31
ENDBRANCH  28  29
ENDBRANCH  27  28
ENDBRANCH  26  27
ENDBRANCH   1  26
TORSDOF 11
ENDMDL
MODEL 5
REMARK VINA RESULT: -6.723556242      2.802      5.474
REMARK  11 active torsions:
REMARK  status: ('A' for Active; 'I' for Inactive)
REMARK    1  A    between atoms: C2_2  and  N2_6 
REMARK    2  A    between atoms: N2_6  and  C3_8 
REMARK    3  A    between atoms: C3_8  and  C4_9 
REMARK    4  A    between atoms: C4_9  and  C5_10 
REMARK    5  A    between atoms: C5_10  and  N3_11 
REMARK    6  A    between atoms: C7_16  and  N5_17 
REMARK    7  A    between atoms: N5_17  and  C8_19 
REMARK    8  A    between atoms: C8_19  and  C9_20 
REMARK    9  A    between atoms: C9_20  and  C10_21 
REMARK   10  A    between atoms: C10_21  and  N6_22 
REMARK   11  A    between atoms: N7_25  and  C13_26 
ROOT
HETATM    1  N3  UNL     1      11.846  40.122  32.142  1.00  0.00    -0.374 N 
ATOM      2  H3  UNL     1      12.411  39.944  32.973  1.00  0.00     0.161 HD
HETATM    3  C6  UNL     1      11.378  41.262  32.224  1.00  0.00     0.140 A 
HETATM    4  N4  UNL     1      11.689  42.007  33.336  1.00  0.00    -0.175 N 
ATOM      5  H4  UNL     1      12.290  41.600  34.052  1.00  0.00     0.186 HD
HETATM    6  C7  UNL     1      11.227  43.247  33.505  1.00  0.00     0.679 A 
HETATM    7  N8  UNL     1      10.428  43.819  32.577  1.00  0.00    -0.200 N 
ATOM      8  H8  UNL     1      10.082  44.768  32.717  1.00  0.00     0.183 HD
HETATM    9  C18 UNL     1      10.091  43.140  31.473  1.00  0.00     0.133 A 
HETATM   10  C19 UNL     1      10.570  41.850  31.293  1.00  0.00     0.094 A 
HETATM   11 CL1  UNL     1      10.080  41.020  29.809  1.00  0.00    -0.079 Cl
ENDROOT
BRANCH   6  12
HETATM   12  N5  UNL     1      11.592  43.847  34.596  1.00  0.00    -0.226 N 
ATOM     13  H5  UNL     1      12.400  43.492  35.108  1.00  0.00     0.177 HD
BRANCH  12  14
HETATM   14  C8  UNL     1      10.902  44.981  35.102  1.00  0.00     0.140 C 
BRANCH  14  15
HETATM   15  C9  UNL     1       9.890  44.582  36.149  1.00  0.00     0.050 C 
BRANCH  15  16
HETATM   16  C10 UNL     1       8.497  44.761  35.560  1.00  0.00     0.274 C 
BRANCH  16  17
HETATM   17  N6  UNL     1       7.647  43.607  35.817  1.00  0.00     0.091 N 
HETATM   18  C11 UNL     1       7.641  42.832  34.589  1.00  0.00     0.291 C 
HETATM   19  C12 UNL     1       8.325  41.504  34.795  1.00  0.00     0.147 C 
HETATM   20  N7  UNL     1       7.682  40.815  35.877  1.00  0.00    -0.406 N 
HETATM   21  C16 UNL     1       7.689  41.499  37.111  1.00  0.00     0.147 C 
HETATM   22  C17 UNL     1       8.263  42.889  36.917  1.00  0.00     0.291 C 
BRANCH  20  23
HETATM   23  C13 UNL     1       7.965  39.434  35.883  1.00  0.00     0.071 C 
HETATM   24  C14 UNL     1       6.696  38.589  35.793  1.00  0.00     0.031 C 
HETATM   25  C15 UNL     1       8.907  38.951  34.840  1.00  0.00     0.031 C 
ENDBRANCH  20  23
ENDBRANCH  16  17
ENDBRANCH  15  16
ENDBRANCH  14  15
ENDBRANCH  12  14
ENDBRANCH   6  12
BRANCH   1  26
HETATM   26  C5  UNL     1      11.884  39.001  31.337  1.00  0.00     0.123 C 
BRANCH  26  27
HETATM   27  C4  UNL     1      12.930  37.967  31.809  1.00  0.00     0.039 C 
BRANCH  27  28
HETATM   28  C3  UNL     1      13.940  37.788  30.676  1.00  0.00     0.122 C 
BRANCH  28  29
HETATM   29  N2  UNL     1      13.309  37.911  29.398  1.00  0.00    -0.380 N 
ATOM     30  H2  UNL     1      12.358  38.274  29.330  1.00  0.00     0.160 HD
BRANCH  29  31
HETATM   31  C2  UNL     1      14.003  37.531  28.234  1.00  0.00     0.066 C 
HETATM   32  C1  UNL     1      15.487  37.408  28.233  1.00  0.00     0.088 C 
HETATM   33  N1  UNL     1      13.337  37.289  27.159  1.00  0.00    -0.389 N 
ATOM     34  H12 UNL     1      13.840  37.013  26.315  1.00  0.00     0.157 HD
ATOM     35  H11 UNL     1      12.320  37.373  27.159  1.00  0.00     0.157 HD
ENDBRANCH  29  31
ENDBRANCH  28  29
ENDBRANCH  27  28
ENDBRANCH  26  27
ENDBRANCH   1  26
TORSDOF 11
ENDMDL
