MODEL 1
REMARK VINA RESULT: -7.101804941      0.000      0.000
REMARK  10 active torsions:
REMARK  status: ('A' for Active; 'I' for Inactive)
REMARK    1  A    between atoms: C2_2  and  C4_4 
REMARK    2  A    between atoms: C4_4  and  C5_5 
REMARK    3  A    between atoms: C5_5  and  N1_6 
REMARK    4  A    between atoms: C5_5  and  C14_22 
REMARK       I    between atoms: N1_6  and  C6_8 
REMARK    5  A    between atoms: C6_8  and  C7_10 
REMARK    6  A    between atoms: C7_10  and  N2_11 
REMARK    7  A    between atoms: C7_10  and  C11_19 
REMARK       I    between atoms: N2_11  and  C8_13 
REMARK    8  A    between atoms: C8_13  and  C9_15 
REMARK    9  A    between atoms: C9_15  and  C10_16 
REMARK   10  A    between atoms: C10_16  and  O3_17 
REMARK       I    between atoms: C14_22  and  N3_24 
ROOT
HETATM    1  C5  UNL     1       9.205  41.665  32.138  1.00  0.00     0.177 C 
ENDROOT
BRANCH   1   2
HETATM    2  C4  UNL     1       8.677  41.329  33.480  1.00  0.00     0.038 C 
BRANCH   2   3
HETATM    3  C2  UNL     1       7.945  40.060  33.666  1.00  0.00    -0.020 C 
HETATM    4  C1  UNL     1       8.791  39.237  34.671  1.00  0.00     0.009 C 
HETATM    5  C3  UNL     1       6.582  40.192  34.262  1.00  0.00     0.009 C 
ENDBRANCH   2   3
ENDBRANCH   1   2
BRANCH   1   6
HETATM    6  N1  UNL     1      10.256  42.666  32.204  1.00  0.00    -0.346 N 
HETATM    7  C6  UNL     1      10.100  44.047  31.932  1.00  0.00     0.241 C 
HETATM    8  O1  UNL     1       8.918  44.386  31.605  1.00  0.00    -0.271 OA
ATOM      9  H1  UNL     1      11.188  42.346  32.469  1.00  0.00     0.163 HD
BRANCH   7  10
HETATM   10  C7  UNL     1      11.125  45.066  31.992  1.00  0.00     0.180 C 
BRANCH  10  11
HETATM   11  N2  UNL     1      12.087  44.708  33.048  1.00  0.00    -0.347 N 
HETATM   12  C8  UNL     1      12.225  45.391  34.242  1.00  0.00     0.220 C 
HETATM   13  O2  UNL     1      11.514  46.383  34.493  1.00  0.00    -0.274 OA
ATOM     14  H2  UNL     1      12.691  43.903  32.887  1.00  0.00     0.163 HD
BRANCH  12  15
HETATM   15  C9  UNL     1      13.217  44.960  35.242  1.00  0.00     0.128 C 
BRANCH  15  16
HETATM   16  C10 UNL     1      14.498  44.506  34.573  1.00  0.00     0.173 C 
BRANCH  16  17
HETATM   17  O3  UNL     1      14.488  43.098  34.544  1.00  0.00    -0.400 OA
ATOM     18  H3  UNL     1      14.769  42.790  35.398  1.00  0.00     0.209 HD
ENDBRANCH  16  17
ENDBRANCH  15  16
ENDBRANCH  12  15
ENDBRANCH  10  11
BRANCH  10  19
HETATM   19  C11 UNL     1      11.926  45.313  30.772  1.00  0.00     0.009 C 
HETATM   20  C12 UNL     1      11.572  46.727  30.283  1.00  0.00     0.012 C 
HETATM   21  C13 UNL     1      11.731  44.408  29.617  1.00  0.00     0.012 C 
ENDBRANCH  10  19
ENDBRANCH   7  10
ENDBRANCH   1   6
BRANCH   1  22
HETATM   22  C14 UNL     1       9.570  40.554  31.249  1.00  0.00     0.246 C 
HETATM   23  O4  UNL     1       8.789  40.243  30.270  1.00  0.00    -0.271 OA
HETATM   24  N3  UNL     1      10.715  39.767  31.356  1.00  0.00    -0.304 N 
HETATM   25  C15 UNL     1      11.416  39.285  30.374  1.00  0.00     0.168 A 
ATOM     26  H3  UNL     1      11.035  39.547  32.299  1.00  0.00     0.171 HD
HETATM   27  N4  UNL     1      11.286  39.375  29.052  1.00  0.00    -0.278 N 
HETATM   28  S1  UNL     1      12.839  38.293  30.488  1.00  0.00    -0.021 SA
HETATM   29  N5  UNL     1      12.128  38.789  28.302  1.00  0.00    -0.282 N 
ATOM     30  H4  UNL     1      10.518  39.909  28.644  1.00  0.00     0.189 HD
HETATM   31  C16 UNL     1      13.124  38.094  28.819  1.00  0.00     0.163 A 
ATOM     32  H5  UNL     1      12.033  38.856  27.288  1.00  0.00     0.188 HD
HETATM   33 CL1  UNL     1      14.382  37.217  27.938  1.00  0.00    -0.055 Cl
ENDBRANCH   1  22
TORSDOF 10
ENDMDL
MODEL 2
REMARK VINA RESULT: -6.901154716      3.671      5.645
REMARK  10 active torsions:
REMARK  status: ('A' for Active; 'I' for Inactive)
REMARK    1  A    between atoms: C2_2  and  C4_4 
REMARK    2  A    between atoms: C4_4  and  C5_5 
REMARK    3  A    between atoms: C5_5  and  N1_6 
REMARK    4  A    between atoms: C5_5  and  C14_22 
REMARK       I    between atoms: N1_6  and  C6_8 
REMARK    5  A    between atoms: C6_8  and  C7_10 
REMARK    6  A    between atoms: C7_10  and  N2_11 
REMARK    7  A    between atoms: C7_10  and  C11_19 
REMARK       I    between atoms: N2_11  and  C8_13 
REMARK    8  A    between atoms: C8_13  and  C9_15 
REMARK    9  A    between atoms: C9_15  and  C10_16 
REMARK   10  A    between atoms: C10_16  and  O3_17 
REMARK       I    between atoms: C14_22  and  N3_24 
ROOT
HETATM    1  C5  UNL     1       8.670  41.174  33.172  1.00  0.00     0.177 C 
ENDROOT
BRANCH   1   2
HETATM    2  C4  UNL     1       7.600  40.482  32.417  1.00  0.00     0.038 C 
BRANCH   2   3
HETATM    3  C2  UNL     1       6.852  41.229  31.386  1.00  0.00    -0.020 C 
HETATM    4  C1  UNL     1       7.245  40.576  30.036  1.00  0.00     0.009 C 
HETATM    5  C3  UNL     1       5.365  41.139  31.487  1.00  0.00     0.009 C 
ENDBRANCH   2   3
ENDBRANCH   1   2
BRANCH   1   6
HETATM    6  N1  UNL     1       8.479  41.064  34.608  1.00  0.00    -0.346 N 
HETATM    7  C6  UNL     1       7.543  41.801  35.375  1.00  0.00     0.241 C 
HETATM    8  O1  UNL     1       6.837  42.615  34.699  1.00  0.00    -0.271 OA
ATOM      9  H1  UNL     1       9.069  40.399  35.107  1.00  0.00     0.163 HD
BRANCH   7  10
HETATM   10  C7  UNL     1       7.329  41.712  36.803  1.00  0.00     0.180 C 
BRANCH  10  11
HETATM   11  N2  UNL     1       7.983  40.492  37.305  1.00  0.00    -0.347 N 
HETATM   12  C8  UNL     1       7.425  39.229  37.256  1.00  0.00     0.220 C 
HETATM   13  O2  UNL     1       6.292  39.054  36.765  1.00  0.00    -0.274 OA
ATOM     14  H2  UNL     1       8.911  40.586  37.716  1.00  0.00     0.163 HD
BRANCH  12  15
HETATM   15  C9  UNL     1       8.155  38.064  37.784  1.00  0.00     0.128 C 
BRANCH  15  16
HETATM   16  C10 UNL     1       8.874  37.327  36.673  1.00  0.00     0.173 C 
BRANCH  16  17
HETATM   17  O3  UNL     1       9.297  38.286  35.731  1.00  0.00    -0.400 OA
ATOM     18  H3  UNL     1       8.704  38.242  34.990  1.00  0.00     0.209 HD
ENDBRANCH  16  17
ENDBRANCH  15  16
ENDBRANCH  12  15
ENDBRANCH  10  11
BRANCH  10  19
HETATM   19  C11 UNL     1       7.823  42.822  37.647  1.00  0.00     0.009 C 
HETATM   20  C12 UNL     1       6.611  43.708  37.976  1.00  0.00     0.012 C 
HETATM   21  C13 UNL     1       8.858  43.718  37.082  1.00  0.00     0.012 C 
ENDBRANCH  10  19
ENDBRANCH   7  10
ENDBRANCH   1   6
BRANCH   1  22
HETATM   22  C14 UNL     1      10.063  40.902  32.788  1.00  0.00     0.246 C 
HETATM   23  O4  UNL     1      11.016  41.223  33.595  1.00  0.00    -0.271 OA
HETATM   24  N3  UNL     1      10.479  40.311  31.596  1.00  0.00    -0.304 N 
HETATM   25  C15 UNL     1      11.473  39.487  31.448  1.00  0.00     0.168 A 
ATOM     26  H3  UNL     1       9.951  40.549  30.757  1.00  0.00     0.171 HD
HETATM   27  N4  UNL     1      12.349  38.976  32.311  1.00  0.00    -0.278 N 
HETATM   28  S1  UNL     1      12.013  38.750  29.970  1.00  0.00    -0.021 SA
HETATM   29  N5  UNL     1      13.245  38.179  31.890  1.00  0.00    -0.282 N 
ATOM     30  H4  UNL     1      12.302  39.222  33.300  1.00  0.00     0.189 HD
HETATM   31  C16 UNL     1      13.315  37.856  30.612  1.00  0.00     0.163 A 
ATOM     32  H5  UNL     1      13.918  37.784  32.548  1.00  0.00     0.188 HD
HETATM   33 CL1  UNL     1      14.486  36.772  29.850  1.00  0.00    -0.055 Cl
ENDBRANCH   1  22
TORSDOF 10
ENDMDL
MODEL 3
REMARK VINA RESULT: -6.856161540      4.248      7.282
REMARK  10 active torsions:
REMARK  status: ('A' for Active; 'I' for Inactive)
REMARK    1  A    between atoms: C2_2  and  C4_4 
REMARK    2  A    between atoms: C4_4  and  C5_5 
REMARK    3  A    between atoms: C5_5  and  N1_6 
REMARK    4  A    between atoms: C5_5  and  C14_22 
REMARK       I    between atoms: N1_6  and  C6_8 
REMARK    5  A    between atoms: C6_8  and  C7_10 
REMARK    6  A    between atoms: C7_10  and  N2_11 
REMARK    7  A    between atoms: C7_10  and  C11_19 
REMARK       I    between atoms: N2_11  and  C8_13 
REMARK    8  A    between atoms: C8_13  and  C9_15 
REMARK    9  A    between atoms: C9_15  and  C10_16 
REMARK   10  A    between atoms: C10_16  and  O3_17 
REMARK       I    between atoms: C14_22  and  N3_24 
ROOT
HETATM    1  C5  UNL     1      10.990  43.035  33.050  1.00  0.00     0.177 C 
ENDROOT
BRANCH   1   2
HETATM    2  C4  UNL     1      12.177  43.125  33.931  1.00  0.00     0.038 C 
BRANCH   2   3
HETATM    3  C2  UNL     1      13.030  44.328  33.863  1.00  0.00    -0.020 C 
HETATM    4  C1  UNL     1      12.276  45.418  34.667  1.00  0.00     0.009 C 
HETATM    5  C3  UNL     1      14.378  44.190  34.492  1.00  0.00     0.009 C 
ENDBRANCH   2   3
ENDBRANCH   1   2
BRANCH   1   6
HETATM    6  N1  UNL     1      10.968  41.792  32.296  1.00  0.00    -0.346 N 
HETATM    7  C6  UNL     1      10.872  41.682  30.888  1.00  0.00     0.241 C 
HETATM    8  O1  UNL     1      10.799  42.797  30.279  1.00  0.00    -0.271 OA
ATOM      9  H1  UNL     1      11.028  40.924  32.828  1.00  0.00     0.163 HD
BRANCH   7  10
HETATM   10  C7  UNL     1      10.850  40.462  30.112  1.00  0.00     0.180 C 
BRANCH  10  11
HETATM   11  N2  UNL     1      11.733  39.475  30.755  1.00  0.00    -0.347 N 
HETATM   12  C8  UNL     1      12.567  38.610  30.072  1.00  0.00     0.220 C 
HETATM   13  O2  UNL     1      12.613  38.623  28.827  1.00  0.00    -0.274 OA
ATOM     14  H2  UNL     1      11.729  39.427  31.774  1.00  0.00     0.163 HD
BRANCH  12  15
HETATM   15  C9  UNL     1      13.417  37.655  30.802  1.00  0.00     0.128 C 
BRANCH  15  16
HETATM   16  C10 UNL     1      14.643  37.291  29.989  1.00  0.00     0.173 C 
BRANCH  16  17
HETATM   17  O3  UNL     1      15.751  37.927  30.583  1.00  0.00    -0.400 OA
ATOM     18  H3  UNL     1      16.440  37.277  30.676  1.00  0.00     0.209 HD
ENDBRANCH  16  17
ENDBRANCH  15  16
ENDBRANCH  12  15
ENDBRANCH  10  11
BRANCH  10  19
HETATM   19  C11 UNL     1       9.547  39.786  29.921  1.00  0.00     0.009 C 
HETATM   20  C12 UNL     1       9.303  39.703  28.406  1.00  0.00     0.012 C 
HETATM   21  C13 UNL     1       8.343  40.419  30.506  1.00  0.00     0.012 C 
ENDBRANCH  10  19
ENDBRANCH   7  10
ENDBRANCH   1   6
BRANCH   1  22
HETATM   22  C14 UNL     1       9.678  43.336  33.637  1.00  0.00     0.246 C 
HETATM   23  O4  UNL     1       8.747  43.828  32.892  1.00  0.00    -0.271 OA
HETATM   24  N3  UNL     1       9.317  43.140  34.969  1.00  0.00    -0.304 N 
HETATM   25  C15 UNL     1       8.156  42.753  35.407  1.00  0.00     0.168 A 
ATOM     26  H3  UNL     1      10.036  43.318  35.670  1.00  0.00     0.171 HD
HETATM   27  N4  UNL     1       7.022  42.442  34.782  1.00  0.00    -0.278 N 
HETATM   28  S1  UNL     1       7.685  42.516  37.062  1.00  0.00    -0.021 SA
HETATM   29  N5  UNL     1       6.010  42.093  35.467  1.00  0.00    -0.282 N 
ATOM     30  H4  UNL     1       6.965  42.483  33.765  1.00  0.00     0.189 HD
HETATM   31  C16 UNL     1       6.072  42.037  36.784  1.00  0.00     0.163 A 
ATOM     32  H5  UNL     1       5.139  41.852  34.993  1.00  0.00     0.188 HD
HETATM   33 CL1  UNL     1       4.775  41.578  37.894  1.00  0.00    -0.055 Cl
ENDBRANCH   1  22
TORSDOF 10
ENDMDL
MODEL 4
REMARK VINA RESULT: -6.850071273      4.256      5.297
REMARK  10 active torsions:
REMARK  status: ('A' for Active; 'I' for Inactive)
REMARK    1  A    between atoms: C2_2  and  C4_4 
REMARK    2  A    between atoms: C4_4  and  C5_5 
REMARK    3  A    between atoms: C5_5  and  N1_6 
REMARK    4  A    between atoms: C5_5  and  C14_22 
REMARK       I    between atoms: N1_6  and  C6_8 
REMARK    5  A    between atoms: C6_8  and  C7_10 
REMARK    6  A    between atoms: C7_10  and  N2_11 
REMARK    7  A    between atoms: C7_10  and  C11_19 
REMARK       I    between atoms: N2_11  and  C8_13 
REMARK    8  A    between atoms: C8_13  and  C9_15 
REMARK    9  A    between atoms: C9_15  and  C10_16 
REMARK   10  A    between atoms: C10_16  and  O3_17 
REMARK       I    between atoms: C14_22  and  N3_24 
ROOT
HETATM    1  C5  UNL     1       8.167  40.820  34.982  1.00  0.00     0.177 C 
ENDROOT
BRANCH   1   2
HETATM    2  C4  UNL     1       7.732  41.352  36.293  1.00  0.00     0.038 C 
BRANCH   2   3
HETATM    3  C2  UNL     1       7.503  42.804  36.437  1.00  0.00    -0.020 C 
HETATM    4  C1  UNL     1       6.230  42.938  37.311  1.00  0.00     0.009 C 
HETATM    5  C3  UNL     1       8.587  43.553  37.142  1.00  0.00     0.009 C 
ENDBRANCH   2   3
ENDBRANCH   1   2
BRANCH   1   6
HETATM    6  N1  UNL     1       9.306  41.550  34.451  1.00  0.00    -0.346 N 
HETATM    7  C6  UNL     1       9.323  42.290  33.244  1.00  0.00     0.241 C 
HETATM    8  O1  UNL     1       8.221  42.280  32.607  1.00  0.00    -0.271 OA
ATOM      9  H1  UNL     1      10.168  41.528  34.996  1.00  0.00     0.163 HD
BRANCH   7  10
HETATM   10  C7  UNL     1      10.438  43.028  32.692  1.00  0.00     0.180 C 
BRANCH  10  11
HETATM   11  N2  UNL     1      11.370  43.361  33.782  1.00  0.00    -0.347 N 
HETATM   12  C8  UNL     1      11.964  44.598  33.952  1.00  0.00     0.220 C 
HETATM   13  O2  UNL     1      11.731  45.529  33.156  1.00  0.00    -0.274 OA
ATOM     14  H2  UNL     1      11.593  42.630  34.457  1.00  0.00     0.163 HD
BRANCH  12  15
HETATM   15  C9  UNL     1      12.886  44.840  35.074  1.00  0.00     0.128 C 
BRANCH  15  16
HETATM   16  C10 UNL     1      14.312  44.511  34.684  1.00  0.00     0.173 C 
BRANCH  16  17
HETATM   17  O3  UNL     1      14.416  43.109  34.591  1.00  0.00    -0.400 OA
ATOM     18  H3  UNL     1      15.188  42.912  34.074  1.00  0.00     0.209 HD
ENDBRANCH  16  17
ENDBRANCH  15  16
ENDBRANCH  12  15
ENDBRANCH  10  11
BRANCH  10  19
HETATM   19  C11 UNL     1      11.249  42.373  31.642  1.00  0.00     0.009 C 
HETATM   20  C12 UNL     1      10.853  43.016  30.303  1.00  0.00     0.012 C 
HETATM   21  C13 UNL     1      11.107  40.910  31.465  1.00  0.00     0.012 C 
ENDBRANCH  10  19
ENDBRANCH   7  10
ENDBRANCH   1   6
BRANCH   1  22
HETATM   22  C14 UNL     1       8.351  39.367  34.861  1.00  0.00     0.246 C 
HETATM   23  O4  UNL     1       9.545  38.883  34.794  1.00  0.00    -0.271 OA
HETATM   24  N3  UNL     1       7.331  38.418  34.806  1.00  0.00    -0.304 N 
HETATM   25  C15 UNL     1       7.351  37.231  35.334  1.00  0.00     0.168 A 
ATOM     26  H3  UNL     1       6.485  38.683  34.301  1.00  0.00     0.171 HD
HETATM   27  N4  UNL     1       8.272  36.581  36.042  1.00  0.00    -0.278 N 
HETATM   28  S1  UNL     1       6.095  36.032  35.265  1.00  0.00    -0.021 SA
HETATM   29  N5  UNL     1       8.032  35.398  36.440  1.00  0.00    -0.282 N 
ATOM     30  H4  UNL     1       9.163  37.027  36.263  1.00  0.00     0.189 HD
HETATM   31  C16 UNL     1       6.884  34.812  36.158  1.00  0.00     0.163 A 
ATOM     32  H5  UNL     1       8.734  34.897  36.985  1.00  0.00     0.188 HD
HETATM   33 CL1  UNL     1       6.377  33.183  36.623  1.00  0.00    -0.055 Cl
ENDBRANCH   1  22
TORSDOF 10
ENDMDL
MODEL 5
REMARK VINA RESULT: -6.804398251      3.982      6.635
REMARK  10 active torsions:
REMARK  status: ('A' for Active; 'I' for Inactive)
REMARK    1  A    between atoms: C2_2  and  C4_4 
REMARK    2  A    between atoms: C4_4  and  C5_5 
REMARK    3  A    between atoms: C5_5  and  N1_6 
REMARK    4  A    between atoms: C5_5  and  C14_22 
REMARK       I    between atoms: N1_6  and  C6_8 
REMARK    5  A    between atoms: C6_8  and  C7_10 
REMARK    6  A    between atoms: C7_10  and  N2_11 
REMARK    7  A    between atoms: C7_10  and  C11_19 
REMARK       I    between atoms: N2_11  and  C8_13 
REMARK    8  A    between atoms: C8_13  and  C9_15 
REMARK    9  A    between atoms: C9_15  and  C10_16 
REMARK   10  A    between atoms: C10_16  and  O3_17 
REMARK       I    between atoms: C14_22  and  N3_24 
ROOT
HETATM    1  C5  UNL     1       8.660  41.061  33.348  1.00  0.00     0.177 C 
ENDROOT
BRANCH   1   2
HETATM    2  C4  UNL     1       7.715  41.634  32.362  1.00  0.00     0.038 C 
BRANCH   2   3
HETATM    3  C2  UNL     1       6.886  40.721  31.549  1.00  0.00    -0.020 C 
HETATM    4  C1  UNL     1       5.418  41.120  31.845  1.00  0.00     0.009 C 
HETATM    5  C3  UNL     1       7.071  40.838  30.072  1.00  0.00     0.009 C 
ENDBRANCH   2   3
ENDBRANCH   1   2
BRANCH   1   6
HETATM    6  N1  UNL     1       8.106  39.895  34.016  1.00  0.00    -0.346 N 
HETATM    7  C6  UNL     1       7.787  39.806  35.392  1.00  0.00     0.241 C 
HETATM    8  O1  UNL     1       8.027  40.865  36.056  1.00  0.00    -0.271 OA
ATOM      9  H1  UNL     1       7.932  39.069  33.443  1.00  0.00     0.163 HD
BRANCH   7  10
HETATM   10  C7  UNL     1       7.234  38.662  36.084  1.00  0.00     0.180 C 
BRANCH  10  11
HETATM   11  N2  UNL     1       6.560  39.128  37.307  1.00  0.00    -0.347 N 
HETATM   12  C8  UNL     1       7.001  38.866  38.590  1.00  0.00     0.220 C 
HETATM   13  O2  UNL     1       8.033  38.193  38.783  1.00  0.00    -0.274 OA
ATOM     14  H2  UNL     1       5.711  39.682  37.200  1.00  0.00     0.163 HD
BRANCH  12  15
HETATM   15  C9  UNL     1       6.261  39.375  39.757  1.00  0.00     0.128 C 
BRANCH  15  16
HETATM   16  C10 UNL     1       6.784  40.732  40.180  1.00  0.00     0.173 C 
BRANCH  16  17
HETATM   17  O3  UNL     1       7.703  41.159  39.201  1.00  0.00    -0.400 OA
ATOM     18  H3  UNL     1       8.008  42.023  39.450  1.00  0.00     0.209 HD
ENDBRANCH  16  17
ENDBRANCH  15  16
ENDBRANCH  12  15
ENDBRANCH  10  11
BRANCH  10  19
HETATM   19  C11 UNL     1       6.247  37.828  35.362  1.00  0.00     0.009 C 
HETATM   20  C12 UNL     1       4.936  38.628  35.310  1.00  0.00     0.012 C 
HETATM   21  C13 UNL     1       5.909  36.503  35.931  1.00  0.00     0.012 C 
ENDBRANCH  10  19
ENDBRANCH   7  10
ENDBRANCH   1   6
BRANCH   1  22
HETATM   22  C14 UNL     1      10.044  40.830  32.913  1.00  0.00     0.246 C 
HETATM   23  O4  UNL     1      11.017  41.175  33.687  1.00  0.00    -0.271 OA
HETATM   24  N3  UNL     1      10.434  40.257  31.704  1.00  0.00    -0.304 N 
HETATM   25  C15 UNL     1      11.445  39.462  31.516  1.00  0.00     0.168 A 
ATOM     26  H3  UNL     1       9.869  40.483  30.886  1.00  0.00     0.171 HD
HETATM   27  N4  UNL     1      12.365  38.972  32.344  1.00  0.00    -0.278 N 
HETATM   28  S1  UNL     1      11.952  38.747  30.015  1.00  0.00    -0.021 SA
HETATM   29  N5  UNL     1      13.268  38.203  31.887  1.00  0.00    -0.282 N 
ATOM     30  H4  UNL     1      12.347  39.212  33.335  1.00  0.00     0.189 HD
HETATM   31  C16 UNL     1      13.301  37.888  30.606  1.00  0.00     0.163 A 
ATOM     32  H5  UNL     1      13.975  37.824  32.518  1.00  0.00     0.188 HD
HETATM   33 CL1  UNL     1      14.473  36.841  29.796  1.00  0.00    -0.055 Cl
ENDBRANCH   1  22
TORSDOF 10
ENDMDL
