MODEL 1
REMARK VINA RESULT: -3.917060103      0.000      0.000
REMARK  1 active torsions:
REMARK  status: ('A' for Active; 'I' for Inactive)
REMARK    1  A    between atoms: N1_2  and  C2_4 
ROOT
HETATM    1  C2  UNL     1     -13.305  27.464  44.103  1.00  0.00     0.284 C 
HETATM    2  C3  UNL     1     -14.770  27.911  44.222  1.00  0.00     0.082 C 
HETATM    3  C4  UNL     1     -14.197  28.664  45.431  1.00  0.00     0.242 C 
HETATM    4  N2  UNL     1     -13.224  27.597  45.520  1.00  0.00    -0.054 N 
HETATM    5  C5  UNL     1     -11.967  27.934  46.105  1.00  0.00     0.274 C 
HETATM    6  C6  UNL     1     -13.816  26.416  46.154  1.00  0.00     0.274 C 
ENDROOT
BRANCH   1   7
HETATM    7  N1  UNL     1     -12.621  28.440  43.300  1.00  0.00    -0.399 N 
HETATM    8  C1  UNL     1     -12.189  27.970  42.026  1.00  0.00     0.142 C 
ATOM      9  H1  UNL     1     -12.457  29.396  43.618  1.00  0.00     0.154 HD
ENDBRANCH   1   7
TORSDOF 1
ENDMDL
MODEL 2
REMARK VINA RESULT: -3.595840825      1.139      1.411
REMARK  1 active torsions:
REMARK  status: ('A' for Active; 'I' for Inactive)
REMARK    1  A    between atoms: N1_2  and  C2_4 
ROOT
HETATM    1  C2  UNL     1     -12.610  27.091  44.444  1.00  0.00     0.284 C 
HETATM    2  C3  UNL     1     -13.528  28.107  45.143  1.00  0.00     0.082 C 
HETATM    3  C4  UNL     1     -12.398  28.058  46.182  1.00  0.00     0.242 C 
HETATM    4  N2  UNL     1     -12.175  26.697  45.743  1.00  0.00    -0.054 N 
HETATM    5  C5  UNL     1     -10.849  26.191  45.897  1.00  0.00     0.274 C 
HETATM    6  C6  UNL     1     -13.168  25.799  46.336  1.00  0.00     0.274 C 
ENDROOT
BRANCH   1   7
HETATM    7  N1  UNL     1     -11.689  27.834  43.628  1.00  0.00    -0.399 N 
HETATM    8  C1  UNL     1     -11.951  27.778  42.227  1.00  0.00     0.142 C 
ATOM      9  H1  UNL     1     -10.909  28.362  44.020  1.00  0.00     0.154 HD
ENDBRANCH   1   7
TORSDOF 1
ENDMDL
MODEL 3
REMARK VINA RESULT: -3.535229666      1.716      3.883
REMARK  1 active torsions:
REMARK  status: ('A' for Active; 'I' for Inactive)
REMARK    1  A    between atoms: N1_2  and  C2_4 
ROOT
HETATM    1  C2  UNL     1     -14.124  26.198  46.342  1.00  0.00     0.284 C 
HETATM    2  C3  UNL     1     -13.027  26.681  47.304  1.00  0.00     0.082 C 
HETATM    3  C4  UNL     1     -13.495  28.046  46.780  1.00  0.00     0.242 C 
HETATM    4  N2  UNL     1     -13.845  27.355  45.557  1.00  0.00    -0.054 N 
HETATM    5  C5  UNL     1     -14.900  27.930  44.786  1.00  0.00     0.274 C 
HETATM    6  C6  UNL     1     -12.650  27.115  44.745  1.00  0.00     0.274 C 
ENDROOT
BRANCH   1   7
HETATM    7  N1  UNL     1     -15.359  26.171  47.077  1.00  0.00    -0.399 N 
HETATM    8  C1  UNL     1     -15.437  25.158  48.078  1.00  0.00     0.142 C 
ATOM      9  H1  UNL     1     -16.121  26.825  46.897  1.00  0.00     0.154 HD
ENDBRANCH   1   7
TORSDOF 1
ENDMDL
MODEL 4
REMARK VINA RESULT: -3.463870824      1.727      3.519
REMARK  1 active torsions:
REMARK  status: ('A' for Active; 'I' for Inactive)
REMARK    1  A    between atoms: N1_2  and  C2_4 
ROOT
HETATM    1  C2  UNL     1     -14.067  27.435  46.755  1.00  0.00     0.284 C 
HETATM    2  C3  UNL     1     -14.393  28.482  45.679  1.00  0.00     0.082 C 
HETATM    3  C4  UNL     1     -13.783  27.400  44.776  1.00  0.00     0.242 C 
HETATM    4  N2  UNL     1     -12.988  27.018  45.923  1.00  0.00    -0.054 N 
HETATM    5  C5  UNL     1     -12.568  25.655  45.976  1.00  0.00     0.274 C 
HETATM    6  C6  UNL     1     -11.860  27.937  46.092  1.00  0.00     0.274 C 
ENDROOT
BRANCH   1   7
HETATM    7  N1  UNL     1     -15.204  26.561  46.863  1.00  0.00    -0.399 N 
HETATM    8  C1  UNL     1     -15.354  25.929  48.132  1.00  0.00     0.142 C 
ATOM      9  H1  UNL     1     -15.853  26.406  46.091  1.00  0.00     0.154 HD
ENDBRANCH   1   7
TORSDOF 1
ENDMDL
MODEL 5
REMARK VINA RESULT: -3.322030562      1.420      2.117
REMARK  1 active torsions:
REMARK  status: ('A' for Active; 'I' for Inactive)
REMARK    1  A    between atoms: N1_2  and  C2_4 
ROOT
HETATM    1  C2  UNL     1     -14.090  27.065  45.477  1.00  0.00     0.284 C 
HETATM    2  C3  UNL     1     -14.096  28.264  46.437  1.00  0.00     0.082 C 
HETATM    3  C4  UNL     1     -13.014  27.420  47.124  1.00  0.00     0.242 C 
HETATM    4  N2  UNL     1     -13.704  26.265  46.591  1.00  0.00    -0.054 N 
HETATM    5  C5  UNL     1     -12.908  25.103  46.358  1.00  0.00     0.274 C 
HETATM    6  C6  UNL     1     -14.885  25.956  47.401  1.00  0.00     0.274 C 
ENDROOT
BRANCH   1   7
HETATM    7  N1  UNL     1     -13.101  27.326  44.467  1.00  0.00    -0.399 N 
HETATM    8  C1  UNL     1     -13.449  28.352  43.540  1.00  0.00     0.142 C 
ATOM      9  H1  UNL     1     -12.218  26.817  44.418  1.00  0.00     0.154 HD
ENDBRANCH   1   7
TORSDOF 1
ENDMDL
