MODEL 1
REMARK VINA RESULT: -7.200421674      0.000      0.000
REMARK  6 active torsions:
REMARK  status: ('A' for Active; 'I' for Inactive)
REMARK    1  A    between atoms: C2_2  and  C3_3 
REMARK    2  A    between atoms: N2_8  and  C6_9 
REMARK       I    between atoms: N3_12  and  C9_13 
REMARK    3  A    between atoms: C9_13  and  O2_15 
REMARK    4  A    between atoms: O2_15  and  C10_16 
REMARK    5  A    between atoms: C10_16  and  C11_17 
REMARK    6  A    between atoms: C11_17  and  N4_20 
ROOT
HETATM    1  C6  UNL     1      54.176  41.248  63.195  1.00  0.00     0.093 C 
HETATM    2  C7  UNL     1      55.075  42.386  63.439  1.00  0.00     0.045 C 
HETATM    3  C8  UNL     1      55.062  42.674  64.970  1.00  0.00     0.130 C 
HETATM    4  N3  UNL     1      55.578  41.490  65.593  1.00  0.00    -0.328 N 
HETATM    5  C9  UNL     1      55.753  41.373  67.001  1.00  0.00     0.362 C 
HETATM    6  O1  UNL     1      56.212  40.299  67.452  1.00  0.00    -0.238 OA
HETATM    7  C14 UNL     1      55.928  40.396  64.736  1.00  0.00     0.130 C 
HETATM    8  C15 UNL     1      54.704  40.032  63.934  1.00  0.00     0.045 C 
ENDROOT
BRANCH   5   9
HETATM    9  O2  UNL     1      55.456  42.348  67.886  1.00  0.00    -0.300 OA
BRANCH   9  10
HETATM   10  C10 UNL     1      55.960  42.766  69.080  1.00  0.00     0.236 C 
BRANCH  10  11
HETATM   11  C11 UNL     1      57.324  43.347  69.157  1.00  0.00     0.218 C 
HETATM   12  C12 UNL     1      57.538  44.180  70.413  1.00  0.00     0.067 C 
HETATM   13 CL1  UNL     1      57.852  44.214  67.710  1.00  0.00    -0.086 Cl
BRANCH  11  14
HETATM   14  N4  UNL     1      58.260  42.202  69.274  1.00  0.00    -0.055 N 
HETATM   15  C13 UNL     1      59.339  42.362  68.333  1.00  0.00     0.269 C 
ATOM     16  H42 UNL     1      58.597  42.077  70.228  1.00  0.00     0.279 HD
ATOM     17  H41 UNL     1      57.786  41.305  69.167  1.00  0.00     0.279 HD
ENDBRANCH  11  14
ENDBRANCH  10  11
ENDBRANCH   9  10
ENDBRANCH   5   9
BRANCH   1  18
HETATM   18  N2  UNL     1      53.951  40.829  61.837  1.00  0.00    -0.341 N 
HETATM   19  C3  UNL     1      53.435  41.463  60.786  1.00  0.00     0.083 A 
HETATM   20  N1  UNL     1      53.461  40.589  59.723  1.00  0.00    -0.354 N 
HETATM   21  C4  UNL     1      53.987  39.421  60.096  1.00  0.00     0.106 A 
ATOM     22  H1  UNL     1      53.127  40.803  58.783  1.00  0.00     0.166 HD
HETATM   23  C5  UNL     1      54.294  39.566  61.419  1.00  0.00     0.110 A 
BRANCH  19  24
HETATM   24  C2  UNL     1      52.888  42.855  60.673  1.00  0.00     0.072 C 
HETATM   25  C1  UNL     1      51.463  42.976  61.116  1.00  0.00     0.013 C 
ENDBRANCH  19  24
ENDBRANCH   1  18
TORSDOF 6
ENDMDL
MODEL 2
REMARK VINA RESULT: -7.160940867      0.889      1.256
REMARK  6 active torsions:
REMARK  status: ('A' for Active; 'I' for Inactive)
REMARK    1  A    between atoms: C2_2  and  C3_3 
REMARK    2  A    between atoms: N2_8  and  C6_9 
REMARK       I    between atoms: N3_12  and  C9_13 
REMARK    3  A    between atoms: C9_13  and  O2_15 
REMARK    4  A    between atoms: O2_15  and  C10_16 
REMARK    5  A    between atoms: C10_16  and  C11_17 
REMARK    6  A    between atoms: C11_17  and  N4_20 
ROOT
HETATM    1  C6  UNL     1      54.218  41.249  63.182  1.00  0.00     0.093 C 
HETATM    2  C7  UNL     1      55.201  42.315  63.425  1.00  0.00     0.045 C 
HETATM    3  C8  UNL     1      55.232  42.584  64.959  1.00  0.00     0.130 C 
HETATM    4  N3  UNL     1      55.671  41.357  65.560  1.00  0.00    -0.328 N 
HETATM    5  C9  UNL     1      55.857  41.209  66.963  1.00  0.00     0.362 C 
HETATM    6  O1  UNL     1      56.243  40.099  67.395  1.00  0.00    -0.238 OA
HETATM    7  C14 UNL     1      55.926  40.251  64.685  1.00  0.00     0.130 C 
HETATM    8  C15 UNL     1      54.667  39.989  63.899  1.00  0.00     0.045 C 
ENDROOT
BRANCH   5   9
HETATM    9  O2  UNL     1      55.645  42.192  67.865  1.00  0.00    -0.300 OA
BRANCH   9  10
HETATM   10  C10 UNL     1      56.283  42.645  68.980  1.00  0.00     0.236 C 
BRANCH  10  11
HETATM   11  C11 UNL     1      57.514  43.464  68.860  1.00  0.00     0.218 C 
HETATM   12  C12 UNL     1      57.430  44.491  67.738  1.00  0.00     0.067 C 
HETATM   13 CL1  UNL     1      59.022  42.544  68.779  1.00  0.00    -0.086 Cl
BRANCH  11  14
HETATM   14  N4  UNL     1      57.618  44.251  70.113  1.00  0.00    -0.055 N 
HETATM   15  C13 UNL     1      56.741  43.691  71.109  1.00  0.00     0.269 C 
ATOM     16  H42 UNL     1      58.580  44.322  70.444  1.00  0.00     0.279 HD
ATOM     17  H41 UNL     1      57.442  45.244  69.959  1.00  0.00     0.279 HD
ENDBRANCH  11  14
ENDBRANCH  10  11
ENDBRANCH   9  10
ENDBRANCH   5   9
BRANCH   1  18
HETATM   18  N2  UNL     1      53.943  40.865  61.824  1.00  0.00    -0.341 N 
HETATM   19  C3  UNL     1      53.384  41.525  60.810  1.00  0.00     0.083 A 
HETATM   20  N1  UNL     1      53.373  40.679  59.724  1.00  0.00    -0.354 N 
HETATM   21  C4  UNL     1      53.917  39.505  60.045  1.00  0.00     0.106 A 
ATOM     22  H1  UNL     1      53.002  40.916  58.803  1.00  0.00     0.166 HD
HETATM   23  C5  UNL     1      54.275  39.616  61.359  1.00  0.00     0.110 A 
BRANCH  19  24
HETATM   24  C2  UNL     1      52.827  42.916  60.756  1.00  0.00     0.072 C 
HETATM   25  C1  UNL     1      51.390  43.002  61.166  1.00  0.00     0.013 C 
ENDBRANCH  19  24
ENDBRANCH   1  18
TORSDOF 6
ENDMDL
MODEL 3
REMARK VINA RESULT: -6.956291906      4.658      7.631
REMARK  6 active torsions:
REMARK  status: ('A' for Active; 'I' for Inactive)
REMARK    1  A    between atoms: C2_2  and  C3_3 
REMARK    2  A    between atoms: N2_8  and  C6_9 
REMARK       I    between atoms: N3_12  and  C9_13 
REMARK    3  A    between atoms: C9_13  and  O2_15 
REMARK    4  A    between atoms: O2_15  and  C10_16 
REMARK    5  A    between atoms: C10_16  and  C11_17 
REMARK    6  A    between atoms: C11_17  and  N4_20 
ROOT
HETATM    1  C6  UNL     1      53.254  37.478  67.030  1.00  0.00     0.093 C 
HETATM    2  C7  UNL     1      54.398  36.790  66.414  1.00  0.00     0.045 C 
HETATM    3  C8  UNL     1      54.835  37.623  65.172  1.00  0.00     0.130 C 
HETATM    4  N3  UNL     1      55.239  38.900  65.684  1.00  0.00    -0.328 N 
HETATM    5  C9  UNL     1      55.739  39.942  64.852  1.00  0.00     0.362 C 
HETATM    6  O1  UNL     1      56.068  41.023  65.391  1.00  0.00    -0.238 OA
HETATM    7  C14 UNL     1      55.127  39.107  67.098  1.00  0.00     0.130 C 
HETATM    8  C15 UNL     1      53.692  38.857  67.486  1.00  0.00     0.045 C 
ENDROOT
BRANCH   5   9
HETATM    9  O2  UNL     1      55.883  39.840  63.513  1.00  0.00    -0.300 OA
BRANCH   9  10
HETATM   10  C10 UNL     1      55.068  39.990  62.432  1.00  0.00     0.236 C 
BRANCH  10  11
HETATM   11  C11 UNL     1      54.774  41.342  61.896  1.00  0.00     0.218 C 
HETATM   12  C12 UNL     1      56.028  42.079  61.442  1.00  0.00     0.067 C 
HETATM   13 CL1  UNL     1      53.769  42.359  62.935  1.00  0.00    -0.086 Cl
BRANCH  11  14
HETATM   14  N4  UNL     1      53.965  41.139  60.669  1.00  0.00    -0.055 N 
HETATM   15  C13 UNL     1      53.904  39.734  60.358  1.00  0.00     0.269 C 
ATOM     16  H42 UNL     1      53.039  41.557  60.746  1.00  0.00     0.279 HD
ATOM     17  H41 UNL     1      54.311  41.692  59.884  1.00  0.00     0.279 HD
ENDBRANCH  11  14
ENDBRANCH  10  11
ENDBRANCH   9  10
ENDBRANCH   5   9
BRANCH   1  18
HETATM   18  N2  UNL     1      52.610  36.865  68.160  1.00  0.00    -0.341 N 
HETATM   19  C3  UNL     1      51.861  35.768  68.268  1.00  0.00     0.083 A 
HETATM   20  N1  UNL     1      51.507  35.640  69.592  1.00  0.00    -0.354 N 
HETATM   21  C4  UNL     1      52.024  36.639  70.309  1.00  0.00     0.106 A 
ATOM     22  H1  UNL     1      50.931  34.888  69.972  1.00  0.00     0.166 HD
HETATM   23  C5  UNL     1      52.714  37.409  69.416  1.00  0.00     0.110 A 
BRANCH  19  24
HETATM   24  C2  UNL     1      51.418  34.795  67.216  1.00  0.00     0.072 C 
HETATM   25  C1  UNL     1      49.931  34.654  67.120  1.00  0.00     0.013 C 
ENDBRANCH  19  24
ENDBRANCH   1  18
TORSDOF 6
ENDMDL
MODEL 4
REMARK VINA RESULT: -6.934288114      1.020      1.381
REMARK  6 active torsions:
REMARK  status: ('A' for Active; 'I' for Inactive)
REMARK    1  A    between atoms: C2_2  and  C3_3 
REMARK    2  A    between atoms: N2_8  and  C6_9 
REMARK       I    between atoms: N3_12  and  C9_13 
REMARK    3  A    between atoms: C9_13  and  O2_15 
REMARK    4  A    between atoms: O2_15  and  C10_16 
REMARK    5  A    between atoms: C10_16  and  C11_17 
REMARK    6  A    between atoms: C11_17  and  N4_20 
ROOT
HETATM    1  C6  UNL     1      54.909  40.771  62.915  1.00  0.00     0.093 C 
HETATM    2  C7  UNL     1      55.569  39.630  63.567  1.00  0.00     0.045 C 
HETATM    3  C8  UNL     1      56.276  40.167  64.848  1.00  0.00     0.130 C 
HETATM    4  N3  UNL     1      55.229  40.680  65.683  1.00  0.00    -0.328 N 
HETATM    5  C9  UNL     1      55.472  41.235  66.971  1.00  0.00     0.362 C 
HETATM    6  O1  UNL     1      54.493  41.658  67.627  1.00  0.00    -0.238 OA
HETATM    7  C14 UNL     1      53.890  40.614  65.174  1.00  0.00     0.130 C 
HETATM    8  C15 UNL     1      53.865  41.343  63.855  1.00  0.00     0.045 C 
ENDROOT
BRANCH   5   9
HETATM    9  O2  UNL     1      56.694  41.338  67.535  1.00  0.00    -0.300 OA
BRANCH   9  10
HETATM   10  C10 UNL     1      57.182  41.767  68.732  1.00  0.00     0.236 C 
BRANCH  10  11
HETATM   11  C11 UNL     1      58.092  42.936  68.796  1.00  0.00     0.218 C 
HETATM   12  C12 UNL     1      58.323  43.424  70.220  1.00  0.00     0.067 C 
HETATM   13 CL1  UNL     1      57.674  44.272  67.717  1.00  0.00    -0.086 Cl
BRANCH  11  14
HETATM   14  N4  UNL     1      59.415  42.464  68.318  1.00  0.00    -0.055 N 
HETATM   15  C13 UNL     1      60.071  41.725  69.366  1.00  0.00     0.269 C 
ATOM     16  H42 UNL     1      59.342  41.925  67.455  1.00  0.00     0.279 HD
ATOM     17  H41 UNL     1      59.992  43.228  67.966  1.00  0.00     0.279 HD
ENDBRANCH  11  14
ENDBRANCH  10  11
ENDBRANCH   9  10
ENDBRANCH   5   9
BRANCH   1  18
HETATM   18  N2  UNL     1      54.245  40.552  61.658  1.00  0.00    -0.341 N 
HETATM   19  C3  UNL     1      53.578  41.377  60.851  1.00  0.00     0.083 A 
HETATM   20  N1  UNL     1      53.150  40.639  59.770  1.00  0.00    -0.354 N 
HETATM   21  C4  UNL     1      53.542  39.369  59.891  1.00  0.00     0.106 A 
ATOM     22  H1  UNL     1      52.612  41.009  58.987  1.00  0.00     0.166 HD
HETATM   23  C5  UNL     1      54.226  39.311  61.072  1.00  0.00     0.110 A 
BRANCH  19  24
HETATM   24  C2  UNL     1      53.279  42.838  60.999  1.00  0.00     0.072 C 
HETATM   25  C1  UNL     1      51.816  43.155  60.982  1.00  0.00     0.013 C 
ENDBRANCH  19  24
ENDBRANCH   1  18
TORSDOF 6
ENDMDL
MODEL 5
REMARK VINA RESULT: -6.910704305      1.230      1.853
REMARK  6 active torsions:
REMARK  status: ('A' for Active; 'I' for Inactive)
REMARK    1  A    between atoms: C2_2  and  C3_3 
REMARK    2  A    between atoms: N2_8  and  C6_9 
REMARK       I    between atoms: N3_12  and  C9_13 
REMARK    3  A    between atoms: C9_13  and  O2_15 
REMARK    4  A    between atoms: O2_15  and  C10_16 
REMARK    5  A    between atoms: C10_16  and  C11_17 
REMARK    6  A    between atoms: C11_17  and  N4_20 
ROOT
HETATM    1  C6  UNL     1      54.903  40.518  62.731  1.00  0.00     0.093 C 
HETATM    2  C7  UNL     1      55.443  39.307  63.368  1.00  0.00     0.045 C 
HETATM    3  C8  UNL     1      56.239  39.755  64.629  1.00  0.00     0.130 C 
HETATM    4  N3  UNL     1      55.281  40.385  65.490  1.00  0.00    -0.328 N 
HETATM    5  C9  UNL     1      55.620  40.906  66.771  1.00  0.00     0.362 C 
HETATM    6  O1  UNL     1      54.714  41.438  67.452  1.00  0.00    -0.238 OA
HETATM    7  C14 UNL     1      53.931  40.477  65.016  1.00  0.00     0.130 C 
HETATM    8  C15 UNL     1      53.958  41.206  63.697  1.00  0.00     0.045 C 
ENDROOT
BRANCH   5   9
HETATM    9  O2  UNL     1      56.860  40.864  67.303  1.00  0.00    -0.300 OA
BRANCH   9  10
HETATM   10  C10 UNL     1      57.904  41.733  67.408  1.00  0.00     0.236 C 
BRANCH  10  11
HETATM   11  C11 UNL     1      58.035  42.609  68.599  1.00  0.00     0.218 C 
HETATM   12  C12 UNL     1      57.587  44.039  68.327  1.00  0.00     0.067 C 
HETATM   13 CL1  UNL     1      59.613  42.566  69.392  1.00  0.00    -0.086 Cl
BRANCH  11  14
HETATM   14  N4  UNL     1      57.088  42.082  69.612  1.00  0.00    -0.055 N 
HETATM   15  C13 UNL     1      56.282  43.159  70.126  1.00  0.00     0.269 C 
ATOM     16  H42 UNL     1      56.520  41.317  69.247  1.00  0.00     0.279 HD
ATOM     17  H41 UNL     1      57.565  41.570  70.355  1.00  0.00     0.279 HD
ENDBRANCH  11  14
ENDBRANCH  10  11
ENDBRANCH   9  10
ENDBRANCH   5   9
BRANCH   1  18
HETATM   18  N2  UNL     1      54.186  40.381  61.492  1.00  0.00    -0.341 N 
HETATM   19  C3  UNL     1      53.532  41.267  60.742  1.00  0.00     0.083 A 
HETATM   20  N1  UNL     1      53.032  40.593  59.650  1.00  0.00    -0.354 N 
HETATM   21  C4  UNL     1      53.366  39.303  59.709  1.00  0.00     0.106 A 
ATOM     22  H1  UNL     1      52.485  41.020  58.901  1.00  0.00     0.166 HD
HETATM   23  C5  UNL     1      54.087  39.166  60.861  1.00  0.00     0.110 A 
BRANCH  19  24
HETATM   24  C2  UNL     1      53.309  42.734  60.956  1.00  0.00     0.072 C 
HETATM   25  C1  UNL     1      51.866  43.130  60.931  1.00  0.00     0.013 C 
ENDBRANCH  19  24
ENDBRANCH   1  18
TORSDOF 6
ENDMDL
