MODEL 1
REMARK VINA RESULT: -6.977133589      0.000      0.000
REMARK  8 active torsions:
REMARK  status: ('A' for Active; 'I' for Inactive)
REMARK    1  A    between atoms: C2_2  and  O1_3 
REMARK    2  A    between atoms: O1_3  and  C3_4 
REMARK    3  A    between atoms: C3_4  and  C4_5 
REMARK    4  A    between atoms: C4_5  and  O2_6 
REMARK    5  A    between atoms: O2_6  and  C5_7 
REMARK    6  A    between atoms: C5_7  and  C6_9 
REMARK    7  A    between atoms: C9_18  and  C10_19 
REMARK    8  A    between atoms: C11_20  and  C12_21 
ROOT
HETATM    1  C6  UNL     1      55.788  39.398  66.246  1.00  0.00     0.192 C 
HETATM    2  C7  UNL     1      55.324  38.562  67.384  1.00  0.00     0.038 C 
HETATM    3  N1  UNL     1      55.707  38.532  68.601  1.00  0.00    -0.402 N 
ATOM      4  H11 UNL     1      55.389  37.959  69.382  1.00  0.00     0.155 HD
ATOM      5  H12 UNL     1      56.443  39.129  68.980  1.00  0.00     0.155 HD
HETATM    6  C8  UNL     1      54.255  37.693  66.832  1.00  0.00     0.226 C 
HETATM    7 CL1  UNL     1      52.809  37.782  67.872  1.00  0.00    -0.096 Cl
HETATM    8  N2  UNL     1      53.936  38.324  65.582  1.00  0.00    -0.363 N 
ATOM      9  H2  UNL     1      53.131  38.055  65.018  1.00  0.00     0.162 HD
HETATM   10  C9  UNL     1      54.747  39.252  65.235  1.00  0.00     0.080 C 
ENDROOT
BRANCH   1  11
HETATM   11  C5  UNL     1      56.010  40.794  66.679  1.00  0.00     0.275 C 
HETATM   12  O3  UNL     1      57.109  41.343  66.452  1.00  0.00    -0.264 OA
BRANCH  11  13
HETATM   13  O2  UNL     1      55.033  41.499  67.324  1.00  0.00    -0.318 OA
BRANCH  13  14
HETATM   14  C4  UNL     1      54.470  42.713  66.852  1.00  0.00     0.205 C 
BRANCH  14  15
HETATM   15  C3  UNL     1      53.051  42.436  66.419  1.00  0.00     0.194 C 
BRANCH  15  16
HETATM   16  O1  UNL     1      52.171  43.465  66.694  1.00  0.00    -0.389 OA
BRANCH  16  17
HETATM   17  C2  UNL     1      51.399  43.190  67.812  1.00  0.00     0.163 C 
HETATM   18  C1  UNL     1      49.943  43.265  67.366  1.00  0.00     0.033 C 
ENDBRANCH  16  17
ENDBRANCH  15  16
ENDBRANCH  14  15
ENDBRANCH  13  14
ENDBRANCH  11  13
ENDBRANCH   1  11
BRANCH  10  19
HETATM   19  C10 UNL     1      54.666  40.060  64.015  1.00  0.00    -0.051 C 
HETATM   20  C11 UNL     1      54.602  40.707  63.000  1.00  0.00    -0.091 C 
BRANCH  20  21
HETATM   21  C12 UNL     1      54.533  41.475  61.754  1.00  0.00     0.013 C 
HETATM   22  C13 UNL     1      53.651  42.698  61.892  1.00  0.00     0.028 C 
HETATM   23  C14 UNL     1      55.945  41.938  61.454  1.00  0.00     0.028 C 
HETATM   24  C15 UNL     1      54.006  40.581  60.643  1.00  0.00     0.028 C 
ENDBRANCH  20  21
ENDBRANCH  10  19
TORSDOF 8
ENDMDL
MODEL 2
REMARK VINA RESULT: -6.719573180      3.854      6.175
REMARK  8 active torsions:
REMARK  status: ('A' for Active; 'I' for Inactive)
REMARK    1  A    between atoms: C2_2  and  O1_3 
REMARK    2  A    between atoms: O1_3  and  C3_4 
REMARK    3  A    between atoms: C3_4  and  C4_5 
REMARK    4  A    between atoms: C4_5  and  O2_6 
REMARK    5  A    between atoms: O2_6  and  C5_7 
REMARK    6  A    between atoms: C5_7  and  C6_9 
REMARK    7  A    between atoms: C9_18  and  C10_19 
REMARK    8  A    between atoms: C11_20  and  C12_21 
ROOT
HETATM    1  C6  UNL     1      54.885  41.456  61.691  1.00  0.00     0.192 C 
HETATM    2  C7  UNL     1      53.883  41.592  60.601  1.00  0.00     0.038 C 
HETATM    3  N1  UNL     1      53.663  40.858  59.581  1.00  0.00    -0.402 N 
ATOM      4  H11 UNL     1      52.975  40.950  58.834  1.00  0.00     0.155 HD
ATOM      5  H12 UNL     1      54.190  40.011  59.366  1.00  0.00     0.155 HD
HETATM    6  C8  UNL     1      53.117  42.824  60.915  1.00  0.00     0.226 C 
HETATM    7 CL1  UNL     1      51.367  42.479  60.845  1.00  0.00    -0.096 Cl
HETATM    8  N2  UNL     1      53.459  43.080  62.285  1.00  0.00    -0.363 N 
ATOM      9  H2  UNL     1      52.982  43.781  62.852  1.00  0.00     0.162 HD
HETATM   10  C9  UNL     1      54.414  42.356  62.737  1.00  0.00     0.080 C 
ENDROOT
BRANCH   1  11
HETATM   11  C5  UNL     1      55.000  40.046  62.122  1.00  0.00     0.275 C 
HETATM   12  O3  UNL     1      54.193  39.200  61.682  1.00  0.00    -0.264 OA
BRANCH  11  13
HETATM   13  O2  UNL     1      55.973  39.649  62.994  1.00  0.00    -0.318 OA
BRANCH  13  14
HETATM   14  C4  UNL     1      56.036  38.369  63.604  1.00  0.00     0.205 C 
BRANCH  14  15
HETATM   15  C3  UNL     1      55.302  38.439  64.921  1.00  0.00     0.194 C 
BRANCH  15  16
HETATM   16  O1  UNL     1      54.519  37.332  65.184  1.00  0.00    -0.389 OA
BRANCH  16  17
HETATM   17  C2  UNL     1      54.238  37.215  66.536  1.00  0.00     0.163 C 
HETATM   18  C1  UNL     1      55.227  38.116  67.267  1.00  0.00     0.033 C 
ENDBRANCH  16  17
ENDBRANCH  15  16
ENDBRANCH  14  15
ENDBRANCH  13  14
ENDBRANCH  11  13
ENDBRANCH   1  11
BRANCH  10  19
HETATM   19  C10 UNL     1      54.968  42.404  64.093  1.00  0.00    -0.051 C 
HETATM   20  C11 UNL     1      55.425  42.422  65.209  1.00  0.00    -0.091 C 
BRANCH  20  21
HETATM   21  C12 UNL     1      55.974  42.420  66.567  1.00  0.00     0.013 C 
HETATM   22  C13 UNL     1      56.558  43.766  66.941  1.00  0.00     0.028 C 
HETATM   23  C14 UNL     1      54.815  42.129  67.500  1.00  0.00     0.028 C 
HETATM   24  C15 UNL     1      57.043  41.345  66.675  1.00  0.00     0.028 C 
ENDBRANCH  20  21
ENDBRANCH  10  19
TORSDOF 8
ENDMDL
MODEL 3
REMARK VINA RESULT: -6.590786712      2.024      3.265
REMARK  8 active torsions:
REMARK  status: ('A' for Active; 'I' for Inactive)
REMARK    1  A    between atoms: C2_2  and  O1_3 
REMARK    2  A    between atoms: O1_3  and  C3_4 
REMARK    3  A    between atoms: C3_4  and  C4_5 
REMARK    4  A    between atoms: C4_5  and  O2_6 
REMARK    5  A    between atoms: O2_6  and  C5_7 
REMARK    6  A    between atoms: C5_7  and  C6_9 
REMARK    7  A    between atoms: C9_18  and  C10_19 
REMARK    8  A    between atoms: C11_20  and  C12_21 
ROOT
HETATM    1  C6  UNL     1      55.798  39.686  66.168  1.00  0.00     0.192 C 
HETATM    2  C7  UNL     1      55.490  38.713  67.249  1.00  0.00     0.038 C 
HETATM    3  N1  UNL     1      55.755  38.749  68.497  1.00  0.00    -0.402 N 
ATOM      4  H11 UNL     1      55.544  38.082  69.238  1.00  0.00     0.155 HD
ATOM      5  H12 UNL     1      56.253  39.515  68.950  1.00  0.00     0.155 HD
HETATM    6  C8  UNL     1      54.766  37.598  66.589  1.00  0.00     0.226 C 
HETATM    7 CL1  UNL     1      53.266  37.239  67.486  1.00  0.00    -0.096 Cl
HETATM    8  N2  UNL     1      54.395  38.158  65.320  1.00  0.00    -0.363 N 
ATOM      9  H2  UNL     1      53.753  37.693  64.678  1.00  0.00     0.162 HD
HETATM   10  C9  UNL     1      54.936  39.289  65.060  1.00  0.00     0.080 C 
ENDROOT
BRANCH   1  11
HETATM   11  C5  UNL     1      55.573  41.072  66.633  1.00  0.00     0.275 C 
HETATM   12  O3  UNL     1      54.522  41.353  67.246  1.00  0.00    -0.264 OA
BRANCH  11  13
HETATM   13  O2  UNL     1      56.496  42.053  66.406  1.00  0.00    -0.318 OA
BRANCH  13  14
HETATM   14  C4  UNL     1      56.319  43.420  66.744  1.00  0.00     0.205 C 
BRANCH  14  15
HETATM   15  C3  UNL     1      57.360  43.789  67.773  1.00  0.00     0.194 C 
BRANCH  15  16
HETATM   16  O1  UNL     1      57.481  42.873  68.799  1.00  0.00    -0.389 OA
BRANCH  16  17
HETATM   17  C2  UNL     1      58.783  42.806  69.272  1.00  0.00     0.163 C 
HETATM   18  C1  UNL     1      59.584  42.025  68.237  1.00  0.00     0.033 C 
ENDBRANCH  16  17
ENDBRANCH  15  16
ENDBRANCH  14  15
ENDBRANCH  13  14
ENDBRANCH  11  13
ENDBRANCH   1  11
BRANCH  10  19
HETATM   19  C10 UNL     1      54.739  40.084  63.845  1.00  0.00    -0.051 C 
HETATM   20  C11 UNL     1      54.597  40.737  62.841  1.00  0.00    -0.091 C 
BRANCH  20  21
HETATM   21  C12 UNL     1      54.449  41.534  61.621  1.00  0.00     0.013 C 
HETATM   22  C13 UNL     1      53.512  42.706  61.823  1.00  0.00     0.028 C 
HETATM   23  C14 UNL     1      55.825  42.076  61.289  1.00  0.00     0.028 C 
HETATM   24  C15 UNL     1      53.930  40.645  60.502  1.00  0.00     0.028 C 
ENDBRANCH  20  21
ENDBRANCH  10  19
TORSDOF 8
ENDMDL
MODEL 4
REMARK VINA RESULT: -6.587419041      3.048      4.624
REMARK  8 active torsions:
REMARK  status: ('A' for Active; 'I' for Inactive)
REMARK    1  A    between atoms: C2_2  and  O1_3 
REMARK    2  A    between atoms: O1_3  and  C3_4 
REMARK    3  A    between atoms: C3_4  and  C4_5 
REMARK    4  A    between atoms: C4_5  and  O2_6 
REMARK    5  A    between atoms: O2_6  and  C5_7 
REMARK    6  A    between atoms: C5_7  and  C6_9 
REMARK    7  A    between atoms: C9_18  and  C10_19 
REMARK    8  A    between atoms: C11_20  and  C12_21 
ROOT
HETATM    1  C6  UNL     1      54.854  41.827  66.977  1.00  0.00     0.192 C 
HETATM    2  C7  UNL     1      55.547  42.329  68.193  1.00  0.00     0.038 C 
HETATM    3  N1  UNL     1      55.642  41.824  69.361  1.00  0.00    -0.402 N 
ATOM      4  H11 UNL     1      56.117  42.167  70.195  1.00  0.00     0.155 HD
ATOM      5  H12 UNL     1      55.218  40.936  69.632  1.00  0.00     0.155 HD
HETATM    6  C8  UNL     1      56.162  43.620  67.798  1.00  0.00     0.226 C 
HETATM    7 CL1  UNL     1      57.881  43.640  68.274  1.00  0.00    -0.096 Cl
HETATM    8  N2  UNL     1      56.105  43.582  66.363  1.00  0.00    -0.363 N 
ATOM      9  H2  UNL     1      56.583  44.264  65.774  1.00  0.00     0.162 HD
HETATM   10  C9  UNL     1      55.404  42.623  65.886  1.00  0.00     0.080 C 
ENDROOT
BRANCH   1  11
HETATM   11  C5  UNL     1      55.062  40.372  66.819  1.00  0.00     0.275 C 
HETATM   12  O3  UNL     1      56.128  39.855  67.218  1.00  0.00    -0.264 OA
BRANCH  11  13
HETATM   13  O2  UNL     1      54.110  39.578  66.246  1.00  0.00    -0.318 OA
BRANCH  13  14
HETATM   14  C4  UNL     1      54.322  38.238  65.828  1.00  0.00     0.205 C 
BRANCH  14  15
HETATM   15  C3  UNL     1      53.352  37.354  66.573  1.00  0.00     0.194 C 
BRANCH  15  16
HETATM   16  O1  UNL     1      52.886  36.286  65.831  1.00  0.00    -0.389 OA
BRANCH  16  17
HETATM   17  C2  UNL     1      52.974  35.097  66.538  1.00  0.00     0.163 C 
HETATM   18  C1  UNL     1      51.577  34.486  66.541  1.00  0.00     0.033 C 
ENDBRANCH  16  17
ENDBRANCH  15  16
ENDBRANCH  14  15
ENDBRANCH  13  14
ENDBRANCH  11  13
ENDBRANCH   1  11
BRANCH  10  19
HETATM   19  C10 UNL     1      55.172  42.344  64.466  1.00  0.00    -0.051 C 
HETATM   20  C11 UNL     1      55.000  42.105  63.297  1.00  0.00    -0.091 C 
BRANCH  20  21
HETATM   21  C12 UNL     1      54.814  41.808  61.874  1.00  0.00     0.013 C 
HETATM   22  C13 UNL     1      53.812  42.742  61.230  1.00  0.00     0.028 C 
HETATM   23  C14 UNL     1      56.160  42.022  61.210  1.00  0.00     0.028 C 
HETATM   24  C15 UNL     1      54.353  40.369  61.718  1.00  0.00     0.028 C 
ENDBRANCH  20  21
ENDBRANCH  10  19
TORSDOF 8
ENDMDL
MODEL 5
REMARK VINA RESULT: -6.566648998      2.099      2.985
REMARK  8 active torsions:
REMARK  status: ('A' for Active; 'I' for Inactive)
REMARK    1  A    between atoms: C2_2  and  O1_3 
REMARK    2  A    between atoms: O1_3  and  C3_4 
REMARK    3  A    between atoms: C3_4  and  C4_5 
REMARK    4  A    between atoms: C4_5  and  O2_6 
REMARK    5  A    between atoms: O2_6  and  C5_7 
REMARK    6  A    between atoms: C5_7  and  C6_9 
REMARK    7  A    between atoms: C9_18  and  C10_19 
REMARK    8  A    between atoms: C11_20  and  C12_21 
ROOT
HETATM    1  C6  UNL     1      55.801  39.466  66.259  1.00  0.00     0.192 C 
HETATM    2  C7  UNL     1      55.432  38.494  67.322  1.00  0.00     0.038 C 
HETATM    3  N1  UNL     1      55.713  38.481  68.567  1.00  0.00    -0.402 N 
ATOM      4  H11 UNL     1      55.460  37.815  69.296  1.00  0.00     0.155 HD
ATOM      5  H12 UNL     1      56.273  39.196  69.031  1.00  0.00     0.155 HD
HETATM    6  C8  UNL     1      54.619  37.453  66.647  1.00  0.00     0.226 C 
HETATM    7 CL1  UNL     1      53.106  37.186  67.555  1.00  0.00    -0.096 Cl
HETATM    8  N2  UNL     1      54.277  38.068  65.396  1.00  0.00    -0.363 N 
ATOM      9  H2  UNL     1      53.594  37.668  64.752  1.00  0.00     0.162 HD
HETATM   10  C9  UNL     1      54.900  39.161  65.154  1.00  0.00     0.080 C 
ENDROOT
BRANCH   1  11
HETATM   11  C5  UNL     1      55.687  40.853  66.758  1.00  0.00     0.275 C 
HETATM   12  O3  UNL     1      54.688  41.186  67.431  1.00  0.00    -0.264 OA
BRANCH  11  13
HETATM   13  O2  UNL     1      56.656  41.781  66.498  1.00  0.00    -0.318 OA
BRANCH  13  14
HETATM   14  C4  UNL     1      57.366  42.505  67.491  1.00  0.00     0.205 C 
BRANCH  14  15
HETATM   15  C3  UNL     1      56.979  43.960  67.378  1.00  0.00     0.194 C 
BRANCH  15  16
HETATM   16  O1  UNL     1      57.365  44.727  68.459  1.00  0.00    -0.389 OA
BRANCH  16  17
HETATM   17  C2  UNL     1      57.579  43.948  69.586  1.00  0.00     0.163 C 
HETATM   18  C1  UNL     1      57.715  44.910  70.762  1.00  0.00     0.033 C 
ENDBRANCH  16  17
ENDBRANCH  15  16
ENDBRANCH  14  15
ENDBRANCH  13  14
ENDBRANCH  11  13
ENDBRANCH   1  11
BRANCH  10  19
HETATM   19  C10 UNL     1      54.750  39.996  63.960  1.00  0.00    -0.051 C 
HETATM   20  C11 UNL     1      54.634  40.668  62.966  1.00  0.00    -0.091 C 
BRANCH  20  21
HETATM   21  C12 UNL     1      54.508  41.470  61.745  1.00  0.00     0.013 C 
HETATM   22  C13 UNL     1      53.619  42.678  61.953  1.00  0.00     0.028 C 
HETATM   23  C14 UNL     1      55.902  41.957  61.403  1.00  0.00     0.028 C 
HETATM   24  C15 UNL     1      53.947  40.601  60.631  1.00  0.00     0.028 C 
ENDBRANCH  20  21
ENDBRANCH  10  19
TORSDOF 8
ENDMDL
