MODEL 1
REMARK VINA RESULT: -6.286768186      0.000      0.000
REMARK  5 active torsions:
REMARK  status: ('A' for Active; 'I' for Inactive)
REMARK    1  A    between atoms: O1_2  and  C2_3 
REMARK    2  A    between atoms: C4_5  and  C5_6 
REMARK    3  A    between atoms: C5_6  and  C6_8 
REMARK    4  A    between atoms: C6_8  and  C7_10 
REMARK    5  A    between atoms: C11_18  and  O4_19 
ROOT
HETATM    1  C2  UNL     1      54.187  41.827  61.939  1.00  0.00     0.103 A 
HETATM    2  C3  UNL     1      54.155  42.571  63.113  1.00  0.00     0.055 A 
HETATM    3  C4  UNL     1      54.617  42.082  64.335  1.00  0.00     0.028 A 
HETATM    4  C8  UNL     1      55.114  40.795  64.302  1.00  0.00    -0.027 A 
HETATM    5  C9  UNL     1      55.661  40.126  65.513  1.00  0.00     0.050 C 
HETATM    6  C10 UNL     1      55.143  40.051  63.115  1.00  0.00     0.054 A 
HETATM    7 BR1  UNL     1      55.838  38.271  63.107  1.00  0.00    -0.047 Br
HETATM    8  C11 UNL     1      54.685  40.549  61.923  1.00  0.00     0.119 A 
ENDROOT
BRANCH   3   9
HETATM    9  C5  UNL     1      54.553  42.846  65.560  1.00  0.00     0.233 C 
HETATM   10  O2  UNL     1      55.508  43.676  65.762  1.00  0.00    -0.283 OA
BRANCH   9  11
HETATM   11  C6  UNL     1      53.559  42.805  66.589  1.00  0.00     0.237 C 
HETATM   12  O3  UNL     1      52.381  43.138  66.400  1.00  0.00    -0.283 OA
BRANCH  11  13
HETATM   13  C7  UNL     1      53.927  42.355  67.927  1.00  0.00     0.140 C 
HETATM   14  N1  UNL     1      54.971  42.809  68.509  1.00  0.00    -0.405 N 
ATOM     15  H12 UNL     1      55.544  43.495  68.017  1.00  0.00     0.155 HD
ATOM     16  H11 UNL     1      55.229  42.496  69.445  1.00  0.00     0.155 HD
ENDBRANCH  11  13
ENDBRANCH   9  11
ENDBRANCH   3   9
BRANCH   1  17
HETATM   17  O1  UNL     1      53.709  42.383  60.761  1.00  0.00    -0.353 OA
HETATM   18  C1  UNL     1      52.340  42.718  60.587  1.00  0.00     0.210 C 
ENDBRANCH   1  17
BRANCH   8  19
HETATM   19  O4  UNL     1      54.721  39.791  60.742  1.00  0.00    -0.352 OA
HETATM   20  C12 UNL     1      53.550  39.208  60.198  1.00  0.00     0.210 C 
ENDBRANCH   8  19
TORSDOF 5
ENDMDL
MODEL 2
REMARK VINA RESULT: -6.232863126      3.386      5.433
REMARK  5 active torsions:
REMARK  status: ('A' for Active; 'I' for Inactive)
REMARK    1  A    between atoms: O1_2  and  C2_3 
REMARK    2  A    between atoms: C4_5  and  C5_6 
REMARK    3  A    between atoms: C5_6  and  C6_8 
REMARK    4  A    between atoms: C6_8  and  C7_10 
REMARK    5  A    between atoms: C11_18  and  O4_19 
ROOT
HETATM    1  C2  UNL     1      55.259  38.538  64.490  1.00  0.00     0.103 A 
HETATM    2  C3  UNL     1      55.184  39.269  63.309  1.00  0.00     0.055 A 
HETATM    3  C4  UNL     1      55.188  40.663  63.278  1.00  0.00     0.028 A 
HETATM    4  C8  UNL     1      55.271  41.279  64.510  1.00  0.00    -0.027 A 
HETATM    5  C9  UNL     1      55.303  42.758  64.656  1.00  0.00     0.050 C 
HETATM    6  C10 UNL     1      55.346  40.535  65.696  1.00  0.00     0.054 A 
HETATM    7 BR1  UNL     1      55.460  41.421  67.385  1.00  0.00    -0.047 Br
HETATM    8  C11 UNL     1      55.341  39.165  65.707  1.00  0.00     0.119 A 
ENDROOT
BRANCH   3   9
HETATM    9  C5  UNL     1      55.079  41.419  62.051  1.00  0.00     0.233 C 
HETATM   10  O2  UNL     1      56.178  41.694  61.453  1.00  0.00    -0.283 OA
BRANCH   9  11
HETATM   11  C6  UNL     1      53.899  41.908  61.404  1.00  0.00     0.237 C 
HETATM   12  O3  UNL     1      53.391  43.006  61.671  1.00  0.00    -0.283 OA
BRANCH  11  13
HETATM   13  C7  UNL     1      53.250  41.095  60.382  1.00  0.00     0.140 C 
HETATM   14  N1  UNL     1      53.760  39.985  60.002  1.00  0.00    -0.405 N 
ATOM     15  H12 UNL     1      54.635  39.680  60.430  1.00  0.00     0.155 HD
ATOM     16  H11 UNL     1      53.307  39.416  59.288  1.00  0.00     0.155 HD
ENDBRANCH  11  13
ENDBRANCH   9  11
ENDBRANCH   3   9
BRANCH   1  17
HETATM   17  O1  UNL     1      55.249  37.151  64.441  1.00  0.00    -0.353 OA
HETATM   18  C1  UNL     1      56.385  36.404  64.031  1.00  0.00     0.210 C 
ENDBRANCH   1  17
BRANCH   8  19
HETATM   19  O4  UNL     1      55.417  38.435  66.904  1.00  0.00    -0.352 OA
HETATM   20  C12 UNL     1      54.255  37.932  67.542  1.00  0.00     0.210 C 
ENDBRANCH   8  19
TORSDOF 5
ENDMDL
MODEL 3
REMARK VINA RESULT: -6.179141210      3.256      4.544
REMARK  5 active torsions:
REMARK  status: ('A' for Active; 'I' for Inactive)
REMARK    1  A    between atoms: O1_2  and  C2_3 
REMARK    2  A    between atoms: C4_5  and  C5_6 
REMARK    3  A    between atoms: C5_6  and  C6_8 
REMARK    4  A    between atoms: C6_8  and  C7_10 
REMARK    5  A    between atoms: C11_18  and  O4_19 
ROOT
HETATM    1  C2  UNL     1      53.667  41.577  65.032  1.00  0.00     0.103 A 
HETATM    2  C3  UNL     1      53.840  40.446  65.822  1.00  0.00     0.055 A 
HETATM    3  C4  UNL     1      54.610  39.353  65.425  1.00  0.00     0.028 A 
HETATM    4  C8  UNL     1      55.196  39.468  64.180  1.00  0.00    -0.027 A 
HETATM    5  C9  UNL     1      56.062  38.402  63.611  1.00  0.00     0.050 C 
HETATM    6  C10 UNL     1      55.017  40.612  63.390  1.00  0.00     0.054 A 
HETATM    7 BR1  UNL     1      55.844  40.737  61.672  1.00  0.00    -0.047 Br
HETATM    8  C11 UNL     1      54.256  41.676  63.798  1.00  0.00     0.119 A 
ENDROOT
BRANCH   3   9
HETATM    9  C5  UNL     1      54.763  38.166  66.234  1.00  0.00     0.233 C 
HETATM   10  O2  UNL     1      55.737  38.167  67.067  1.00  0.00    -0.283 OA
BRANCH   9  11
HETATM   11  C6  UNL     1      53.966  36.976  66.237  1.00  0.00     0.237 C 
HETATM   12  O3  UNL     1      54.359  35.903  65.760  1.00  0.00    -0.283 OA
BRANCH  11  13
HETATM   13  C7  UNL     1      52.630  37.007  66.821  1.00  0.00     0.140 C 
HETATM   14  N1  UNL     1      51.601  37.237  66.098  1.00  0.00    -0.405 N 
ATOM     15  H12 UNL     1      51.734  37.399  65.100  1.00  0.00     0.155 HD
ATOM     16  H11 UNL     1      50.666  37.258  66.506  1.00  0.00     0.155 HD
ENDBRANCH  11  13
ENDBRANCH   9  11
ENDBRANCH   3   9
BRANCH   1  17
HETATM   17  O1  UNL     1      52.885  42.626  65.496  1.00  0.00    -0.353 OA
HETATM   18  C1  UNL     1      52.649  42.834  66.881  1.00  0.00     0.210 C 
ENDBRANCH   1  17
BRANCH   8  19
HETATM   19  O4  UNL     1      54.087  42.815  62.993  1.00  0.00    -0.352 OA
HETATM   20  C12 UNL     1      53.131  42.850  61.948  1.00  0.00     0.210 C 
ENDBRANCH   8  19
TORSDOF 5
ENDMDL
MODEL 4
REMARK VINA RESULT: -6.057420527      3.263      4.438
REMARK  5 active torsions:
REMARK  status: ('A' for Active; 'I' for Inactive)
REMARK    1  A    between atoms: O1_2  and  C2_3 
REMARK    2  A    between atoms: C4_5  and  C5_6 
REMARK    3  A    between atoms: C5_6  and  C6_8 
REMARK    4  A    between atoms: C6_8  and  C7_10 
REMARK    5  A    between atoms: C11_18  and  O4_19 
ROOT
HETATM    1  C2  UNL     1      54.937  39.929  62.277  1.00  0.00     0.103 A 
HETATM    2  C3  UNL     1      55.015  38.731  62.979  1.00  0.00     0.055 A 
HETATM    3  C4  UNL     1      55.201  38.671  64.360  1.00  0.00     0.028 A 
HETATM    4  C8  UNL     1      55.304  39.893  64.993  1.00  0.00    -0.027 A 
HETATM    5  C9  UNL     1      55.488  40.010  66.463  1.00  0.00     0.050 C 
HETATM    6  C10 UNL     1      55.225  41.096  64.278  1.00  0.00     0.054 A 
HETATM    7 BR1  UNL     1      55.372  42.771  65.188  1.00  0.00    -0.047 Br
HETATM    8  C11 UNL     1      55.042  41.135  62.921  1.00  0.00     0.119 A 
ENDROOT
BRANCH   3   9
HETATM    9  C5  UNL     1      55.313  37.425  65.082  1.00  0.00     0.233 C 
HETATM   10  O2  UNL     1      56.453  36.842  65.038  1.00  0.00    -0.283 OA
BRANCH   9  11
HETATM   11  C6  UNL     1      54.315  36.743  65.850  1.00  0.00     0.237 C 
HETATM   12  O3  UNL     1      54.292  35.512  65.982  1.00  0.00    -0.283 OA
BRANCH  11  13
HETATM   13  C7  UNL     1      53.269  37.513  66.515  1.00  0.00     0.140 C 
HETATM   14  N1  UNL     1      52.068  37.505  66.078  1.00  0.00    -0.405 N 
ATOM     15  H12 UNL     1      51.854  36.947  65.251  1.00  0.00     0.155 HD
ATOM     16  H11 UNL     1      51.337  38.042  66.543  1.00  0.00     0.155 HD
ENDBRANCH  11  13
ENDBRANCH   9  11
ENDBRANCH   3   9
BRANCH   1  17
HETATM   17  O1  UNL     1      54.752  39.908  60.902  1.00  0.00    -0.353 OA
HETATM   18  C1  UNL     1      53.589  39.351  60.307  1.00  0.00     0.210 C 
ENDBRANCH   1  17
BRANCH   8  19
HETATM   19  O4  UNL     1      54.964  42.350  62.220  1.00  0.00    -0.352 OA
HETATM   20  C12 UNL     1      53.720  42.898  61.821  1.00  0.00     0.210 C 
ENDBRANCH   8  19
TORSDOF 5
ENDMDL
MODEL 5
REMARK VINA RESULT: -6.012714232      0.618      1.248
REMARK  5 active torsions:
REMARK  status: ('A' for Active; 'I' for Inactive)
REMARK    1  A    between atoms: O1_2  and  C2_3 
REMARK    2  A    between atoms: C4_5  and  C5_6 
REMARK    3  A    between atoms: C5_6  and  C6_8 
REMARK    4  A    between atoms: C6_8  and  C7_10 
REMARK    5  A    between atoms: C11_18  and  O4_19 
ROOT
HETATM    1  C2  UNL     1      53.904  41.776  61.953  1.00  0.00     0.103 A 
HETATM    2  C3  UNL     1      53.718  42.426  63.169  1.00  0.00     0.055 A 
HETATM    3  C4  UNL     1      54.082  41.865  64.392  1.00  0.00     0.028 A 
HETATM    4  C8  UNL     1      54.644  40.607  64.318  1.00  0.00    -0.027 A 
HETATM    5  C9  UNL     1      55.103  39.872  65.527  1.00  0.00     0.050 C 
HETATM    6  C10 UNL     1      54.828  39.958  63.089  1.00  0.00     0.054 A 
HETATM    7 BR1  UNL     1      55.611  38.216  63.025  1.00  0.00    -0.047 Br
HETATM    8  C11 UNL     1      54.465  40.526  61.896  1.00  0.00     0.119 A 
ENDROOT
BRANCH   3   9
HETATM    9  C5  UNL     1      53.859  42.529  65.656  1.00  0.00     0.233 C 
HETATM   10  O2  UNL     1      52.637  42.704  65.999  1.00  0.00    -0.283 OA
BRANCH   9  11
HETATM   11  C6  UNL     1      54.825  43.023  66.590  1.00  0.00     0.237 C 
HETATM   12  O3  UNL     1      55.825  43.667  66.246  1.00  0.00    -0.283 OA
BRANCH  11  13
HETATM   13  C7  UNL     1      54.645  42.766  68.015  1.00  0.00     0.140 C 
HETATM   14  N1  UNL     1      54.078  41.696  68.424  1.00  0.00    -0.405 N 
ATOM     15  H12 UNL     1      53.753  41.022  67.730  1.00  0.00     0.155 HD
ATOM     16  H11 UNL     1      53.952  41.516  69.420  1.00  0.00     0.155 HD
ENDBRANCH  11  13
ENDBRANCH   9  11
ENDBRANCH   3   9
BRANCH   1  17
HETATM   17  O1  UNL     1      53.516  42.399  60.775  1.00  0.00    -0.353 OA
HETATM   18  C1  UNL     1      52.164  42.747  60.516  1.00  0.00     0.210 C 
ENDBRANCH   1  17
BRANCH   8  19
HETATM   19  O4  UNL     1      54.656  39.863  60.673  1.00  0.00    -0.352 OA
HETATM   20  C12 UNL     1      53.576  39.270  59.974  1.00  0.00     0.210 C 
ENDBRANCH   8  19
TORSDOF 5
ENDMDL
