MODEL 1
REMARK VINA RESULT: -6.797749474      0.000      0.000
REMARK  6 active torsions:
REMARK  status: ('A' for Active; 'I' for Inactive)
REMARK    1  A    between atoms: C2_2  and  O1_3 
REMARK    2  A    between atoms: O1_3  and  C3_4 
REMARK    3  A    between atoms: C3_4  and  C4_5 
REMARK    4  A    between atoms: C3_4  and  C6_14 
REMARK    5  A    between atoms: N2_7  and  N3_9 
REMARK    6  A    between atoms: N3_9  and  C5_11 
ROOT
HETATM    1  C3  UNL     1      -2.880  12.488   8.092  1.00  0.00     0.220 C 
ENDROOT
BRANCH   1   2
HETATM    2  O1  UNL     1      -2.830  12.501   6.723  1.00  0.00    -0.374 OA
BRANCH   2   3
HETATM    3  C2  UNL     1      -2.416  13.675   6.148  1.00  0.00     0.165 C 
HETATM    4  C1  UNL     1      -3.346  13.989   4.998  1.00  0.00     0.033 C 
ENDBRANCH   2   3
ENDBRANCH   1   2
BRANCH   1   5
HETATM    5  C4  UNL     1      -2.208  11.242   8.560  1.00  0.00     0.141 C 
HETATM    6  N1  UNL     1      -2.890   9.993   8.621  1.00  0.00    -0.083 NA
HETATM    7  N2  UNL     1      -0.972  11.227   8.935  1.00  0.00    -0.287 N 
ATOM      8  H2  UNL     1      -0.527  10.366   9.253  1.00  0.00     0.188 HD
BRANCH   7   9
HETATM    9  N3  UNL     1      -0.263  12.432   8.891  1.00  0.00    -0.277 N 
ATOM     10  H3  UNL     1      -0.629  13.263   9.355  1.00  0.00     0.189 HD
BRANCH   9  11
HETATM   11  C5  UNL     1       0.968  12.484   8.194  1.00  0.00     0.199 C 
HETATM   12  N4  UNL     1       2.087  13.141   8.728  1.00  0.00    -0.068 NA
HETATM   13  S1  UNL     1       1.113  11.771   6.735  1.00  0.00    -0.043 SA
ENDBRANCH   9  11
ENDBRANCH   7   9
ENDBRANCH   1   5
BRANCH   1  14
HETATM   14  C6  UNL     1      -4.241  12.620   8.654  1.00  0.00    -0.022 A 
HETATM   15  C7  UNL     1      -4.363  12.848  10.019  1.00  0.00     0.010 A 
HETATM   16  C8  UNL     1      -5.629  12.973  10.554  1.00  0.00     0.001 A 
HETATM   17  C9  UNL     1      -6.752  12.872   9.744  1.00  0.00     0.000 A 
HETATM   18  C10 UNL     1      -6.651  12.647   8.387  1.00  0.00     0.001 A 
HETATM   19  C11 UNL     1      -5.370  12.522   7.859  1.00  0.00     0.010 A 
ENDBRANCH   1  14
TORSDOF 6
ENDMDL
MODEL 2
REMARK VINA RESULT: -6.790763376      2.336      3.450
REMARK  6 active torsions:
REMARK  status: ('A' for Active; 'I' for Inactive)
REMARK    1  A    between atoms: C2_2  and  O1_3 
REMARK    2  A    between atoms: O1_3  and  C3_4 
REMARK    3  A    between atoms: C3_4  and  C4_5 
REMARK    4  A    between atoms: C3_4  and  C6_14 
REMARK    5  A    between atoms: N2_7  and  N3_9 
REMARK    6  A    between atoms: N3_9  and  C5_11 
ROOT
HETATM    1  C3  UNL     1      -1.899  11.525   8.902  1.00  0.00     0.220 C 
ENDROOT
BRANCH   1   2
HETATM    2  O1  UNL     1      -0.958  12.518   8.840  1.00  0.00    -0.374 OA
BRANCH   2   3
HETATM    3  C2  UNL     1       0.290  12.194   9.308  1.00  0.00     0.165 C 
HETATM    4  C1  UNL     1       1.314  12.795   8.372  1.00  0.00     0.033 C 
ENDBRANCH   2   3
ENDBRANCH   1   2
BRANCH   1   5
HETATM    5  C4  UNL     1      -1.881  10.799   7.600  1.00  0.00     0.141 C 
HETATM    6  N1  UNL     1      -1.721   9.386   7.524  1.00  0.00    -0.083 NA
HETATM    7  N2  UNL     1      -2.011  11.412   6.469  1.00  0.00    -0.287 N 
ATOM      8  H2  UNL     1      -1.996  10.901   5.587  1.00  0.00     0.188 HD
BRANCH   7   9
HETATM    9  N3  UNL     1      -2.171  12.802   6.496  1.00  0.00    -0.277 N 
ATOM     10  H3  UNL     1      -1.508  13.388   7.003  1.00  0.00     0.189 HD
BRANCH   9  11
HETATM   11  C5  UNL     1      -3.265  13.384   5.813  1.00  0.00     0.199 C 
HETATM   12  N4  UNL     1      -4.591  13.130   6.196  1.00  0.00    -0.068 NA
HETATM   13  S1  UNL     1      -3.003  14.378   4.547  1.00  0.00    -0.043 SA
ENDBRANCH   9  11
ENDBRANCH   7   9
ENDBRANCH   1   5
BRANCH   1  14
HETATM   14  C6  UNL     1      -3.257  11.993   9.250  1.00  0.00    -0.022 A 
HETATM   15  C7  UNL     1      -3.394  13.279   9.758  1.00  0.00     0.010 A 
HETATM   16  C8  UNL     1      -4.659  13.724  10.086  1.00  0.00     0.001 A 
HETATM   17  C9  UNL     1      -5.765  12.905   9.911  1.00  0.00     0.000 A 
HETATM   18  C10 UNL     1      -5.650  11.626   9.407  1.00  0.00     0.001 A 
HETATM   19  C11 UNL     1      -4.370  11.187   9.080  1.00  0.00     0.010 A 
ENDBRANCH   1  14
TORSDOF 6
ENDMDL
MODEL 3
REMARK VINA RESULT: -6.556363718      3.222      5.183
REMARK  6 active torsions:
REMARK  status: ('A' for Active; 'I' for Inactive)
REMARK    1  A    between atoms: C2_2  and  O1_3 
REMARK    2  A    between atoms: O1_3  and  C3_4 
REMARK    3  A    between atoms: C3_4  and  C4_5 
REMARK    4  A    between atoms: C3_4  and  C6_14 
REMARK    5  A    between atoms: N2_7  and  N3_9 
REMARK    6  A    between atoms: N3_9  and  C5_11 
ROOT
HETATM    1  C3  UNL     1      -2.499  11.868   5.204  1.00  0.00     0.220 C 
ENDROOT
BRANCH   1   2
HETATM    2  O1  UNL     1      -2.290  11.728   3.858  1.00  0.00    -0.374 OA
BRANCH   2   3
HETATM    3  C2  UNL     1      -3.365  11.298   3.124  1.00  0.00     0.165 C 
HETATM    4  C1  UNL     1      -2.889  11.004   1.719  1.00  0.00     0.033 C 
ENDBRANCH   2   3
ENDBRANCH   1   2
BRANCH   1   5
HETATM    5  C4  UNL     1      -2.760  13.310   5.477  1.00  0.00     0.141 C 
HETATM    6  N1  UNL     1      -2.374  14.334   4.565  1.00  0.00    -0.083 NA
HETATM    7  N2  UNL     1      -3.349  13.710   6.555  1.00  0.00    -0.287 N 
ATOM      8  H2  UNL     1      -3.520  14.700   6.727  1.00  0.00     0.188 HD
BRANCH   7   9
HETATM    9  N3  UNL     1      -3.746  12.738   7.480  1.00  0.00    -0.277 N 
ATOM     10  H3  UNL     1      -4.288  11.929   7.177  1.00  0.00     0.189 HD
BRANCH   9  11
HETATM   11  C5  UNL     1      -3.386  12.891   8.840  1.00  0.00     0.199 C 
HETATM   12  N4  UNL     1      -2.048  12.823   9.258  1.00  0.00    -0.068 NA
HETATM   13  S1  UNL     1      -4.535  13.154   9.966  1.00  0.00    -0.043 SA
ENDBRANCH   9  11
ENDBRANCH   7   9
ENDBRANCH   1   5
BRANCH   1  14
HETATM   14  C6  UNL     1      -1.406  11.340   6.049  1.00  0.00    -0.022 A 
HETATM   15  C7  UNL     1      -1.678  10.239   6.852  1.00  0.00     0.010 A 
HETATM   16  C8  UNL     1      -0.665   9.739   7.645  1.00  0.00     0.001 A 
HETATM   17  C9  UNL     1       0.594  10.324   7.638  1.00  0.00     0.000 A 
HETATM   18  C10 UNL     1       0.882  11.417   6.848  1.00  0.00     0.001 A 
HETATM   19  C11 UNL     1      -0.146  11.913   6.053  1.00  0.00     0.010 A 
ENDBRANCH   1  14
TORSDOF 6
ENDMDL
MODEL 4
REMARK VINA RESULT: -6.548710546      3.227      5.180
REMARK  6 active torsions:
REMARK  status: ('A' for Active; 'I' for Inactive)
REMARK    1  A    between atoms: C2_2  and  O1_3 
REMARK    2  A    between atoms: O1_3  and  C3_4 
REMARK    3  A    between atoms: C3_4  and  C4_5 
REMARK    4  A    between atoms: C3_4  and  C6_14 
REMARK    5  A    between atoms: N2_7  and  N3_9 
REMARK    6  A    between atoms: N3_9  and  C5_11 
ROOT
HETATM    1  C3  UNL     1      -2.513  11.864   5.204  1.00  0.00     0.220 C 
ENDROOT
BRANCH   1   2
HETATM    2  O1  UNL     1      -2.296  11.729   3.859  1.00  0.00    -0.374 OA
BRANCH   2   3
HETATM    3  C2  UNL     1      -3.369  11.312   3.115  1.00  0.00     0.165 C 
HETATM    4  C1  UNL     1      -2.878  10.978   1.724  1.00  0.00     0.033 C 
ENDBRANCH   2   3
ENDBRANCH   1   2
BRANCH   1   5
HETATM    5  C4  UNL     1      -2.769  13.307   5.481  1.00  0.00     0.141 C 
HETATM    6  N1  UNL     1      -2.382  14.331   4.571  1.00  0.00    -0.083 NA
HETATM    7  N2  UNL     1      -3.355  13.705   6.561  1.00  0.00    -0.287 N 
ATOM      8  H2  UNL     1      -3.522  14.696   6.736  1.00  0.00     0.188 HD
BRANCH   7   9
HETATM    9  N3  UNL     1      -3.753  12.732   7.484  1.00  0.00    -0.277 N 
ATOM     10  H3  UNL     1      -4.294  11.923   7.180  1.00  0.00     0.189 HD
BRANCH   9  11
HETATM   11  C5  UNL     1      -3.395  12.884   8.845  1.00  0.00     0.199 C 
HETATM   12  N4  UNL     1      -2.058  12.814   9.265  1.00  0.00    -0.068 NA
HETATM   13  S1  UNL     1      -4.547  13.147   9.969  1.00  0.00    -0.043 SA
ENDBRANCH   9  11
ENDBRANCH   7   9
ENDBRANCH   1   5
BRANCH   1  14
HETATM   14  C6  UNL     1      -1.429  11.327   6.054  1.00  0.00    -0.022 A 
HETATM   15  C7  UNL     1      -0.190  11.954   6.004  1.00  0.00     0.010 A 
HETATM   16  C8  UNL     1       0.828  11.460   6.794  1.00  0.00     0.001 A 
HETATM   17  C9  UNL     1       0.616  10.363   7.618  1.00  0.00     0.000 A 
HETATM   18  C10 UNL     1      -0.607   9.728   7.681  1.00  0.00     0.001 A 
HETATM   19  C11 UNL     1      -1.625  10.234   6.880  1.00  0.00     0.010 A 
ENDBRANCH   1  14
TORSDOF 6
ENDMDL
MODEL 5
REMARK VINA RESULT: -6.541931254      2.955      5.346
REMARK  6 active torsions:
REMARK  status: ('A' for Active; 'I' for Inactive)
REMARK    1  A    between atoms: C2_2  and  O1_3 
REMARK    2  A    between atoms: O1_3  and  C3_4 
REMARK    3  A    between atoms: C3_4  and  C4_5 
REMARK    4  A    between atoms: C3_4  and  C6_14 
REMARK    5  A    between atoms: N2_7  and  N3_9 
REMARK    6  A    between atoms: N3_9  and  C5_11 
ROOT
HETATM    1  C3  UNL     1      -1.174  11.696   7.547  1.00  0.00     0.220 C 
ENDROOT
BRANCH   1   2
HETATM    2  O1  UNL     1       0.092  11.414   7.983  1.00  0.00    -0.374 OA
BRANCH   2   3
HETATM    3  C2  UNL     1       0.532  12.138   9.061  1.00  0.00     0.165 C 
HETATM    4  C1  UNL     1       1.706  12.981   8.614  1.00  0.00     0.033 C 
ENDBRANCH   2   3
ENDBRANCH   1   2
BRANCH   1   5
HETATM    5  C4  UNL     1      -2.061  10.572   7.963  1.00  0.00     0.141 C 
HETATM    6  N1  UNL     1      -1.794   9.222   7.593  1.00  0.00    -0.083 NA
HETATM    7  N2  UNL     1      -3.118  10.760   8.681  1.00  0.00    -0.287 N 
ATOM      8  H2  UNL     1      -3.715   9.980   8.957  1.00  0.00     0.188 HD
BRANCH   7   9
HETATM    9  N3  UNL     1      -3.419  12.071   9.067  1.00  0.00    -0.277 N 
ATOM     10  H3  UNL     1      -2.703  12.661   9.491  1.00  0.00     0.189 HD
BRANCH   9  11
HETATM   11  C5  UNL     1      -4.728  12.568   8.863  1.00  0.00     0.199 C 
HETATM   12  N4  UNL     1      -5.156  13.017   7.605  1.00  0.00    -0.068 NA
HETATM   13  S1  UNL     1      -5.783  12.628  10.106  1.00  0.00    -0.043 SA
ENDBRANCH   9  11
ENDBRANCH   7   9
ENDBRANCH   1   5
BRANCH   1  14
HETATM   14  C6  UNL     1      -1.274  11.964   6.096  1.00  0.00    -0.022 A 
HETATM   15  C7  UNL     1      -0.111  12.295   5.413  1.00  0.00     0.010 A 
HETATM   16  C8  UNL     1      -0.194  12.547   4.058  1.00  0.00     0.001 A 
HETATM   17  C9  UNL     1      -1.413  12.470   3.397  1.00  0.00     0.000 A 
HETATM   18  C10 UNL     1      -2.578  12.142   4.059  1.00  0.00     0.001 A 
HETATM   19  C11 UNL     1      -2.482  11.891   5.424  1.00  0.00     0.010 A 
ENDBRANCH   1  14
TORSDOF 6
ENDMDL
