MODEL 1
REMARK VINA RESULT: -7.415623089      0.000      0.000
REMARK  6 active torsions:
REMARK  status: ('A' for Active; 'I' for Inactive)
REMARK    1  A    between atoms: C6_6  and  C7_7 
REMARK    2  A    between atoms: C7_7  and  C8_8 
REMARK    3  A    between atoms: C8_8  and  N1_9 
REMARK    4  A    between atoms: N1_9  and  C9_11 
REMARK    5  A    between atoms: N2_13  and  C11_15 
REMARK    6  A    between atoms: C11_15  and  C13_17 
ROOT
HETATM    1  C1  UNL     1      -6.882  12.509  10.583  1.00  0.00     0.020 C 
HETATM    2  C2  UNL     1      -5.945  12.654   9.840  1.00  0.00    -0.052 C 
HETATM    3  C3  UNL     1      -4.798  12.826   8.966  1.00  0.00     0.128 A 
HETATM    4  C4  UNL     1      -3.467  12.634   9.333  1.00  0.00     0.049 A 
HETATM    5  C5  UNL     1      -2.674  12.893   8.238  1.00  0.00     0.036 A 
HETATM    6  C6  UNL     1      -3.564  13.242   7.225  1.00  0.00     0.056 A 
HETATM    7  O1  UNL     1      -4.771  13.183   7.711  1.00  0.00    -0.306 OA
ENDROOT
BRANCH   6   8
HETATM    8  C7  UNL     1      -3.110  13.605   5.845  1.00  0.00     0.084 C 
BRANCH   8   9
HETATM    9  C8  UNL     1      -3.055  12.367   4.978  1.00  0.00     0.127 C 
BRANCH   9  10
HETATM   10  N1  UNL     1      -1.864  11.626   5.340  1.00  0.00    -0.380 N 
ATOM     11  H1  UNL     1      -1.970  10.712   5.780  1.00  0.00     0.160 HD
BRANCH  10  12
HETATM   12  C9  UNL     1      -0.565  12.119   5.107  1.00  0.00     0.069 C 
HETATM   13  C10 UNL     1      -0.164  12.673   3.776  1.00  0.00     0.088 C 
HETATM   14  N2  UNL     1       0.341  12.126   6.012  1.00  0.00    -0.369 N 
ATOM     15  H2  UNL     1       1.249  12.504   5.740  1.00  0.00     0.161 HD
BRANCH  14  16
HETATM   16  C11 UNL     1       0.228  11.665   7.354  1.00  0.00     0.143 C 
HETATM   17  C12 UNL     1       0.369  10.169   7.509  1.00  0.00     0.040 C 
BRANCH  16  18
HETATM   18  C13 UNL     1       1.222  12.359   8.203  1.00  0.00     0.109 C 
HETATM   19  N3  UNL     1       2.203  11.693   8.692  1.00  0.00    -0.389 N 
ATOM     20  H32 UNL     1       2.298  10.696   8.499  1.00  0.00     0.157 HD
ATOM     21  H31 UNL     1       2.888  12.172   9.278  1.00  0.00     0.157 HD
HETATM   22  N4  UNL     1       1.091  13.732   8.469  1.00  0.00    -0.086 NA
ENDBRANCH  16  18
ENDBRANCH  14  16
ENDBRANCH  10  12
ENDBRANCH   9  10
ENDBRANCH   8   9
ENDBRANCH   6   8
TORSDOF 6
ENDMDL
MODEL 2
REMARK VINA RESULT: -7.091566268      1.985      3.875
REMARK  6 active torsions:
REMARK  status: ('A' for Active; 'I' for Inactive)
REMARK    1  A    between atoms: C6_6  and  C7_7 
REMARK    2  A    between atoms: C7_7  and  C8_8 
REMARK    3  A    between atoms: C8_8  and  N1_9 
REMARK    4  A    between atoms: N1_9  and  C9_11 
REMARK    5  A    between atoms: N2_13  and  C11_15 
REMARK    6  A    between atoms: C11_15  and  C13_17 
ROOT
HETATM    1  C1  UNL     1      -7.850  12.225   7.874  1.00  0.00     0.020 C 
HETATM    2  C2  UNL     1      -6.740  12.387   8.313  1.00  0.00    -0.052 C 
HETATM    3  C3  UNL     1      -5.412  12.600   8.860  1.00  0.00     0.128 A 
HETATM    4  C4  UNL     1      -5.122  13.321  10.018  1.00  0.00     0.049 A 
HETATM    5  C5  UNL     1      -3.759  13.301  10.211  1.00  0.00     0.036 A 
HETATM    6  C6  UNL     1      -3.257  12.557   9.145  1.00  0.00     0.056 A 
HETATM    7  O1  UNL     1      -4.262  12.184   8.404  1.00  0.00    -0.306 OA
ENDROOT
BRANCH   6   8
HETATM    8  C7  UNL     1      -1.795  12.289   8.970  1.00  0.00     0.084 C 
BRANCH   8   9
HETATM    9  C8  UNL     1      -1.576  10.835   8.615  1.00  0.00     0.127 C 
BRANCH   9  10
HETATM   10  N1  UNL     1      -1.660  10.713   7.175  1.00  0.00    -0.380 N 
ATOM     11  H1  UNL     1      -2.327  10.050   6.777  1.00  0.00     0.160 HD
BRANCH  10  12
HETATM   12  C9  UNL     1      -0.859  11.474   6.302  1.00  0.00     0.069 C 
HETATM   13  C10 UNL     1       0.634  11.449   6.386  1.00  0.00     0.088 C 
HETATM   14  N2  UNL     1      -1.356  12.224   5.390  1.00  0.00    -0.369 N 
ATOM     15  H2  UNL     1      -0.688  12.734   4.811  1.00  0.00     0.161 HD
BRANCH  14  16
HETATM   16  C11 UNL     1      -2.732  12.429   5.091  1.00  0.00     0.143 C 
HETATM   17  C12 UNL     1      -3.256  13.790   5.487  1.00  0.00     0.040 C 
BRANCH  16  18
HETATM   18  C13 UNL     1      -2.969  12.194   3.649  1.00  0.00     0.109 C 
HETATM   19  N3  UNL     1      -1.965  12.028   2.868  1.00  0.00    -0.389 N 
ATOM     20  H32 UNL     1      -1.014  12.060   3.234  1.00  0.00     0.157 HD
ATOM     21  H31 UNL     1      -2.129  11.866   1.874  1.00  0.00     0.157 HD
HETATM   22  N4  UNL     1      -4.278  12.150   3.145  1.00  0.00    -0.086 NA
ENDBRANCH  16  18
ENDBRANCH  14  16
ENDBRANCH  10  12
ENDBRANCH   9  10
ENDBRANCH   8   9
ENDBRANCH   6   8
TORSDOF 6
ENDMDL
MODEL 3
REMARK VINA RESULT: -7.087565610      2.951      6.222
REMARK  6 active torsions:
REMARK  status: ('A' for Active; 'I' for Inactive)
REMARK    1  A    between atoms: C6_6  and  C7_7 
REMARK    2  A    between atoms: C7_7  and  C8_8 
REMARK    3  A    between atoms: C8_8  and  N1_9 
REMARK    4  A    between atoms: N1_9  and  C9_11 
REMARK    5  A    between atoms: N2_13  and  C11_15 
REMARK    6  A    between atoms: C11_15  and  C13_17 
ROOT
HETATM    1  C1  UNL     1       0.180  13.218   2.977  1.00  0.00     0.020 C 
HETATM    2  C2  UNL     1       0.146  12.611   4.018  1.00  0.00    -0.052 C 
HETATM    3  C3  UNL     1       0.132  11.882   5.273  1.00  0.00     0.128 A 
HETATM    4  C4  UNL     1       1.226  11.712   6.120  1.00  0.00     0.049 A 
HETATM    5  C5  UNL     1       0.821  10.967   7.205  1.00  0.00     0.036 A 
HETATM    6  C6  UNL     1      -0.527  10.703   6.977  1.00  0.00     0.056 A 
HETATM    7  O1  UNL     1      -0.861  11.258   5.847  1.00  0.00    -0.306 OA
ENDROOT
BRANCH   6   8
HETATM    8  C7  UNL     1      -1.363   9.906   7.930  1.00  0.00     0.084 C 
BRANCH   8   9
HETATM    9  C8  UNL     1      -2.658  10.634   8.212  1.00  0.00     0.127 C 
BRANCH   9  10
HETATM   10  N1  UNL     1      -2.412  12.053   8.057  1.00  0.00    -0.380 N 
ATOM     11  H1  UNL     1      -1.519  12.432   8.372  1.00  0.00     0.160 HD
BRANCH  10  12
HETATM   12  C9  UNL     1      -3.358  12.928   7.488  1.00  0.00     0.069 C 
HETATM   13  C10 UNL     1      -3.135  13.559   6.150  1.00  0.00     0.088 C 
HETATM   14  N2  UNL     1      -4.455  13.232   8.075  1.00  0.00    -0.369 N 
ATOM     15  H2  UNL     1      -5.071  13.875   7.577  1.00  0.00     0.161 HD
BRANCH  14  16
HETATM   16  C11 UNL     1      -4.915  12.775   9.342  1.00  0.00     0.143 C 
HETATM   17  C12 UNL     1      -4.418  13.591  10.512  1.00  0.00     0.040 C 
BRANCH  16  18
HETATM   18  C13 UNL     1      -6.394  12.728   9.348  1.00  0.00     0.109 C 
HETATM   19  N3  UNL     1      -6.999  12.149  10.319  1.00  0.00    -0.389 N 
ATOM     20  H32 UNL     1      -6.468  11.724  11.080  1.00  0.00     0.157 HD
ATOM     21  H31 UNL     1      -8.019  12.117  10.323  1.00  0.00     0.157 HD
HETATM   22  N4  UNL     1      -7.125  13.313   8.302  1.00  0.00    -0.086 NA
ENDBRANCH  16  18
ENDBRANCH  14  16
ENDBRANCH  10  12
ENDBRANCH   9  10
ENDBRANCH   8   9
ENDBRANCH   6   8
TORSDOF 6
ENDMDL
MODEL 4
REMARK VINA RESULT: -7.067702234      1.579      3.451
REMARK  6 active torsions:
REMARK  status: ('A' for Active; 'I' for Inactive)
REMARK    1  A    between atoms: C6_6  and  C7_7 
REMARK    2  A    between atoms: C7_7  and  C8_8 
REMARK    3  A    between atoms: C8_8  and  N1_9 
REMARK    4  A    between atoms: N1_9  and  C9_11 
REMARK    5  A    between atoms: N2_13  and  C11_15 
REMARK    6  A    between atoms: C11_15  and  C13_17 
ROOT
HETATM    1  C1  UNL     1      -6.674  12.771  10.364  1.00  0.00     0.020 C 
HETATM    2  C2  UNL     1      -5.595  12.449   9.936  1.00  0.00    -0.052 C 
HETATM    3  C3  UNL     1      -4.285  12.086   9.424  1.00  0.00     0.128 A 
HETATM    4  C4  UNL     1      -3.148  12.891   9.472  1.00  0.00     0.049 A 
HETATM    5  C5  UNL     1      -2.107  12.204   8.890  1.00  0.00     0.036 A 
HETATM    6  C6  UNL     1      -2.655  10.985   8.498  1.00  0.00     0.056 A 
HETATM    7  O1  UNL     1      -3.913  10.981   8.836  1.00  0.00    -0.306 OA
ENDROOT
BRANCH   6   8
HETATM    8  C7  UNL     1      -1.851   9.924   7.814  1.00  0.00     0.084 C 
BRANCH   8   9
HETATM    9  C8  UNL     1      -0.412   9.990   8.274  1.00  0.00     0.127 C 
BRANCH   9  10
HETATM   10  N1  UNL     1       0.382  10.496   7.174  1.00  0.00    -0.380 N 
ATOM     11  H1  UNL     1       0.715   9.841   6.467  1.00  0.00     0.160 HD
BRANCH  10  12
HETATM   12  C9  UNL     1       0.712  11.859   7.043  1.00  0.00     0.069 C 
HETATM   13  C10 UNL     1       1.589  12.552   8.036  1.00  0.00     0.088 C 
HETATM   14  N2  UNL     1       0.286  12.580   6.073  1.00  0.00    -0.369 N 
ATOM     15  H2  UNL     1       0.583  13.556   6.072  1.00  0.00     0.161 HD
BRANCH  14  16
HETATM   16  C11 UNL     1      -0.553  12.176   4.998  1.00  0.00     0.143 C 
HETATM   17  C12 UNL     1      -2.018  12.482   5.207  1.00  0.00     0.040 C 
BRANCH  16  18
HETATM   18  C13 UNL     1      -0.081  12.793   3.738  1.00  0.00     0.109 C 
HETATM   19  N3  UNL     1      -0.739  13.773   3.235  1.00  0.00    -0.389 N 
ATOM     20  H32 UNL     1      -1.579  14.122   3.695  1.00  0.00     0.157 HD
ATOM     21  H31 UNL     1      -0.413  14.198   2.366  1.00  0.00     0.157 HD
HETATM   22  N4  UNL     1       1.075  12.312   3.104  1.00  0.00    -0.086 NA
ENDBRANCH  16  18
ENDBRANCH  14  16
ENDBRANCH  10  12
ENDBRANCH   9  10
ENDBRANCH   8   9
ENDBRANCH   6   8
TORSDOF 6
ENDMDL
MODEL 5
REMARK VINA RESULT: -7.040369256      1.450      1.992
REMARK  6 active torsions:
REMARK  status: ('A' for Active; 'I' for Inactive)
REMARK    1  A    between atoms: C6_6  and  C7_7 
REMARK    2  A    between atoms: C7_7  and  C8_8 
REMARK    3  A    between atoms: C8_8  and  N1_9 
REMARK    4  A    between atoms: N1_9  and  C9_11 
REMARK    5  A    between atoms: N2_13  and  C11_15 
REMARK    6  A    between atoms: C11_15  and  C13_17 
ROOT
HETATM    1  C1  UNL     1      -8.059  12.506   8.759  1.00  0.00     0.020 C 
HETATM    2  C2  UNL     1      -6.861  12.604   8.694  1.00  0.00    -0.052 C 
HETATM    3  C3  UNL     1      -5.414  12.724   8.643  1.00  0.00     0.128 A 
HETATM    4  C4  UNL     1      -4.563  12.704   9.747  1.00  0.00     0.049 A 
HETATM    5  C5  UNL     1      -3.269  12.844   9.298  1.00  0.00     0.036 A 
HETATM    6  C6  UNL     1      -3.379  12.948   7.913  1.00  0.00     0.056 A 
HETATM    7  O1  UNL     1      -4.641  12.872   7.601  1.00  0.00    -0.306 OA
ENDROOT
BRANCH   6   8
HETATM    8  C7  UNL     1      -2.187  13.116   7.023  1.00  0.00     0.084 C 
BRANCH   8   9
HETATM    9  C8  UNL     1      -2.268  12.148   5.864  1.00  0.00     0.127 C 
BRANCH   9  10
HETATM   10  N1  UNL     1      -1.162  11.220   5.985  1.00  0.00    -0.380 N 
ATOM     11  H1  UNL     1      -0.469  11.184   5.238  1.00  0.00     0.160 HD
BRANCH  10  12
HETATM   12  C9  UNL     1      -1.007  10.367   7.095  1.00  0.00     0.069 C 
HETATM   13  C10 UNL     1      -2.094   9.432   7.522  1.00  0.00     0.088 C 
HETATM   14  N2  UNL     1       0.064  10.339   7.798  1.00  0.00    -0.369 N 
ATOM     15  H2  UNL     1       0.073   9.686   8.581  1.00  0.00     0.161 HD
BRANCH  14  16
HETATM   16  C11 UNL     1       1.242  11.116   7.612  1.00  0.00     0.143 C 
HETATM   17  C12 UNL     1       1.382  11.707   6.228  1.00  0.00     0.040 C 
BRANCH  16  18
HETATM   18  C13 UNL     1       1.297  12.188   8.630  1.00  0.00     0.109 C 
HETATM   19  N3  UNL     1       0.310  12.340   9.435  1.00  0.00    -0.389 N 
ATOM     20  H32 UNL     1      -0.506  11.731   9.374  1.00  0.00     0.157 HD
ATOM     21  H31 UNL     1       0.348  13.080  10.136  1.00  0.00     0.157 HD
HETATM   22  N4  UNL     1       2.419  13.028   8.713  1.00  0.00    -0.086 NA
ENDBRANCH  16  18
ENDBRANCH  14  16
ENDBRANCH  10  12
ENDBRANCH   9  10
ENDBRANCH   8   9
ENDBRANCH   6   8
TORSDOF 6
ENDMDL
