MODEL 1
REMARK VINA RESULT: -7.388340531      0.000      0.000
REMARK  9 active torsions:
REMARK  status: ('A' for Active; 'I' for Inactive)
REMARK    1  A    between atoms: C5_5  and  C6_6 
REMARK    2  A    between atoms: C6_6  and  C7_7 
REMARK    3  A    between atoms: C7_7  and  N1_8 
REMARK    4  A    between atoms: C7_7  and  C8_12 
REMARK    5  A    between atoms: C8_12  and  C9_13 
REMARK    6  A    between atoms: C9_13  and  N2_14 
REMARK    7  A    between atoms: C9_13  and  C10_18 
REMARK    8  A    between atoms: C14_22  and  N3_23 
REMARK    9  A    between atoms: N3_23  and  O1_25 
ROOT
HETATM    1  C7  UNL     1      -2.133  11.870   5.951  1.00  0.00     0.189 C 
ENDROOT
BRANCH   1   2
HETATM    2  C6  UNL     1      -2.205  13.046   6.864  1.00  0.00     0.071 C 
BRANCH   2   3
HETATM    3  C5  UNL     1      -3.317  12.929   7.837  1.00  0.00    -0.054 A 
HETATM    4  C4  UNL     1      -3.035  13.041   9.197  1.00  0.00     0.008 A 
HETATM    5  C3  UNL     1      -4.058  12.935  10.110  1.00  0.00     0.009 A 
HETATM    6  C2  UNL     1      -5.377  12.715   9.695  1.00  0.00    -0.033 A 
HETATM    7  C1  UNL     1      -6.442  12.607  10.723  1.00  0.00     0.050 C 
HETATM    8  C14 UNL     1      -5.681  12.600   8.364  1.00  0.00     0.060 A 
HETATM    9  C13 UNL     1      -4.619  12.714   7.458  1.00  0.00     0.039 A 
BRANCH   8  10
HETATM   10  N3  UNL     1      -6.953  12.381   7.827  1.00  0.00    -0.269 N 
ATOM     11  H3  UNL     1      -7.224  11.459   7.486  1.00  0.00     0.194 HD
BRANCH  10  12
HETATM   12  O1  UNL     1      -7.791  13.389   7.771  1.00  0.00    -0.289 OA
ATOM     13  H1  UNL     1      -7.723  14.071   8.429  1.00  0.00     0.244 HD
ENDBRANCH  10  12
ENDBRANCH   8  10
ENDBRANCH   2   3
ENDBRANCH   1   2
BRANCH   1  14
HETATM   14  N1  UNL     1      -1.730  12.376   4.630  1.00  0.00    -0.075 N 
ATOM     15  H13 UNL     1      -2.117  13.295   4.418  1.00  0.00     0.274 HD
ATOM     16  H12 UNL     1      -0.745  12.637   4.585  1.00  0.00     0.274 HD
ATOM     17  H11 UNL     1      -1.988  11.664   3.947  1.00  0.00     0.274 HD
ENDBRANCH   1  14
BRANCH   1  18
HETATM   18  C8  UNL     1      -1.139  10.860   6.456  1.00  0.00     0.066 C 
BRANCH  18  19
HETATM   19  C9  UNL     1       0.006  11.611   7.125  1.00  0.00     0.188 C 
BRANCH  19  20
HETATM   20  N2  UNL     1       1.181  11.466   6.285  1.00  0.00    -0.075 N 
ATOM     21  H23 UNL     1       1.126  12.018   5.428  1.00  0.00     0.274 HD
ATOM     22  H22 UNL     1       2.008  11.914   6.680  1.00  0.00     0.274 HD
ATOM     23  H21 UNL     1       1.316  10.470   6.108  1.00  0.00     0.274 HD
ENDBRANCH  19  20
BRANCH  19  24
HETATM   24  C10 UNL     1       0.341  11.024   8.479  1.00  0.00     0.008 C 
HETATM   25  C11 UNL     1      -0.779  10.186   9.026  1.00  0.00     0.011 C 
HETATM   26  C12 UNL     1       0.541  12.189   9.427  1.00  0.00     0.011 C 
ENDBRANCH  19  24
ENDBRANCH  18  19
ENDBRANCH   1  18
TORSDOF 9
ENDMDL
MODEL 2
REMARK VINA RESULT: -6.267384195      2.905      5.000
REMARK  9 active torsions:
REMARK  status: ('A' for Active; 'I' for Inactive)
REMARK    1  A    between atoms: C5_5  and  C6_6 
REMARK    2  A    between atoms: C6_6  and  C7_7 
REMARK    3  A    between atoms: C7_7  and  N1_8 
REMARK    4  A    between atoms: C7_7  and  C8_12 
REMARK    5  A    between atoms: C8_12  and  C9_13 
REMARK    6  A    between atoms: C9_13  and  N2_14 
REMARK    7  A    between atoms: C9_13  and  C10_18 
REMARK    8  A    between atoms: C14_22  and  N3_23 
REMARK    9  A    between atoms: N3_23  and  O1_25 
ROOT
HETATM    1  C7  UNL     1      -2.971  12.881   8.111  1.00  0.00     0.189 C 
ENDROOT
BRANCH   1   2
HETATM    2  C6  UNL     1      -3.815  12.879   6.881  1.00  0.00     0.071 C 
BRANCH   2   3
HETATM    3  C5  UNL     1      -3.030  13.200   5.666  1.00  0.00    -0.054 A 
HETATM    4  C4  UNL     1      -2.069  12.291   5.226  1.00  0.00     0.008 A 
HETATM    5  C3  UNL     1      -1.336  12.578   4.099  1.00  0.00     0.009 A 
HETATM    6  C2  UNL     1      -1.537  13.767   3.388  1.00  0.00    -0.033 A 
HETATM    7  C1  UNL     1      -0.716  14.025   2.179  1.00  0.00     0.050 C 
HETATM    8  C14 UNL     1      -2.474  14.678   3.799  1.00  0.00     0.060 A 
HETATM    9  C13 UNL     1      -3.207  14.358   4.950  1.00  0.00     0.039 A 
BRANCH   8  10
HETATM   10  N3  UNL     1      -2.767  15.895   3.177  1.00  0.00    -0.269 N 
ATOM     11  H3  UNL     1      -2.452  16.084   2.226  1.00  0.00     0.194 HD
BRANCH  10  12
HETATM   12  O1  UNL     1      -3.457  16.789   3.846  1.00  0.00    -0.289 OA
ATOM     13  H1  UNL     1      -4.326  16.556   4.148  1.00  0.00     0.244 HD
ENDBRANCH  10  12
ENDBRANCH   8  10
ENDBRANCH   2   3
ENDBRANCH   1   2
BRANCH   1  14
HETATM   14  N1  UNL     1      -3.738  13.576   9.155  1.00  0.00    -0.075 N 
ATOM     15  H13 UNL     1      -4.448  14.205   8.781  1.00  0.00     0.274 HD
ATOM     16  H12 UNL     1      -4.369  12.959   9.667  1.00  0.00     0.274 HD
ATOM     17  H11 UNL     1      -3.062  14.046   9.757  1.00  0.00     0.274 HD
ENDBRANCH   1  14
BRANCH   1  18
HETATM   18  C8  UNL     1      -2.646  11.476   8.539  1.00  0.00     0.066 C 
BRANCH  18  19
HETATM   19  C9  UNL     1      -1.173  11.426   8.930  1.00  0.00     0.188 C 
BRANCH  19  20
HETATM   20  N2  UNL     1      -0.542  12.637   8.435  1.00  0.00    -0.075 N 
ATOM     21  H23 UNL     1      -1.130  13.464   8.547  1.00  0.00     0.274 HD
ATOM     22  H22 UNL     1       0.236  12.944   9.018  1.00  0.00     0.274 HD
ATOM     23  H21 UNL     1      -0.270  12.472   7.466  1.00  0.00     0.274 HD
ENDBRANCH  19  20
BRANCH  19  24
HETATM   24  C10 UNL     1      -0.466  10.252   8.289  1.00  0.00     0.008 C 
HETATM   25  C11 UNL     1       0.646  10.689   7.378  1.00  0.00     0.011 C 
HETATM   26  C12 UNL     1      -1.492   9.531   7.439  1.00  0.00     0.011 C 
ENDBRANCH  19  24
ENDBRANCH  18  19
ENDBRANCH   1  18
TORSDOF 9
ENDMDL
MODEL 3
REMARK VINA RESULT: -6.258652195      2.734      4.898
REMARK  9 active torsions:
REMARK  status: ('A' for Active; 'I' for Inactive)
REMARK    1  A    between atoms: C5_5  and  C6_6 
REMARK    2  A    between atoms: C6_6  and  C7_7 
REMARK    3  A    between atoms: C7_7  and  N1_8 
REMARK    4  A    between atoms: C7_7  and  C8_12 
REMARK    5  A    between atoms: C8_12  and  C9_13 
REMARK    6  A    between atoms: C9_13  and  N2_14 
REMARK    7  A    between atoms: C9_13  and  C10_18 
REMARK    8  A    between atoms: C14_22  and  N3_23 
REMARK    9  A    between atoms: N3_23  and  O1_25 
ROOT
HETATM    1  C7  UNL     1      -2.860  12.830   8.198  1.00  0.00     0.189 C 
ENDROOT
BRANCH   1   2
HETATM    2  C6  UNL     1      -3.698  13.035   6.982  1.00  0.00     0.071 C 
BRANCH   2   3
HETATM    3  C5  UNL     1      -2.934  12.799   5.733  1.00  0.00    -0.054 A 
HETATM    4  C4  UNL     1      -1.547  12.936   5.756  1.00  0.00     0.008 A 
HETATM    5  C3  UNL     1      -0.829  12.719   4.605  1.00  0.00     0.009 A 
HETATM    6  C2  UNL     1      -1.466  12.363   3.410  1.00  0.00    -0.033 A 
HETATM    7  C1  UNL     1      -0.641  12.141   2.197  1.00  0.00     0.050 C 
HETATM    8  C14 UNL     1      -2.829  12.222   3.360  1.00  0.00     0.060 A 
HETATM    9  C13 UNL     1      -3.534  12.449   4.549  1.00  0.00     0.039 A 
BRANCH   8  10
HETATM   10  N3  UNL     1      -3.579  11.873   2.233  1.00  0.00    -0.269 N 
ATOM     11  H3  UNL     1      -3.276  11.116   1.619  1.00  0.00     0.194 HD
BRANCH  10  12
HETATM   12  O1  UNL     1      -4.680  12.540   1.984  1.00  0.00    -0.289 OA
ATOM     13  H1  UNL     1      -5.249  12.230   1.288  1.00  0.00     0.244 HD
ENDBRANCH  10  12
ENDBRANCH   8  10
ENDBRANCH   2   3
ENDBRANCH   1   2
BRANCH   1  14
HETATM   14  N1  UNL     1      -3.527  13.537   9.301  1.00  0.00    -0.075 N 
ATOM     15  H13 UNL     1      -4.110  14.312   8.987  1.00  0.00     0.274 HD
ATOM     16  H12 UNL     1      -4.267  12.989   9.740  1.00  0.00     0.274 HD
ATOM     17  H11 UNL     1      -2.798  13.823   9.955  1.00  0.00     0.274 HD
ENDBRANCH   1  14
BRANCH   1  18
HETATM   18  C8  UNL     1      -2.725  11.365   8.514  1.00  0.00     0.066 C 
BRANCH  18  19
HETATM   19  C9  UNL     1      -1.317  11.120   9.046  1.00  0.00     0.188 C 
BRANCH  19  20
HETATM   20  N2  UNL     1      -0.564  12.351   8.886  1.00  0.00    -0.075 N 
ATOM     21  H23 UNL     1      -0.697  12.781   7.970  1.00  0.00     0.274 HD
ATOM     22  H22 UNL     1      -0.932  13.117   9.449  1.00  0.00     0.274 HD
ATOM     23  H21 UNL     1       0.415  12.145   9.089  1.00  0.00     0.274 HD
ENDBRANCH  19  20
BRANCH  19  24
HETATM   24  C10 UNL     1      -0.603  10.045   8.257  1.00  0.00     0.008 C 
HETATM   25  C11 UNL     1       0.604  10.577   7.539  1.00  0.00     0.011 C 
HETATM   26  C12 UNL     1      -1.575   9.551   7.205  1.00  0.00     0.011 C 
ENDBRANCH  19  24
ENDBRANCH  18  19
ENDBRANCH   1  18
TORSDOF 9
ENDMDL
MODEL 4
REMARK VINA RESULT: -6.058384078      3.338      5.199
REMARK  9 active torsions:
REMARK  status: ('A' for Active; 'I' for Inactive)
REMARK    1  A    between atoms: C5_5  and  C6_6 
REMARK    2  A    between atoms: C6_6  and  C7_7 
REMARK    3  A    between atoms: C7_7  and  N1_8 
REMARK    4  A    between atoms: C7_7  and  C8_12 
REMARK    5  A    between atoms: C8_12  and  C9_13 
REMARK    6  A    between atoms: C9_13  and  N2_14 
REMARK    7  A    between atoms: C9_13  and  C10_18 
REMARK    8  A    between atoms: C14_22  and  N3_23 
REMARK    9  A    between atoms: N3_23  and  O1_25 
ROOT
HETATM    1  C7  UNL     1      -2.008  12.665   8.282  1.00  0.00     0.189 C 
ENDROOT
BRANCH   1   2
HETATM    2  C6  UNL     1      -2.821  12.059   7.190  1.00  0.00     0.071 C 
BRANCH   2   3
HETATM    3  C5  UNL     1      -2.596  12.731   5.888  1.00  0.00    -0.054 A 
HETATM    4  C4  UNL     1      -3.312  13.892   5.598  1.00  0.00     0.008 A 
HETATM    5  C3  UNL     1      -3.111  14.525   4.395  1.00  0.00     0.009 A 
HETATM    6  C2  UNL     1      -2.201  14.023   3.456  1.00  0.00    -0.033 A 
HETATM    7  C1  UNL     1      -2.025  14.747   2.172  1.00  0.00     0.050 C 
HETATM    8  C14 UNL     1      -1.485  12.884   3.716  1.00  0.00     0.060 A 
HETATM    9  C13 UNL     1      -1.711  12.262   4.951  1.00  0.00     0.039 A 
BRANCH   8  10
HETATM   10  N3  UNL     1      -0.552  12.287   2.864  1.00  0.00    -0.269 N 
ATOM     11  H3  UNL     1      -0.855  11.688   2.095  1.00  0.00     0.194 HD
BRANCH  10  12
HETATM   12  O1  UNL     1       0.723  12.513   3.075  1.00  0.00    -0.289 OA
ATOM     13  H1  UNL     1       1.349  12.208   2.430  1.00  0.00     0.244 HD
ENDBRANCH  10  12
ENDBRANCH   8  10
ENDBRANCH   2   3
ENDBRANCH   1   2
BRANCH   1  14
HETATM   14  N1  UNL     1      -2.941  13.381   9.164  1.00  0.00    -0.075 N 
ATOM     15  H13 UNL     1      -3.904  13.361   8.830  1.00  0.00     0.274 HD
ATOM     16  H12 UNL     1      -3.102  12.903  10.051  1.00  0.00     0.274 HD
ATOM     17  H11 UNL     1      -2.576  14.327   9.279  1.00  0.00     0.274 HD
ENDBRANCH   1  14
BRANCH   1  18
HETATM   18  C8  UNL     1      -1.264  11.604   9.048  1.00  0.00     0.066 C 
BRANCH  18  19
HETATM   19  C9  UNL     1       0.230  11.841   8.861  1.00  0.00     0.188 C 
BRANCH  19  20
HETATM   20  N2  UNL     1       0.398  13.141   8.238  1.00  0.00    -0.075 N 
ATOM     21  H23 UNL     1      -0.470  13.507   7.845  1.00  0.00     0.274 HD
ATOM     22  H22 UNL     1       0.565  13.886   8.914  1.00  0.00     0.274 HD
ATOM     23  H21 UNL     1       1.143  13.060   7.546  1.00  0.00     0.274 HD
ENDBRANCH  19  20
BRANCH  19  24
HETATM   24  C10 UNL     1       0.845  10.812   7.938  1.00  0.00     0.008 C 
HETATM   25  C11 UNL     1       1.108  11.366   6.567  1.00  0.00     0.011 C 
HETATM   26  C12 UNL     1      -0.165   9.693   7.789  1.00  0.00     0.011 C 
ENDBRANCH  19  24
ENDBRANCH  18  19
ENDBRANCH   1  18
TORSDOF 9
ENDMDL
MODEL 5
REMARK VINA RESULT: -6.050522487      2.728      5.704
REMARK  9 active torsions:
REMARK  status: ('A' for Active; 'I' for Inactive)
REMARK    1  A    between atoms: C5_5  and  C6_6 
REMARK    2  A    between atoms: C6_6  and  C7_7 
REMARK    3  A    between atoms: C7_7  and  N1_8 
REMARK    4  A    between atoms: C7_7  and  C8_12 
REMARK    5  A    between atoms: C8_12  and  C9_13 
REMARK    6  A    between atoms: C9_13  and  N2_14 
REMARK    7  A    between atoms: C9_13  and  C10_18 
REMARK    8  A    between atoms: C14_22  and  N3_23 
REMARK    9  A    between atoms: N3_23  and  O1_25 
ROOT
HETATM    1  C7  UNL     1      -2.839  11.384   7.999  1.00  0.00     0.189 C 
ENDROOT
BRANCH   1   2
HETATM    2  C6  UNL     1      -1.813  12.408   7.647  1.00  0.00     0.071 C 
BRANCH   2   3
HETATM    3  C5  UNL     1      -1.849  12.761   6.208  1.00  0.00    -0.054 A 
HETATM    4  C4  UNL     1      -0.942  12.149   5.343  1.00  0.00     0.008 A 
HETATM    5  C3  UNL     1      -0.966  12.468   4.006  1.00  0.00     0.009 A 
HETATM    6  C2  UNL     1      -1.884  13.397   3.500  1.00  0.00    -0.033 A 
HETATM    7  C1  UNL     1      -1.864  13.704   2.048  1.00  0.00     0.050 C 
HETATM    8  C14 UNL     1      -2.786  14.012   4.328  1.00  0.00     0.060 A 
HETATM    9  C13 UNL     1      -2.738  13.666   5.685  1.00  0.00     0.039 A 
BRANCH   8  10
HETATM   10  N3  UNL     1      -3.747  14.951   3.945  1.00  0.00    -0.269 N 
ATOM     11  H3  UNL     1      -4.668  14.654   3.623  1.00  0.00     0.194 HD
BRANCH  10  12
HETATM   12  O1  UNL     1      -3.438  16.225   4.010  1.00  0.00    -0.289 OA
ATOM     13  H1  UNL     1      -2.523  16.465   4.089  1.00  0.00     0.244 HD
ENDBRANCH  10  12
ENDBRANCH   8  10
ENDBRANCH   2   3
ENDBRANCH   1   2
BRANCH   1  14
HETATM   14  N1  UNL     1      -2.119  10.126   8.251  1.00  0.00    -0.075 N 
ATOM     15  H13 UNL     1      -1.158  10.139   7.912  1.00  0.00     0.274 HD
ATOM     16  H12 UNL     1      -1.907   9.976   9.237  1.00  0.00     0.274 HD
ATOM     17  H11 UNL     1      -2.679   9.377   7.843  1.00  0.00     0.274 HD
ENDBRANCH   1  14
BRANCH   1  18
HETATM   18  C8  UNL     1      -3.617  11.801   9.217  1.00  0.00     0.066 C 
BRANCH  18  19
HETATM   19  C9  UNL     1      -4.781  12.675   8.763  1.00  0.00     0.188 C 
BRANCH  19  20
HETATM   20  N2  UNL     1      -4.700  13.931   9.485  1.00  0.00    -0.075 N 
ATOM     21  H23 UNL     1      -5.249  14.674   9.051  1.00  0.00     0.274 HD
ATOM     22  H22 UNL     1      -5.190  13.906  10.379  1.00  0.00     0.274 HD
ATOM     23  H21 UNL     1      -3.713  14.172   9.581  1.00  0.00     0.274 HD
ENDBRANCH  19  20
BRANCH  19  24
HETATM   24  C10 UNL     1      -6.114  12.043   9.099  1.00  0.00     0.008 C 
HETATM   25  C11 UNL     1      -7.189  12.438   8.126  1.00  0.00     0.011 C 
HETATM   26  C12 UNL     1      -6.520  12.568  10.460  1.00  0.00     0.011 C 
ENDBRANCH  19  24
ENDBRANCH  18  19
ENDBRANCH   1  18
TORSDOF 9
ENDMDL
