MODEL 1
REMARK VINA RESULT: -6.531013943      0.000      0.000
REMARK  7 active torsions:
REMARK  status: ('A' for Active; 'I' for Inactive)
REMARK    1  A    between atoms: C3_4  and  C4_5 
REMARK       I    between atoms: C4_5  and  N1_7 
REMARK    2  A    between atoms: N1_7  and  O2_9 
REMARK    3  A    between atoms: C7_12  and  O3_13 
REMARK    4  A    between atoms: O3_13  and  C8_14 
REMARK    5  A    between atoms: C8_14  and  C9_15 
REMARK    6  A    between atoms: C9_15  and  S2_16 
REMARK    7  A    between atoms: S2_16  and  C10_17 
ROOT
HETATM    1  C1  UNL     1      27.340  53.968   0.951  1.00  0.00     0.059 C 
HETATM    2  C2  UNL     1      27.006  53.679  -0.486  1.00  0.00     0.013 A 
HETATM    3  S1  UNL     1      26.419  54.753  -1.671  1.00  0.00    -0.087 SA
HETATM    4  C3  UNL     1      26.304  53.662  -3.009  1.00  0.00     0.078 A 
HETATM    5  C6  UNL     1      26.734  52.491  -2.465  1.00  0.00     0.062 A 
HETATM    6  C7  UNL     1      27.097  52.500  -1.159  1.00  0.00     0.083 A 
ENDROOT
BRANCH   6   7
HETATM    7  O3  UNL     1      27.557  51.333  -0.499  1.00  0.00    -0.349 OA
BRANCH   7   8
HETATM    8  C8  UNL     1      27.163  50.034  -0.875  1.00  0.00     0.186 C 
BRANCH   8   9
HETATM    9  C9  UNL     1      26.796  49.296   0.390  1.00  0.00     0.101 C 
BRANCH   9  10
HETATM   10  S2  UNL     1      25.777  50.191   1.536  1.00  0.00    -0.158 SA
BRANCH  10  11
HETATM   11  C10 UNL     1      26.594  50.436   3.107  1.00  0.00    -0.003 C 
HETATM   12  C11 UNL     1      26.154  49.297   4.029  1.00  0.00     0.026 C 
HETATM   13  C12 UNL     1      28.092  50.379   2.916  1.00  0.00     0.026 C 
HETATM   14  C13 UNL     1      26.243  51.768   3.739  1.00  0.00     0.026 C 
ENDBRANCH  10  11
ENDBRANCH   9  10
ENDBRANCH   8   9
ENDBRANCH   7   8
ENDBRANCH   6   7
BRANCH   4  15
HETATM   15  C4  UNL     1      25.843  54.029  -4.340  1.00  0.00     0.283 C 
HETATM   16  O1  UNL     1      26.392  55.022  -4.929  1.00  0.00    -0.265 OA
HETATM   17  N1  UNL     1      24.830  53.350  -5.012  1.00  0.00    -0.229 N 
HETATM   18  C5  UNL     1      24.453  53.821  -6.358  1.00  0.00     0.189 C 
BRANCH  17  19
HETATM   19  O2  UNL     1      24.127  52.283  -4.570  1.00  0.00    -0.285 OA
ATOM     20  H2  UNL     1      23.375  51.877  -4.986  1.00  0.00     0.245 HD
ENDBRANCH  17  19
ENDBRANCH   4  15
TORSDOF 7
ENDMDL
MODEL 2
REMARK VINA RESULT: -6.224131866      1.952      3.074
REMARK  7 active torsions:
REMARK  status: ('A' for Active; 'I' for Inactive)
REMARK    1  A    between atoms: C3_4  and  C4_5 
REMARK       I    between atoms: C4_5  and  N1_7 
REMARK    2  A    between atoms: N1_7  and  O2_9 
REMARK    3  A    between atoms: C7_12  and  O3_13 
REMARK    4  A    between atoms: O3_13  and  C8_14 
REMARK    5  A    between atoms: C8_14  and  C9_15 
REMARK    6  A    between atoms: C9_15  and  S2_16 
REMARK    7  A    between atoms: S2_16  and  C10_17 
ROOT
HETATM    1  C1  UNL     1      27.843  50.463  -1.631  1.00  0.00     0.059 C 
HETATM    2  C2  UNL     1      27.327  51.856  -1.858  1.00  0.00     0.013 A 
HETATM    3  S1  UNL     1      26.781  52.557  -3.312  1.00  0.00    -0.087 SA
HETATM    4  C3  UNL     1      26.376  54.135  -2.730  1.00  0.00     0.078 A 
HETATM    5  C6  UNL     1      26.689  54.045  -1.409  1.00  0.00     0.062 A 
HETATM    6  C7  UNL     1      27.182  52.866  -0.957  1.00  0.00     0.083 A 
ENDROOT
BRANCH   6   7
HETATM    7  O3  UNL     1      27.539  52.670   0.400  1.00  0.00    -0.349 OA
BRANCH   7   8
HETATM    8  C8  UNL     1      26.848  53.274   1.468  1.00  0.00     0.186 C 
BRANCH   8   9
HETATM    9  C9  UNL     1      26.687  52.228   2.544  1.00  0.00     0.101 C 
BRANCH   9  10
HETATM   10  S2  UNL     1      27.418  50.647   2.196  1.00  0.00    -0.158 SA
BRANCH  10  11
HETATM   11  C10 UNL     1      26.187  49.416   1.786  1.00  0.00    -0.003 C 
HETATM   12  C11 UNL     1      25.451  49.064   3.080  1.00  0.00     0.026 C 
HETATM   13  C12 UNL     1      25.208  49.989   0.789  1.00  0.00     0.026 C 
HETATM   14  C13 UNL     1      26.799  48.165   1.192  1.00  0.00     0.026 C 
ENDBRANCH  10  11
ENDBRANCH   9  10
ENDBRANCH   8   9
ENDBRANCH   7   8
ENDBRANCH   6   7
BRANCH   4  15
HETATM   15  C4  UNL     1      25.840  55.209  -3.553  1.00  0.00     0.283 C 
HETATM   16  O1  UNL     1      25.406  54.930  -4.723  1.00  0.00    -0.265 OA
HETATM   17  N1  UNL     1      25.774  56.535  -3.130  1.00  0.00    -0.229 N 
HETATM   18  C5  UNL     1      25.209  57.532  -4.060  1.00  0.00     0.189 C 
BRANCH  17  19
HETATM   19  O2  UNL     1      26.176  57.036  -1.941  1.00  0.00    -0.285 OA
ATOM     20  H2  UNL     1      26.750  57.779  -1.795  1.00  0.00     0.245 HD
ENDBRANCH  17  19
ENDBRANCH   4  15
TORSDOF 7
ENDMDL
MODEL 3
REMARK VINA RESULT: -6.169549816      2.695      3.796
REMARK  7 active torsions:
REMARK  status: ('A' for Active; 'I' for Inactive)
REMARK    1  A    between atoms: C3_4  and  C4_5 
REMARK       I    between atoms: C4_5  and  N1_7 
REMARK    2  A    between atoms: N1_7  and  O2_9 
REMARK    3  A    between atoms: C7_12  and  O3_13 
REMARK    4  A    between atoms: O3_13  and  C8_14 
REMARK    5  A    between atoms: C8_14  and  C9_15 
REMARK    6  A    between atoms: C9_15  and  S2_16 
REMARK    7  A    between atoms: S2_16  and  C10_17 
ROOT
HETATM    1  C1  UNL     1      25.989  55.267  -2.575  1.00  0.00     0.059 C 
HETATM    2  C2  UNL     1      26.431  53.845  -2.369  1.00  0.00     0.013 A 
HETATM    3  S1  UNL     1      26.185  52.503  -3.389  1.00  0.00    -0.087 SA
HETATM    4  C3  UNL     1      26.979  51.286  -2.451  1.00  0.00     0.078 A 
HETATM    5  C6  UNL     1      27.408  51.989  -1.368  1.00  0.00     0.062 A 
HETATM    6  C7  UNL     1      27.123  53.314  -1.324  1.00  0.00     0.083 A 
ENDROOT
BRANCH   6   7
HETATM    7  O3  UNL     1      27.524  54.134  -0.241  1.00  0.00    -0.349 OA
BRANCH   7   8
HETATM    8  C8  UNL     1      27.888  53.617   1.018  1.00  0.00     0.186 C 
BRANCH   8   9
HETATM    9  C9  UNL     1      26.641  53.591   1.868  1.00  0.00     0.101 C 
BRANCH   9  10
HETATM   10  S2  UNL     1      26.737  52.615   3.348  1.00  0.00    -0.158 SA
BRANCH  10  11
HETATM   11  C10 UNL     1      26.737  50.862   2.994  1.00  0.00    -0.003 C 
HETATM   12  C11 UNL     1      28.197  50.407   2.961  1.00  0.00     0.026 C 
HETATM   13  C12 UNL     1      26.002  50.123   4.087  1.00  0.00     0.026 C 
HETATM   14  C13 UNL     1      26.073  50.541   1.670  1.00  0.00     0.026 C 
ENDBRANCH  10  11
ENDBRANCH   9  10
ENDBRANCH   8   9
ENDBRANCH   7   8
ENDBRANCH   6   7
BRANCH   4  15
HETATM   15  C4  UNL     1      27.092  49.887  -2.835  1.00  0.00     0.283 C 
HETATM   16  O1  UNL     1      27.987  49.553  -3.685  1.00  0.00    -0.265 OA
HETATM   17  N1  UNL     1      26.274  48.885  -2.321  1.00  0.00    -0.229 N 
HETATM   18  C5  UNL     1      26.489  47.503  -2.792  1.00  0.00     0.189 C 
BRANCH  17  19
HETATM   19  O2  UNL     1      25.276  49.025  -1.420  1.00  0.00    -0.285 OA
ATOM     20  H2  UNL     1      24.606  49.698  -1.404  1.00  0.00     0.245 HD
ENDBRANCH  17  19
ENDBRANCH   4  15
TORSDOF 7
ENDMDL
MODEL 4
REMARK VINA RESULT: -6.074282200      2.190      3.498
REMARK  7 active torsions:
REMARK  status: ('A' for Active; 'I' for Inactive)
REMARK    1  A    between atoms: C3_4  and  C4_5 
REMARK       I    between atoms: C4_5  and  N1_7 
REMARK    2  A    between atoms: N1_7  and  O2_9 
REMARK    3  A    between atoms: C7_12  and  O3_13 
REMARK    4  A    between atoms: O3_13  and  C8_14 
REMARK    5  A    between atoms: C8_14  and  C9_15 
REMARK    6  A    between atoms: C9_15  and  S2_16 
REMARK    7  A    between atoms: S2_16  and  C10_17 
ROOT
HETATM    1  C1  UNL     1      27.368  53.803   0.948  1.00  0.00     0.059 C 
HETATM    2  C2  UNL     1      27.039  53.545  -0.496  1.00  0.00     0.013 A 
HETATM    3  S1  UNL     1      26.441  54.641  -1.656  1.00  0.00    -0.087 SA
HETATM    4  C3  UNL     1      26.339  53.582  -3.019  1.00  0.00     0.078 A 
HETATM    5  C6  UNL     1      26.783  52.403  -2.504  1.00  0.00     0.062 A 
HETATM    6  C7  UNL     1      27.145  52.384  -1.198  1.00  0.00     0.083 A 
ENDROOT
BRANCH   6   7
HETATM    7  O3  UNL     1      27.618  51.208  -0.566  1.00  0.00    -0.349 OA
BRANCH   7   8
HETATM    8  C8  UNL     1      26.764  50.181  -0.118  1.00  0.00     0.186 C 
BRANCH   8   9
HETATM    9  C9  UNL     1      26.973  48.997  -1.030  1.00  0.00     0.101 C 
BRANCH   9  10
HETATM   10  S2  UNL     1      25.734  48.760  -2.281  1.00  0.00    -0.158 SA
BRANCH  10  11
HETATM   11  C10 UNL     1      25.067  47.101  -2.256  1.00  0.00    -0.003 C 
HETATM   12  C11 UNL     1      26.116  46.182  -2.884  1.00  0.00     0.026 C 
HETATM   13  C12 UNL     1      24.815  46.676  -0.828  1.00  0.00     0.026 C 
HETATM   14  C13 UNL     1      23.766  46.991  -3.024  1.00  0.00     0.026 C 
ENDBRANCH  10  11
ENDBRANCH   9  10
ENDBRANCH   8   9
ENDBRANCH   7   8
ENDBRANCH   6   7
BRANCH   4  15
HETATM   15  C4  UNL     1      25.876  53.975  -4.342  1.00  0.00     0.283 C 
HETATM   16  O1  UNL     1      26.449  54.957  -4.927  1.00  0.00    -0.265 OA
HETATM   17  N1  UNL     1      24.835  53.334  -5.008  1.00  0.00    -0.229 N 
HETATM   18  C5  UNL     1      24.458  53.830  -6.346  1.00  0.00     0.189 C 
BRANCH  17  19
HETATM   19  O2  UNL     1      24.104  52.285  -4.568  1.00  0.00    -0.285 OA
ATOM     20  H2  UNL     1      23.324  51.920  -4.969  1.00  0.00     0.245 HD
ENDBRANCH  17  19
ENDBRANCH   4  15
TORSDOF 7
ENDMDL
MODEL 5
REMARK VINA RESULT: -5.981765581      1.201      1.615
REMARK  7 active torsions:
REMARK  status: ('A' for Active; 'I' for Inactive)
REMARK    1  A    between atoms: C3_4  and  C4_5 
REMARK       I    between atoms: C4_5  and  N1_7 
REMARK    2  A    between atoms: N1_7  and  O2_9 
REMARK    3  A    between atoms: C7_12  and  O3_13 
REMARK    4  A    between atoms: O3_13  and  C8_14 
REMARK    5  A    between atoms: C8_14  and  C9_15 
REMARK    6  A    between atoms: C9_15  and  S2_16 
REMARK    7  A    between atoms: S2_16  and  C10_17 
ROOT
HETATM    1  C1  UNL     1      27.012  54.493  -0.066  1.00  0.00     0.059 C 
HETATM    2  C2  UNL     1      26.751  53.946  -1.441  1.00  0.00     0.013 A 
HETATM    3  S1  UNL     1      26.019  54.726  -2.767  1.00  0.00    -0.087 SA
HETATM    4  C3  UNL     1      26.099  53.445  -3.927  1.00  0.00     0.078 A 
HETATM    5  C6  UNL     1      26.702  52.451  -3.220  1.00  0.00     0.062 A 
HETATM    6  C7  UNL     1      27.038  52.710  -1.933  1.00  0.00     0.083 A 
ENDROOT
BRANCH   6   7
HETATM    7  O3  UNL     1      27.669  51.742  -1.112  1.00  0.00    -0.349 OA
BRANCH   7   8
HETATM    8  C8  UNL     1      27.363  50.369  -1.174  1.00  0.00     0.186 C 
BRANCH   8   9
HETATM    9  C9  UNL     1      26.221  50.122  -0.219  1.00  0.00     0.101 C 
BRANCH   9  10
HETATM   10  S2  UNL     1      26.644  49.281   1.287  1.00  0.00    -0.158 SA
BRANCH  10  11
HETATM   11  C10 UNL     1      26.912  50.422   2.638  1.00  0.00    -0.003 C 
HETATM   12  C11 UNL     1      26.103  49.909   3.830  1.00  0.00     0.026 C 
HETATM   13  C12 UNL     1      28.379  50.449   2.998  1.00  0.00     0.026 C 
HETATM   14  C13 UNL     1      26.477  51.832   2.295  1.00  0.00     0.026 C 
ENDBRANCH  10  11
ENDBRANCH   9  10
ENDBRANCH   8   9
ENDBRANCH   7   8
ENDBRANCH   6   7
BRANCH   4  15
HETATM   15  C4  UNL     1      25.606  53.533  -5.294  1.00  0.00     0.283 C 
HETATM   16  O1  UNL     1      24.377  53.265  -5.523  1.00  0.00    -0.265 OA
HETATM   17  N1  UNL     1      26.407  53.898  -6.373  1.00  0.00    -0.229 N 
HETATM   18  C5  UNL     1      25.787  53.950  -7.711  1.00  0.00     0.189 C 
BRANCH  17  19
HETATM   19  O2  UNL     1      27.720  54.218  -6.346  1.00  0.00    -0.285 OA
ATOM     20  H2  UNL     1      28.450  53.635  -6.177  1.00  0.00     0.245 HD
ENDBRANCH  17  19
ENDBRANCH   4  15
TORSDOF 7
ENDMDL
