MODEL 1
REMARK VINA RESULT: -7.879012465      0.000      0.000
REMARK  4 active torsions:
REMARK  status: ('A' for Active; 'I' for Inactive)
REMARK    1  A    between atoms: C2_2  and  N1_3 
REMARK    2  A    between atoms: N1_3  and  C3_4 
REMARK    3  A    between atoms: N1_3  and  C5_7 
REMARK    4  A    between atoms: N3_10  and  C8_12 
ROOT
HETATM    1  C3  UNL     1      27.373  52.421   3.224  1.00  0.00     0.248 C 
HETATM    2  C4  UNL     1      26.421  52.794   4.262  1.00  0.00     0.079 C 
HETATM    3  N2  UNL     1      25.660  53.117   5.088  1.00  0.00    -0.196 NA
ENDROOT
BRANCH   1   4
HETATM    4  N1  UNL     1      27.073  51.126   2.677  1.00  0.00    -0.355 N 
BRANCH   4   5
HETATM    5  C2  UNL     1      26.941  50.016   3.577  1.00  0.00     0.121 C 
HETATM    6  C1  UNL     1      25.543  49.433   3.613  1.00  0.00     0.026 C 
ENDBRANCH   4   5
BRANCH   4   7
HETATM    7  C5  UNL     1      26.911  50.953   1.286  1.00  0.00     0.108 A 
HETATM    8  C6  UNL     1      26.516  49.770   0.690  1.00  0.00     0.096 A 
HETATM    9  C7  UNL     1      26.335  49.638  -0.671  1.00  0.00     0.107 A 
HETATM   10  N3  UNL     1      25.973  48.485  -1.094  1.00  0.00    -0.354 N 
HETATM   11  N5  UNL     1      26.544  50.686  -1.465  1.00  0.00    -0.333 N 
ATOM     12  H3  UNL     1      25.849  47.761  -0.386  1.00  0.00     0.163 HD
HETATM   13  C16 UNL     1      26.927  51.852  -0.930  1.00  0.00     0.080 A 
ATOM     14  H5  UNL     1      26.412  50.601  -2.473  1.00  0.00     0.168 HD
HETATM   15  C17 UNL     1      27.155  52.994  -1.850  1.00  0.00     0.089 C 
HETATM   16  N6  UNL     1      27.103  51.975   0.402  1.00  0.00    -0.332 N 
ATOM     17  H6  UNL     1      27.395  52.882   0.768  1.00  0.00     0.168 HD
BRANCH  10  18
HETATM   18  C8  UNL     1      25.721  48.099  -2.455  1.00  0.00     0.124 C 
HETATM   19  C9  UNL     1      24.882  49.147  -3.056  1.00  0.00     0.091 C 
HETATM   20  N4  UNL     1      24.233  49.988  -3.524  1.00  0.00    -0.195 NA
HETATM   21  C10 UNL     1      27.015  47.976  -3.183  1.00  0.00     0.047 C 
HETATM   22  C11 UNL     1      26.907  47.210  -4.479  1.00  0.00     0.004 C 
HETATM   23  C12 UNL     1      26.129  45.939  -4.362  1.00  0.00     0.001 C 
HETATM   24  C13 UNL     1      25.725  45.636  -2.937  1.00  0.00     0.008 C 
HETATM   25  C14 UNL     1      24.941  46.808  -2.413  1.00  0.00     0.024 C 
HETATM   26  C15 UNL     1      23.623  46.986  -3.131  1.00  0.00     0.013 C 
ENDBRANCH  10  18
ENDBRANCH   4   7
ENDBRANCH   1   4
TORSDOF 4
ENDMDL
MODEL 2
REMARK VINA RESULT: -7.692520443      1.164      1.785
REMARK  4 active torsions:
REMARK  status: ('A' for Active; 'I' for Inactive)
REMARK    1  A    between atoms: C2_2  and  N1_3 
REMARK    2  A    between atoms: N1_3  and  C3_4 
REMARK    3  A    between atoms: N1_3  and  C5_7 
REMARK    4  A    between atoms: N3_10  and  C8_12 
ROOT
HETATM    1  C3  UNL     1      27.104  52.521   3.671  1.00  0.00     0.248 C 
HETATM    2  C4  UNL     1      26.045  52.665   4.662  1.00  0.00     0.079 C 
HETATM    3  N2  UNL     1      25.199  52.805   5.455  1.00  0.00    -0.196 NA
ENDROOT
BRANCH   1   4
HETATM    4  N1  UNL     1      26.959  51.304   2.921  1.00  0.00    -0.355 N 
BRANCH   4   5
HETATM    5  C2  UNL     1      26.848  50.065   3.639  1.00  0.00     0.121 C 
HETATM    6  C1  UNL     1      25.477  49.429   3.534  1.00  0.00     0.026 C 
ENDBRANCH   4   5
BRANCH   4   7
HETATM    7  C5  UNL     1      26.925  51.326   1.510  1.00  0.00     0.108 A 
HETATM    8  C6  UNL     1      26.753  50.208   0.718  1.00  0.00     0.096 A 
HETATM    9  C7  UNL     1      26.692  50.265  -0.659  1.00  0.00     0.107 A 
HETATM   10  N3  UNL     1      26.535  49.153  -1.274  1.00  0.00    -0.354 N 
HETATM   11  N5  UNL     1      26.802  51.441  -1.273  1.00  0.00    -0.333 N 
ATOM     12  H3  UNL     1      26.468  48.318  -0.692  1.00  0.00     0.163 HD
HETATM   13  C16 UNL     1      26.970  52.551  -0.544  1.00  0.00     0.080 A 
ATOM     14  H5  UNL     1      26.758  51.496  -2.290  1.00  0.00     0.168 HD
HETATM   15  C17 UNL     1      27.094  53.842  -1.266  1.00  0.00     0.089 C 
HETATM   16  N6  UNL     1      27.029  52.490   0.803  1.00  0.00    -0.332 N 
ATOM     17  H6  UNL     1      27.157  53.360   1.321  1.00  0.00     0.168 HD
BRANCH  10  18
HETATM   18  C8  UNL     1      26.442  48.951  -2.694  1.00  0.00     0.124 C 
HETATM   19  C9  UNL     1      27.518  49.737  -3.316  1.00  0.00     0.091 C 
HETATM   20  N4  UNL     1      28.381  50.348  -3.795  1.00  0.00    -0.195 NA
HETATM   21  C10 UNL     1      26.601  47.501  -3.000  1.00  0.00     0.047 C 
HETATM   22  C11 UNL     1      26.138  47.124  -4.386  1.00  0.00     0.004 C 
HETATM   23  C12 UNL     1      24.809  47.701  -4.753  1.00  0.00     0.001 C 
HETATM   24  C13 UNL     1      24.160  48.438  -3.603  1.00  0.00     0.008 C 
HETATM   25  C14 UNL     1      25.109  49.505  -3.135  1.00  0.00     0.024 C 
HETATM   26  C15 UNL     1      25.325  50.581  -4.175  1.00  0.00     0.013 C 
ENDBRANCH  10  18
ENDBRANCH   4   7
ENDBRANCH   1   4
TORSDOF 4
ENDMDL
MODEL 3
REMARK VINA RESULT: -7.585177522      0.908      1.354
REMARK  4 active torsions:
REMARK  status: ('A' for Active; 'I' for Inactive)
REMARK    1  A    between atoms: C2_2  and  N1_3 
REMARK    2  A    between atoms: N1_3  and  C3_4 
REMARK    3  A    between atoms: N1_3  and  C5_7 
REMARK    4  A    between atoms: N3_10  and  C8_12 
ROOT
HETATM    1  C3  UNL     1      27.356  52.293   3.196  1.00  0.00     0.248 C 
HETATM    2  C4  UNL     1      26.393  52.704   4.209  1.00  0.00     0.079 C 
HETATM    3  N2  UNL     1      25.625  53.058   5.016  1.00  0.00    -0.196 NA
ENDROOT
BRANCH   1   4
HETATM    4  N1  UNL     1      27.033  51.000   2.658  1.00  0.00    -0.355 N 
BRANCH   4   5
HETATM    5  C2  UNL     1      26.831  49.910   3.570  1.00  0.00     0.121 C 
HETATM    6  C1  UNL     1      25.412  49.379   3.568  1.00  0.00     0.026 C 
ENDBRANCH   4   5
BRANCH   4   7
HETATM    7  C5  UNL     1      26.915  50.809   1.265  1.00  0.00     0.108 A 
HETATM    8  C6  UNL     1      26.614  49.600   0.668  1.00  0.00     0.096 A 
HETATM    9  C7  UNL     1      26.474  49.449  -0.696  1.00  0.00     0.107 A 
HETATM   10  N3  UNL     1      26.200  48.272  -1.119  1.00  0.00    -0.354 N 
HETATM   11  N5  UNL     1      26.630  50.504  -1.492  1.00  0.00    -0.333 N 
ATOM     12  H3  UNL     1      26.110  47.545  -0.410  1.00  0.00     0.163 HD
HETATM   13  C16 UNL     1      26.922  51.696  -0.956  1.00  0.00     0.080 A 
ATOM     14  H5  UNL     1      26.528  50.406  -2.502  1.00  0.00     0.168 HD
HETATM   15  C17 UNL     1      27.093  52.847  -1.878  1.00  0.00     0.089 C 
HETATM   16  N6  UNL     1      27.058  51.838   0.379  1.00  0.00    -0.332 N 
ATOM     17  H6  UNL     1      27.280  52.764   0.746  1.00  0.00     0.168 HD
BRANCH  10  18
HETATM   18  C8  UNL     1      26.007  47.863  -2.483  1.00  0.00     0.124 C 
HETATM   19  C9  UNL     1      26.925  48.661  -3.310  1.00  0.00     0.091 C 
HETATM   20  N4  UNL     1      27.664  49.285  -3.951  1.00  0.00    -0.195 NA
HETATM   21  C10 UNL     1      26.308  46.409  -2.612  1.00  0.00     0.047 C 
HETATM   22  C11 UNL     1      25.771  45.793  -3.881  1.00  0.00     0.004 C 
HETATM   23  C12 UNL     1      24.357  46.171  -4.180  1.00  0.00     0.001 C 
HETATM   24  C13 UNL     1      23.730  46.991  -3.076  1.00  0.00     0.008 C 
HETATM   25  C14 UNL     1      24.585  48.207  -2.852  1.00  0.00     0.024 C 
HETATM   26  C15 UNL     1      24.580  49.141  -4.041  1.00  0.00     0.013 C 
ENDBRANCH  10  18
ENDBRANCH   4   7
ENDBRANCH   1   4
TORSDOF 4
ENDMDL
MODEL 4
REMARK VINA RESULT: -7.472979434      1.582      1.972
REMARK  4 active torsions:
REMARK  status: ('A' for Active; 'I' for Inactive)
REMARK    1  A    between atoms: C2_2  and  N1_3 
REMARK    2  A    between atoms: N1_3  and  C3_4 
REMARK    3  A    between atoms: N1_3  and  C5_7 
REMARK    4  A    between atoms: N3_10  and  C8_12 
ROOT
HETATM    1  C3  UNL     1      27.676  51.357   2.302  1.00  0.00     0.248 C 
HETATM    2  C4  UNL     1      27.146  52.678   2.614  1.00  0.00     0.079 C 
HETATM    3  N2  UNL     1      26.742  53.747   2.861  1.00  0.00    -0.196 NA
ENDROOT
BRANCH   1   4
HETATM    4  N1  UNL     1      26.666  50.505   1.738  1.00  0.00    -0.355 N 
BRANCH   4   5
HETATM    5  C2  UNL     1      25.619  50.024   2.593  1.00  0.00     0.121 C 
HETATM    6  C1  UNL     1      26.130  49.317   3.832  1.00  0.00     0.026 C 
ENDBRANCH   4   5
BRANCH   4   7
HETATM    7  C5  UNL     1      26.703  50.152   0.372  1.00  0.00     0.108 A 
HETATM    8  C6  UNL     1      25.881  49.207  -0.210  1.00  0.00     0.096 A 
HETATM    9  C7  UNL     1      25.918  48.904  -1.555  1.00  0.00     0.107 A 
HETATM   10  N3  UNL     1      25.106  48.003  -1.965  1.00  0.00    -0.354 N 
HETATM   11  N5  UNL     1      26.778  49.541  -2.347  1.00  0.00    -0.333 N 
ATOM     12  H3  UNL     1      24.499  47.585  -1.259  1.00  0.00     0.163 HD
HETATM   13  C16 UNL     1      27.594  50.465  -1.826  1.00  0.00     0.080 A 
ATOM     14  H5  UNL     1      26.815  49.326  -3.344  1.00  0.00     0.168 HD
HETATM   15  C17 UNL     1      28.541  51.148  -2.741  1.00  0.00     0.089 C 
HETATM   16  N6  UNL     1      27.553  50.757  -0.509  1.00  0.00    -0.332 N 
ATOM     17  H6  UNL     1      28.192  51.469  -0.152  1.00  0.00     0.168 HD
BRANCH  10  18
HETATM   18  C8  UNL     1      24.954  47.516  -3.308  1.00  0.00     0.124 C 
HETATM   19  C9  UNL     1      23.619  46.905  -3.400  1.00  0.00     0.091 C 
HETATM   20  N4  UNL     1      22.557  46.441  -3.466  1.00  0.00    -0.195 NA
HETATM   21  C10 UNL     1      25.083  48.651  -4.265  1.00  0.00     0.047 C 
HETATM   22  C11 UNL     1      25.331  48.215  -5.688  1.00  0.00     0.004 C 
HETATM   23  C12 UNL     1      26.383  47.161  -5.818  1.00  0.00     0.001 C 
HETATM   24  C13 UNL     1      27.059  46.851  -4.501  1.00  0.00     0.008 C 
HETATM   25  C14 UNL     1      25.999  46.447  -3.514  1.00  0.00     0.024 C 
HETATM   26  C15 UNL     1      25.329  45.146  -3.890  1.00  0.00     0.013 C 
ENDBRANCH  10  18
ENDBRANCH   4   7
ENDBRANCH   1   4
TORSDOF 4
ENDMDL
MODEL 5
REMARK VINA RESULT: -7.407208425      1.416      2.448
REMARK  4 active torsions:
REMARK  status: ('A' for Active; 'I' for Inactive)
REMARK    1  A    between atoms: C2_2  and  N1_3 
REMARK    2  A    between atoms: N1_3  and  C3_4 
REMARK    3  A    between atoms: N1_3  and  C5_7 
REMARK    4  A    between atoms: N3_10  and  C8_12 
ROOT
HETATM    1  C3  UNL     1      27.176  50.187   3.492  1.00  0.00     0.248 C 
HETATM    2  C4  UNL     1      25.925  49.446   3.393  1.00  0.00     0.079 C 
HETATM    3  N2  UNL     1      24.926  48.842   3.335  1.00  0.00    -0.196 NA
ENDROOT
BRANCH   1   4
HETATM    4  N1  UNL     1      27.100  51.442   2.796  1.00  0.00    -0.355 N 
BRANCH   4   5
HETATM    5  C2  UNL     1      27.108  52.654   3.566  1.00  0.00     0.121 C 
HETATM    6  C1  UNL     1      26.029  52.700   4.629  1.00  0.00     0.026 C 
ENDBRANCH   4   5
BRANCH   4   7
HETATM    7  C5  UNL     1      27.020  51.481   1.388  1.00  0.00     0.108 A 
HETATM    8  C6  UNL     1      26.880  50.366   0.585  1.00  0.00     0.096 A 
HETATM    9  C7  UNL     1      26.773  50.437  -0.789  1.00  0.00     0.107 A 
HETATM   10  N3  UNL     1      26.653  49.327  -1.415  1.00  0.00    -0.354 N 
HETATM   11  N5  UNL     1      26.804  51.625  -1.388  1.00  0.00    -0.333 N 
ATOM     12  H3  UNL     1      26.647  48.482  -0.843  1.00  0.00     0.163 HD
HETATM   13  C16 UNL     1      26.939  52.733  -0.649  1.00  0.00     0.080 A 
ATOM     14  H5  UNL     1      26.725  51.691  -2.403  1.00  0.00     0.168 HD
HETATM   15  C17 UNL     1      26.974  54.038  -1.356  1.00  0.00     0.089 C 
HETATM   16  N6  UNL     1      27.043  52.657   0.695  1.00  0.00    -0.332 N 
ATOM     17  H6  UNL     1      27.143  53.526   1.220  1.00  0.00     0.168 HD
BRANCH  10  18
HETATM   18  C8  UNL     1      26.526  49.139  -2.834  1.00  0.00     0.124 C 
HETATM   19  C9  UNL     1      27.568  49.956  -3.475  1.00  0.00     0.091 C 
HETATM   20  N4  UNL     1      28.403  50.591  -3.970  1.00  0.00    -0.195 NA
HETATM   21  C10 UNL     1      26.709  47.697  -3.162  1.00  0.00     0.047 C 
HETATM   22  C11 UNL     1      26.217  47.324  -4.539  1.00  0.00     0.004 C 
HETATM   23  C12 UNL     1      24.866  47.875  -4.863  1.00  0.00     0.001 C 
HETATM   24  C13 UNL     1      24.232  48.585  -3.687  1.00  0.00     0.008 C 
HETATM   25  C14 UNL     1      25.170  49.668  -3.232  1.00  0.00     0.024 C 
HETATM   26  C15 UNL     1      25.334  50.759  -4.265  1.00  0.00     0.013 C 
ENDBRANCH  10  18
ENDBRANCH   4   7
ENDBRANCH   1   4
TORSDOF 4
ENDMDL
