MODEL 1
REMARK VINA RESULT: -7.954650357      0.000      0.000
REMARK  7 active torsions:
REMARK  status: ('A' for Active; 'I' for Inactive)
REMARK    1  A    between atoms: O1_1  and  C1_3 
REMARK    2  A    between atoms: N1_5  and  C3_6 
REMARK    3  A    between atoms: C9_13  and  C10_14 
REMARK    4  A    between atoms: C10_14  and  N2_15 
REMARK    5  A    between atoms: N2_15  and  O3_17 
REMARK    6  A    between atoms: O3_17  and  C11_18 
REMARK    7  A    between atoms: C11_18  and  C12_19 
ROOT
HETATM    1  C1  UNL     1      26.328  54.949  -1.614  1.00  0.00     0.094 A 
HETATM    2  C2  UNL     1      26.126  54.110  -2.724  1.00  0.00     0.128 A 
HETATM    3  N1  UNL     1      26.485  52.851  -2.391  1.00  0.00    -0.358 N 
HETATM    4  C8  UNL     1      26.895  52.873  -1.108  1.00  0.00     0.106 A 
HETATM    5  C9  UNL     1      26.807  54.210  -0.586  1.00  0.00     0.031 A 
ENDROOT
BRANCH   5   6
HETATM    6  C10 UNL     1      27.516  54.492   0.661  1.00  0.00     0.129 C 
BRANCH   6   7
HETATM    7  N2  UNL     1      27.453  54.114   1.748  1.00  0.00    -0.277 N 
ATOM      8  H2  UNL     1      28.440  53.947   1.950  1.00  0.00     0.193 HD
BRANCH   7   9
HETATM    9  O3  UNL     1      26.912  53.770   2.872  1.00  0.00    -0.280 OA
BRANCH   9  10
HETATM   10  C11 UNL     1      27.470  52.312   3.019  1.00  0.00     0.205 C 
BRANCH  10  11
HETATM   11  C12 UNL     1      26.335  51.447   2.628  1.00  0.00     0.012 C 
HETATM   12  C13 UNL     1      26.817  50.331   1.665  1.00  0.00     0.007 C 
HETATM   13  C14 UNL     1      25.622  49.377   1.489  1.00  0.00     0.000 C 
HETATM   14  C15 UNL     1      25.582  48.470   2.687  1.00  0.00     0.000 C 
HETATM   15  C16 UNL     1      26.227  49.247   3.809  1.00  0.00     0.000 C 
HETATM   16  C17 UNL     1      25.743  50.660   3.819  1.00  0.00     0.007 C 
ENDBRANCH  10  11
ENDBRANCH   9  10
ENDBRANCH   7   9
ENDBRANCH   6   7
ENDBRANCH   5   6
BRANCH   1  17
HETATM   17  O1  UNL     1      26.050  56.343  -1.615  1.00  0.00    -0.358 OA
ATOM     18  H1  UNL     1      26.719  57.015  -1.559  1.00  0.00     0.217 HD
ENDBRANCH   1  17
BRANCH   3  19
HETATM   19  C3  UNL     1      26.552  51.664  -3.217  1.00  0.00     0.092 C 
HETATM   20  C4  UNL     1      27.805  50.894  -2.988  1.00  0.00     0.052 C 
HETATM   21  C5  UNL     1      27.708  49.663  -3.909  1.00  0.00     0.169 C 
HETATM   22  O2  UNL     1      26.547  49.709  -4.714  1.00  0.00    -0.391 OA
HETATM   23  C6  UNL     1      25.373  49.670  -3.920  1.00  0.00     0.169 C 
HETATM   24  C7  UNL     1      25.419  50.699  -2.820  1.00  0.00     0.052 C 
ENDBRANCH   3  19
TORSDOF 7
ENDMDL
MODEL 2
REMARK VINA RESULT: -7.839853642      1.991      5.395
REMARK  7 active torsions:
REMARK  status: ('A' for Active; 'I' for Inactive)
REMARK    1  A    between atoms: O1_1  and  C1_3 
REMARK    2  A    between atoms: N1_5  and  C3_6 
REMARK    3  A    between atoms: C9_13  and  C10_14 
REMARK    4  A    between atoms: C10_14  and  N2_15 
REMARK    5  A    between atoms: N2_15  and  O3_17 
REMARK    6  A    between atoms: O3_17  and  C11_18 
REMARK    7  A    between atoms: C11_18  and  C12_19 
ROOT
HETATM    1  C1  UNL     1      26.766  52.858   3.239  1.00  0.00     0.094 A 
HETATM    2  C2  UNL     1      26.496  51.498   3.473  1.00  0.00     0.128 A 
HETATM    3  N1  UNL     1      26.644  50.818   2.314  1.00  0.00    -0.358 N 
HETATM    4  C8  UNL     1      27.006  51.705   1.368  1.00  0.00     0.106 A 
HETATM    5  C9  UNL     1      27.089  53.024   1.934  1.00  0.00     0.031 A 
ENDROOT
BRANCH   5   6
HETATM    6  C10 UNL     1      27.136  54.152   1.006  1.00  0.00     0.129 C 
BRANCH   6   7
HETATM    7  N2  UNL     1      26.904  54.310  -0.111  1.00  0.00    -0.277 N 
ATOM      8  H2  UNL     1      25.918  54.568  -0.067  1.00  0.00     0.193 HD
BRANCH   7   9
HETATM    9  O3  UNL     1      27.115  54.365  -1.387  1.00  0.00    -0.280 OA
BRANCH   9  10
HETATM   10  C11 UNL     1      26.167  53.217  -1.878  1.00  0.00     0.205 C 
BRANCH  10  11
HETATM   11  C12 UNL     1      27.005  52.425  -2.806  1.00  0.00     0.012 C 
HETATM   12  C13 UNL     1      28.027  51.571  -2.011  1.00  0.00     0.007 C 
HETATM   13  C14 UNL     1      28.695  50.642  -3.041  1.00  0.00     0.000 C 
HETATM   14  C15 UNL     1      27.764  49.488  -3.286  1.00  0.00     0.000 C 
HETATM   15  C16 UNL     1      26.378  50.013  -2.998  1.00  0.00     0.000 C 
HETATM   16  C17 UNL     1      26.194  51.370  -3.594  1.00  0.00     0.007 C 
ENDBRANCH  10  11
ENDBRANCH   9  10
ENDBRANCH   7   9
ENDBRANCH   6   7
ENDBRANCH   5   6
BRANCH   1  17
HETATM   17  O1  UNL     1      26.706  53.860   4.244  1.00  0.00    -0.358 OA
ATOM     18  H1  UNL     1      26.384  54.741   4.094  1.00  0.00     0.217 HD
ENDBRANCH   1  17
BRANCH   3  19
HETATM   19  C3  UNL     1      26.381  49.424   2.025  1.00  0.00     0.092 C 
HETATM   20  C4  UNL     1      25.436  48.820   3.003  1.00  0.00     0.052 C 
HETATM   21  C5  UNL     1      25.242  47.362   2.544  1.00  0.00     0.169 C 
HETATM   22  O2  UNL     1      26.066  47.054   1.437  1.00  0.00    -0.391 OA
HETATM   23  C6  UNL     1      25.727  47.845   0.310  1.00  0.00     0.169 C 
HETATM   24  C7  UNL     1      25.668  49.308   0.665  1.00  0.00     0.052 C 
ENDBRANCH   3  19
TORSDOF 7
ENDMDL
MODEL 3
REMARK VINA RESULT: -7.777060776      1.944      5.362
REMARK  7 active torsions:
REMARK  status: ('A' for Active; 'I' for Inactive)
REMARK    1  A    between atoms: O1_1  and  C1_3 
REMARK    2  A    between atoms: N1_5  and  C3_6 
REMARK    3  A    between atoms: C9_13  and  C10_14 
REMARK    4  A    between atoms: C10_14  and  N2_15 
REMARK    5  A    between atoms: N2_15  and  O3_17 
REMARK    6  A    between atoms: O3_17  and  C11_18 
REMARK    7  A    between atoms: C11_18  and  C12_19 
ROOT
HETATM    1  C1  UNL     1      26.835  52.873   3.245  1.00  0.00     0.094 A 
HETATM    2  C2  UNL     1      26.506  51.524   3.465  1.00  0.00     0.128 A 
HETATM    3  N1  UNL     1      26.713  50.832   2.323  1.00  0.00    -0.358 N 
HETATM    4  C8  UNL     1      27.170  51.701   1.401  1.00  0.00     0.106 A 
HETATM    5  C9  UNL     1      27.255  53.021   1.967  1.00  0.00     0.031 A 
ENDROOT
BRANCH   5   6
HETATM    6  C10 UNL     1      27.403  54.140   1.039  1.00  0.00     0.129 C 
BRANCH   6   7
HETATM    7  N2  UNL     1      26.964  54.424   0.014  1.00  0.00    -0.277 N 
ATOM      8  H2  UNL     1      27.814  54.493  -0.547  1.00  0.00     0.193 HD
BRANCH   7   9
HETATM    9  O3  UNL     1      26.063  54.711  -0.871  1.00  0.00    -0.280 OA
BRANCH   9  10
HETATM   10  C11 UNL     1      26.705  54.062  -2.146  1.00  0.00     0.205 C 
BRANCH  10  11
HETATM   11  C12 UNL     1      26.467  52.611  -1.975  1.00  0.00     0.012 C 
HETATM   12  C13 UNL     1      25.479  52.097  -3.054  1.00  0.00     0.007 C 
HETATM   13  C14 UNL     1      25.464  50.564  -2.919  1.00  0.00     0.000 C 
HETATM   14  C15 UNL     1      26.677  50.032  -3.628  1.00  0.00     0.000 C 
HETATM   15  C16 UNL     1      27.699  51.142  -3.577  1.00  0.00     0.000 C 
HETATM   16  C17 UNL     1      27.736  51.763  -2.220  1.00  0.00     0.007 C 
ENDBRANCH  10  11
ENDBRANCH   9  10
ENDBRANCH   7   9
ENDBRANCH   6   7
ENDBRANCH   5   6
BRANCH   1  17
HETATM   17  O1  UNL     1      26.736  53.884   4.240  1.00  0.00    -0.358 OA
ATOM     18  H1  UNL     1      25.949  54.390   4.402  1.00  0.00     0.217 HD
ENDBRANCH   1  17
BRANCH   3  19
HETATM   19  C3  UNL     1      26.428  49.445   2.023  1.00  0.00     0.092 C 
HETATM   20  C4  UNL     1      25.497  48.840   3.013  1.00  0.00     0.052 C 
HETATM   21  C5  UNL     1      25.275  47.390   2.540  1.00  0.00     0.169 C 
HETATM   22  O2  UNL     1      26.071  47.087   1.411  1.00  0.00    -0.391 OA
HETATM   23  C6  UNL     1      25.716  47.897   0.303  1.00  0.00     0.169 C 
HETATM   24  C7  UNL     1      25.683  49.356   0.677  1.00  0.00     0.052 C 
ENDBRANCH   3  19
TORSDOF 7
ENDMDL
MODEL 4
REMARK VINA RESULT: -7.605687584      0.813      1.328
REMARK  7 active torsions:
REMARK  status: ('A' for Active; 'I' for Inactive)
REMARK    1  A    between atoms: O1_1  and  C1_3 
REMARK    2  A    between atoms: N1_5  and  C3_6 
REMARK    3  A    between atoms: C9_13  and  C10_14 
REMARK    4  A    between atoms: C10_14  and  N2_15 
REMARK    5  A    between atoms: N2_15  and  O3_17 
REMARK    6  A    between atoms: O3_17  and  C11_18 
REMARK    7  A    between atoms: C11_18  and  C12_19 
ROOT
HETATM    1  C1  UNL     1      25.971  54.668  -2.518  1.00  0.00     0.094 A 
HETATM    2  C2  UNL     1      25.745  53.653  -3.464  1.00  0.00     0.128 A 
HETATM    3  N1  UNL     1      26.098  52.466  -2.923  1.00  0.00    -0.358 N 
HETATM    4  C8  UNL     1      26.527  52.704  -1.669  1.00  0.00     0.106 A 
HETATM    5  C9  UNL     1      26.460  54.112  -1.384  1.00  0.00     0.031 A 
ENDROOT
BRANCH   5   6
HETATM    6  C10 UNL     1      27.189  54.596  -0.214  1.00  0.00     0.129 C 
BRANCH   6   7
HETATM    7  N2  UNL     1      27.440  54.181   0.830  1.00  0.00    -0.277 N 
ATOM      8  H2  UNL     1      26.740  54.658   1.400  1.00  0.00     0.193 HD
BRANCH   7   9
HETATM    9  O3  UNL     1      28.057  53.486   1.732  1.00  0.00    -0.280 OA
BRANCH   9  10
HETATM   10  C11 UNL     1      26.842  53.022   2.609  1.00  0.00     0.205 C 
BRANCH  10  11
HETATM   11  C12 UNL     1      27.106  51.589   2.866  1.00  0.00     0.012 C 
HETATM   12  C13 UNL     1      26.027  51.005   3.814  1.00  0.00     0.007 C 
HETATM   13  C14 UNL     1      26.268  49.485   3.848  1.00  0.00     0.000 C 
HETATM   14  C15 UNL     1      25.648  48.897   2.612  1.00  0.00     0.000 C 
HETATM   15  C16 UNL     1      25.662  50.002   1.583  1.00  0.00     0.000 C 
HETATM   16  C17 UNL     1      26.973  50.717   1.595  1.00  0.00     0.007 C 
ENDBRANCH  10  11
ENDBRANCH   9  10
ENDBRANCH   7   9
ENDBRANCH   6   7
ENDBRANCH   5   6
BRANCH   1  17
HETATM   17  O1  UNL     1      25.707  56.045  -2.756  1.00  0.00    -0.358 OA
ATOM     18  H1  UNL     1      24.900  56.478  -2.505  1.00  0.00     0.217 HD
ENDBRANCH   1  17
BRANCH   3  19
HETATM   19  C3  UNL     1      26.141  51.154  -3.533  1.00  0.00     0.092 C 
HETATM   20  C4  UNL     1      27.392  50.422  -3.195  1.00  0.00     0.052 C 
HETATM   21  C5  UNL     1      27.270  49.052  -3.889  1.00  0.00     0.169 C 
HETATM   22  O2  UNL     1      26.095  48.970  -4.670  1.00  0.00    -0.391 OA
HETATM   23  C6  UNL     1      24.935  49.081  -3.862  1.00  0.00     0.169 C 
HETATM   24  C7  UNL     1      25.008  50.284  -2.958  1.00  0.00     0.052 C 
ENDBRANCH   3  19
TORSDOF 7
ENDMDL
MODEL 5
REMARK VINA RESULT: -7.599834745      2.224      6.241
REMARK  7 active torsions:
REMARK  status: ('A' for Active; 'I' for Inactive)
REMARK    1  A    between atoms: O1_1  and  C1_3 
REMARK    2  A    between atoms: N1_5  and  C3_6 
REMARK    3  A    between atoms: C9_13  and  C10_14 
REMARK    4  A    between atoms: C10_14  and  N2_15 
REMARK    5  A    between atoms: N2_15  and  O3_17 
REMARK    6  A    between atoms: O3_17  and  C11_18 
REMARK    7  A    between atoms: C11_18  and  C12_19 
ROOT
HETATM    1  C1  UNL     1      26.800  52.847   3.256  1.00  0.00     0.094 A 
HETATM    2  C2  UNL     1      26.497  51.492   3.478  1.00  0.00     0.128 A 
HETATM    3  N1  UNL     1      26.677  50.810   2.325  1.00  0.00    -0.358 N 
HETATM    4  C8  UNL     1      27.091  51.691   1.394  1.00  0.00     0.106 A 
HETATM    5  C9  UNL     1      27.175  53.008   1.965  1.00  0.00     0.031 A 
ENDROOT
BRANCH   5   6
HETATM    6  C10 UNL     1      27.278  54.135   1.040  1.00  0.00     0.129 C 
BRANCH   6   7
HETATM    7  N2  UNL     1      27.269  54.265  -0.104  1.00  0.00    -0.277 N 
ATOM      8  H2  UNL     1      28.201  53.926  -0.344  1.00  0.00     0.193 HD
BRANCH   7   9
HETATM    9  O3  UNL     1      26.812  54.574  -1.275  1.00  0.00    -0.280 OA
BRANCH   9  10
HETATM   10  C11 UNL     1      26.850  53.170  -1.972  1.00  0.00     0.205 C 
BRANCH  10  11
HETATM   11  C12 UNL     1      25.957  53.320  -3.142  1.00  0.00     0.012 C 
HETATM   12  C13 UNL     1      25.978  54.785  -3.650  1.00  0.00     0.007 C 
HETATM   13  C14 UNL     1      25.194  54.786  -4.975  1.00  0.00     0.000 C 
HETATM   14  C15 UNL     1      26.117  54.290  -6.052  1.00  0.00     0.000 C 
HETATM   15  C16 UNL     1      27.118  53.401  -5.354  1.00  0.00     0.000 C 
HETATM   16  C17 UNL     1      26.436  52.510  -4.369  1.00  0.00     0.007 C 
ENDBRANCH  10  11
ENDBRANCH   9  10
ENDBRANCH   7   9
ENDBRANCH   6   7
ENDBRANCH   5   6
BRANCH   1  17
HETATM   17  O1  UNL     1      26.720  53.850   4.260  1.00  0.00    -0.358 OA
ATOM     18  H1  UNL     1      27.052  53.742   5.143  1.00  0.00     0.217 HD
ENDBRANCH   1  17
BRANCH   3  19
HETATM   19  C3  UNL     1      26.401  49.421   2.026  1.00  0.00     0.092 C 
HETATM   20  C4  UNL     1      25.482  48.806   3.022  1.00  0.00     0.052 C 
HETATM   21  C5  UNL     1      25.269  47.355   2.549  1.00  0.00     0.169 C 
HETATM   22  O2  UNL     1      26.060  47.060   1.415  1.00  0.00    -0.391 OA
HETATM   23  C6  UNL     1      25.690  47.867   0.309  1.00  0.00     0.169 C 
HETATM   24  C7  UNL     1      25.647  49.326   0.685  1.00  0.00     0.052 C 
ENDBRANCH   3  19
TORSDOF 7
ENDMDL
