MODEL 1
REMARK VINA RESULT: -6.727931885      0.000      0.000
REMARK  3 active torsions:
REMARK  status: ('A' for Active; 'I' for Inactive)
REMARK    1  A    between atoms: C12_12  and  O1_13 
REMARK    2  A    between atoms: C13_15  and  C15_17 
REMARK    3  A    between atoms: C15_17  and  O2_18 
ROOT
HETATM    1  C1  UNL     1      12.583  -1.523  11.931  1.00  0.00     0.015 C 
HETATM    2  C2  UNL     1      13.123  -2.716  11.180  1.00  0.00    -0.043 C 
HETATM    3  C3  UNL     1      12.077  -2.832  10.037  1.00  0.00     0.015 C 
HETATM    4  C4  UNL     1      14.400  -2.398  10.452  1.00  0.00     0.009 C 
HETATM    5  C5  UNL     1      15.650  -2.788  11.147  1.00  0.00     0.002 C 
HETATM    6  C6  UNL     1      15.625  -4.131  11.780  1.00  0.00     0.010 C 
HETATM    7  C7  UNL     1      14.396  -4.443  12.575  1.00  0.00    -0.028 C 
HETATM    8  C8  UNL     1      14.327  -5.997  12.545  1.00  0.00     0.016 C 
HETATM    9  C9  UNL     1      13.144  -4.003  11.905  1.00  0.00     0.002 C 
HETATM   10  C10 UNL     1      11.937  -4.165  12.777  1.00  0.00     0.009 C 
HETATM   11  C11 UNL     1      12.101  -3.731  14.179  1.00  0.00     0.033 C 
HETATM   12  C12 UNL     1      13.354  -4.143  14.847  1.00  0.00     0.129 C 
HETATM   13  C13 UNL     1      14.590  -4.135  14.010  1.00  0.00     0.011 C 
HETATM   14  C14 UNL     1      15.455  -5.260  14.636  1.00  0.00     0.021 C 
ENDROOT
BRANCH  13  15
HETATM   15  C15 UNL     1      15.441  -2.918  14.320  1.00  0.00     0.176 C 
BRANCH  15  16
HETATM   16  O2  UNL     1      15.228  -2.672  15.701  1.00  0.00    -0.400 OA
ATOM     17  H2  UNL     1      16.031  -2.954  16.123  1.00  0.00     0.209 HD
ENDBRANCH  15  16
ENDBRANCH  13  15
BRANCH  12  18
HETATM   18  O1  UNL     1      13.141  -5.377  15.509  1.00  0.00    -0.395 OA
ATOM     19  H1  UNL     1      13.712  -5.424  16.267  1.00  0.00     0.210 HD
ENDBRANCH  12  18
TORSDOF 3
ENDMDL
MODEL 2
REMARK VINA RESULT: -6.583974037      1.480      2.386
REMARK  3 active torsions:
REMARK  status: ('A' for Active; 'I' for Inactive)
REMARK    1  A    between atoms: C12_12  and  O1_13 
REMARK    2  A    between atoms: C13_15  and  C15_17 
REMARK    3  A    between atoms: C15_17  and  O2_18 
ROOT
HETATM    1  C1  UNL     1      15.474  -2.812  12.825  1.00  0.00     0.015 C 
HETATM    2  C2  UNL     1      14.764  -3.895  12.051  1.00  0.00    -0.043 C 
HETATM    3  C3  UNL     1      13.832  -3.039  11.150  1.00  0.00     0.015 C 
HETATM    4  C4  UNL     1      15.672  -4.576  11.065  1.00  0.00     0.009 C 
HETATM    5  C5  UNL     1      16.265  -5.858  11.515  1.00  0.00     0.002 C 
HETATM    6  C6  UNL     1      15.329  -6.772  12.217  1.00  0.00     0.010 C 
HETATM    7  C7  UNL     1      14.466  -6.131  13.260  1.00  0.00    -0.028 C 
HETATM    8  C8  UNL     1      13.227  -7.069  13.333  1.00  0.00     0.016 C 
HETATM    9  C9  UNL     1      13.915  -4.820  12.830  1.00  0.00     0.002 C 
HETATM   10  C10 UNL     1      13.194  -4.109  13.935  1.00  0.00     0.009 C 
HETATM   11  C11 UNL     1      13.870  -4.123  15.248  1.00  0.00     0.033 C 
HETATM   12  C12 UNL     1      14.444  -5.418  15.673  1.00  0.00     0.129 C 
HETATM   13  C13 UNL     1      15.070  -6.252  14.605  1.00  0.00     0.011 C 
HETATM   14  C14 UNL     1      14.849  -7.703  15.109  1.00  0.00     0.021 C 
ENDROOT
BRANCH  13  15
HETATM   15  C15 UNL     1      16.583  -6.158  14.668  1.00  0.00     0.176 C 
BRANCH  15  16
HETATM   16  O2  UNL     1      16.840  -5.090  15.565  1.00  0.00    -0.400 OA
ATOM     17  H2  UNL     1      16.053  -4.558  15.540  1.00  0.00     0.209 HD
ENDBRANCH  15  16
ENDBRANCH  13  15
BRANCH  12  18
HETATM   18  O1  UNL     1      13.480  -6.123  16.434  1.00  0.00    -0.395 OA
ATOM     19  H1  UNL     1      13.815  -6.256  17.312  1.00  0.00     0.210 HD
ENDBRANCH  12  18
TORSDOF 3
ENDMDL
MODEL 3
REMARK VINA RESULT: -6.296510575      1.743      2.951
REMARK  3 active torsions:
REMARK  status: ('A' for Active; 'I' for Inactive)
REMARK    1  A    between atoms: C12_12  and  O1_13 
REMARK    2  A    between atoms: C13_15  and  C15_17 
REMARK    3  A    between atoms: C15_17  and  O2_18 
ROOT
HETATM    1  C1  UNL     1      17.329  -3.493  11.862  1.00  0.00     0.015 C 
HETATM    2  C2  UNL     1      16.037  -4.105  11.378  1.00  0.00    -0.043 C 
HETATM    3  C3  UNL     1      15.795  -3.276  10.086  1.00  0.00     0.015 C 
HETATM    4  C4  UNL     1      16.230  -5.504  10.863  1.00  0.00     0.009 C 
HETATM    5  C5  UNL     1      15.908  -6.591  11.819  1.00  0.00     0.002 C 
HETATM    6  C6  UNL     1      14.661  -6.393  12.599  1.00  0.00     0.010 C 
HETATM    7  C7  UNL     1      14.482  -5.028  13.188  1.00  0.00    -0.028 C 
HETATM    8  C8  UNL     1      12.939  -4.896  13.340  1.00  0.00     0.016 C 
HETATM    9  C9  UNL     1      14.857  -3.938  12.250  1.00  0.00     0.002 C 
HETATM   10  C10 UNL     1      14.835  -2.587  12.898  1.00  0.00     0.009 C 
HETATM   11  C11 UNL     1      15.446  -2.517  14.241  1.00  0.00     0.033 C 
HETATM   12  C12 UNL     1      15.098  -3.611  15.174  1.00  0.00     0.129 C 
HETATM   13  C13 UNL     1      14.971  -4.976  14.583  1.00  0.00     0.011 C 
HETATM   14  C14 UNL     1      13.919  -5.663  15.494  1.00  0.00     0.021 C 
ENDROOT
BRANCH  13  15
HETATM   15  C15 UNL     1      16.200  -5.810  14.890  1.00  0.00     0.176 C 
BRANCH  15  16
HETATM   16  O2  UNL     1      16.924  -5.049  15.844  1.00  0.00    -0.400 OA
ATOM     17  H2  UNL     1      17.820  -5.352  15.764  1.00  0.00     0.209 HD
ENDBRANCH  15  16
ENDBRANCH  13  15
BRANCH  12  18
HETATM   18  O1  UNL     1      13.967  -3.228  15.934  1.00  0.00    -0.395 OA
ATOM     19  H1  UNL     1      13.961  -2.282  16.025  1.00  0.00     0.210 HD
ENDBRANCH  12  18
TORSDOF 3
ENDMDL
MODEL 4
REMARK VINA RESULT: -6.280340188      1.568      1.860
REMARK  3 active torsions:
REMARK  status: ('A' for Active; 'I' for Inactive)
REMARK    1  A    between atoms: C12_12  and  O1_13 
REMARK    2  A    between atoms: C13_15  and  C15_17 
REMARK    3  A    between atoms: C15_17  and  O2_18 
ROOT
HETATM    1  C1  UNL     1      11.836  -3.200  13.685  1.00  0.00     0.015 C 
HETATM    2  C2  UNL     1      12.662  -3.741  12.544  1.00  0.00    -0.043 C 
HETATM    3  C3  UNL     1      11.611  -3.731  11.400  1.00  0.00     0.015 C 
HETATM    4  C4  UNL     1      13.696  -2.756  12.075  1.00  0.00     0.009 C 
HETATM    5  C5  UNL     1      15.063  -2.952  12.617  1.00  0.00     0.002 C 
HETATM    6  C6  UNL     1      15.530  -4.361  12.648  1.00  0.00     0.010 C 
HETATM    7  C7  UNL     1      14.544  -5.353  13.184  1.00  0.00    -0.028 C 
HETATM    8  C8  UNL     1      14.979  -6.693  12.523  1.00  0.00     0.016 C 
HETATM    9  C9  UNL     1      13.163  -5.124  12.686  1.00  0.00     0.002 C 
HETATM   10  C10 UNL     1      12.156  -6.011  13.353  1.00  0.00     0.009 C 
HETATM   11  C11 UNL     1      12.297  -6.144  14.817  1.00  0.00     0.033 C 
HETATM   12  C12 UNL     1      13.671  -6.347  15.325  1.00  0.00     0.129 C 
HETATM   13  C13 UNL     1      14.757  -5.597  14.628  1.00  0.00     0.011 C 
HETATM   14  C14 UNL     1      15.992  -6.522  14.788  1.00  0.00     0.021 C 
ENDROOT
BRANCH  13  15
HETATM   15  C15 UNL     1      15.193  -4.398  15.449  1.00  0.00     0.176 C 
BRANCH  15  16
HETATM   16  O2  UNL     1      15.900  -4.951  16.547  1.00  0.00    -0.400 OA
ATOM     17  H2  UNL     1      15.229  -5.342  17.094  1.00  0.00     0.209 HD
ENDBRANCH  15  16
ENDBRANCH  13  15
BRANCH  12  18
HETATM   18  O1  UNL     1      13.928  -7.737  15.417  1.00  0.00    -0.395 OA
ATOM     19  H1  UNL     1      13.757  -8.025  16.306  1.00  0.00     0.210 HD
ENDBRANCH  12  18
TORSDOF 3
ENDMDL
MODEL 5
REMARK VINA RESULT: -6.237364139      1.740      2.774
REMARK  3 active torsions:
REMARK  status: ('A' for Active; 'I' for Inactive)
REMARK    1  A    between atoms: C12_12  and  O1_13 
REMARK    2  A    between atoms: C13_15  and  C15_17 
REMARK    3  A    between atoms: C15_17  and  O2_18 
ROOT
HETATM    1  C1  UNL     1      15.849  -3.109  13.105  1.00  0.00     0.015 C 
HETATM    2  C2  UNL     1      15.640  -4.328  12.240  1.00  0.00    -0.043 C 
HETATM    3  C3  UNL     1      15.224  -3.660  10.900  1.00  0.00     0.015 C 
HETATM    4  C4  UNL     1      16.935  -5.011  11.900  1.00  0.00     0.009 C 
HETATM    5  C5  UNL     1      17.288  -6.178  12.744  1.00  0.00     0.002 C 
HETATM    6  C6  UNL     1      16.165  -7.105  13.035  1.00  0.00     0.010 C 
HETATM    7  C7  UNL     1      14.884  -6.451  13.451  1.00  0.00    -0.028 C 
HETATM    8  C8  UNL     1      13.798  -7.493  13.054  1.00  0.00     0.016 C 
HETATM    9  C9  UNL     1      14.557  -5.249  12.641  1.00  0.00     0.002 C 
HETATM   10  C10 UNL     1      13.367  -4.506  13.167  1.00  0.00     0.009 C 
HETATM   11  C11 UNL     1      13.328  -4.324  14.633  1.00  0.00     0.033 C 
HETATM   12  C12 UNL     1      13.676  -5.508  15.447  1.00  0.00     0.129 C 
HETATM   13  C13 UNL     1      14.769  -6.379  14.924  1.00  0.00     0.011 C 
HETATM   14  C14 UNL     1      14.390  -7.788  15.453  1.00  0.00     0.021 C 
ENDROOT
BRANCH  13  15
HETATM   15  C15 UNL     1      16.061  -6.132  15.681  1.00  0.00     0.176 C 
BRANCH  15  16
HETATM   16  O2  UNL     1      15.874  -4.875  16.311  1.00  0.00    -0.400 OA
ATOM     17  H2  UNL     1      16.030  -4.236  15.625  1.00  0.00     0.209 HD
ENDBRANCH  15  16
ENDBRANCH  13  15
BRANCH  12  18
HETATM   18  O1  UNL     1      12.492  -6.225  15.749  1.00  0.00    -0.395 OA
ATOM     19  H1  UNL     1      12.649  -7.152  15.612  1.00  0.00     0.210 HD
ENDBRANCH  12  18
TORSDOF 3
ENDMDL
