MODEL 1
REMARK VINA RESULT: -6.523044613      0.000      0.000
REMARK  3 active torsions:
REMARK  status: ('A' for Active; 'I' for Inactive)
REMARK    1  A    between atoms: C2_2  and  O1_3 
REMARK    2  A    between atoms: C2_2  and  C3_5 
REMARK    3  A    between atoms: C5_7  and  O2_9 
ROOT
HETATM    1  C3  UNL     1      14.941  -3.467  12.111  1.00  0.00     0.005 A 
HETATM    2  C4  UNL     1      15.326  -2.662  13.369  1.00  0.00     0.052 A 
HETATM    3  C5  UNL     1      15.248  -3.885  14.246  1.00  0.00     0.063 A 
HETATM    4  C6  UNL     1      14.319  -3.870  15.395  1.00  0.00     0.046 C 
HETATM    5  C7  UNL     1      14.824  -4.636  13.007  1.00  0.00    -0.003 A 
HETATM    6  C8  UNL     1      13.480  -5.273  13.194  1.00  0.00     0.019 C 
HETATM    7  C9  UNL     1      15.862  -5.725  12.744  1.00  0.00     0.013 C 
HETATM    8  C10 UNL     1      16.011  -6.033  11.304  1.00  0.00     0.002 C 
HETATM    9  C11 UNL     1      16.286  -4.858  10.467  1.00  0.00     0.010 C 
HETATM   10  C12 UNL     1      16.002  -3.513  11.070  1.00  0.00    -0.037 C 
HETATM   11  C13 UNL     1      15.719  -2.636   9.852  1.00  0.00     0.015 C 
HETATM   12  C14 UNL     1      17.350  -2.947  11.551  1.00  0.00     0.015 C 
ENDROOT
BRANCH   1  13
HETATM   13  C2  UNL     1      13.632  -2.849  11.609  1.00  0.00     0.124 C 
HETATM   14  C1  UNL     1      12.444  -3.732  11.650  1.00  0.00     0.040 C 
BRANCH  13  15
HETATM   15  O1  UNL     1      13.300  -1.697  12.345  1.00  0.00    -0.395 OA
ATOM     16  H1  UNL     1      14.109  -1.375  12.722  1.00  0.00     0.210 HD
ENDBRANCH  13  15
ENDBRANCH   1  13
BRANCH   3  17
HETATM   17  O2  UNL     1      16.511  -4.274  14.772  1.00  0.00    -0.389 OA
ATOM     18  H2  UNL     1      16.444  -4.940  15.446  1.00  0.00     0.210 HD
ENDBRANCH   3  17
TORSDOF 3
ENDMDL
MODEL 2
REMARK VINA RESULT: -6.267430728      1.873      2.800
REMARK  3 active torsions:
REMARK  status: ('A' for Active; 'I' for Inactive)
REMARK    1  A    between atoms: C2_2  and  O1_3 
REMARK    2  A    between atoms: C2_2  and  C3_5 
REMARK    3  A    between atoms: C5_7  and  O2_9 
ROOT
HETATM    1  C3  UNL     1      14.235  -5.133  13.868  1.00  0.00     0.005 A 
HETATM    2  C4  UNL     1      14.593  -4.561  15.255  1.00  0.00     0.052 A 
HETATM    3  C5  UNL     1      15.722  -5.544  15.434  1.00  0.00     0.063 A 
HETATM    4  C6  UNL     1      15.692  -6.444  16.605  1.00  0.00     0.046 C 
HETATM    5  C7  UNL     1      15.316  -6.115  14.097  1.00  0.00    -0.003 A 
HETATM    6  C8  UNL     1      14.961  -7.567  14.213  1.00  0.00     0.019 C 
HETATM    7  C9  UNL     1      16.502  -5.963  13.147  1.00  0.00     0.013 C 
HETATM    8  C10 UNL     1      16.084  -5.786  11.738  1.00  0.00     0.002 C 
HETATM    9  C11 UNL     1      15.127  -4.692  11.532  1.00  0.00     0.010 C 
HETATM   10  C12 UNL     1      14.418  -4.172  12.749  1.00  0.00    -0.037 C 
HETATM   11  C13 UNL     1      13.111  -3.618  12.182  1.00  0.00     0.015 C 
HETATM   12  C14 UNL     1      15.143  -2.881  13.168  1.00  0.00     0.015 C 
ENDROOT
BRANCH   1  13
HETATM   13  C2  UNL     1      12.798  -5.649  13.991  1.00  0.00     0.124 C 
HETATM   14  C1  UNL     1      12.496  -6.899  13.257  1.00  0.00     0.040 C 
BRANCH  13  15
HETATM   15  O1  UNL     1      12.455  -5.880  15.335  1.00  0.00    -0.395 OA
ATOM     16  H1  UNL     1      13.261  -5.815  15.834  1.00  0.00     0.210 HD
ENDBRANCH  13  15
ENDBRANCH   1  13
BRANCH   3  17
HETATM   17  O2  UNL     1      17.001  -4.924  15.450  1.00  0.00    -0.389 OA
ATOM     18  H2  UNL     1      17.243  -4.593  16.307  1.00  0.00     0.210 HD
ENDBRANCH   3  17
TORSDOF 3
ENDMDL
MODEL 3
REMARK VINA RESULT: -6.118831306      2.441      4.372
REMARK  3 active torsions:
REMARK  status: ('A' for Active; 'I' for Inactive)
REMARK    1  A    between atoms: C2_2  and  O1_3 
REMARK    2  A    between atoms: C2_2  and  C3_5 
REMARK    3  A    between atoms: C5_7  and  O2_9 
ROOT
HETATM    1  C3  UNL     1      14.544  -5.531  14.766  1.00  0.00     0.005 A 
HETATM    2  C4  UNL     1      13.026  -5.455  15.032  1.00  0.00     0.052 A 
HETATM    3  C5  UNL     1      12.703  -5.630  13.570  1.00  0.00     0.063 A 
HETATM    4  C6  UNL     1      11.911  -4.581  12.895  1.00  0.00     0.046 C 
HETATM    5  C7  UNL     1      14.193  -5.649  13.335  1.00  0.00    -0.003 A 
HETATM    6  C8  UNL     1      14.608  -4.556  12.397  1.00  0.00     0.019 C 
HETATM    7  C9  UNL     1      14.551  -7.001  12.719  1.00  0.00     0.013 C 
HETATM    8  C10 UNL     1      15.912  -7.451  13.086  1.00  0.00     0.002 C 
HETATM    9  C11 UNL     1      16.166  -7.470  14.532  1.00  0.00     0.010 C 
HETATM   10  C12 UNL     1      15.215  -6.697  15.399  1.00  0.00    -0.037 C 
HETATM   11  C13 UNL     1      16.063  -6.342  16.619  1.00  0.00     0.015 C 
HETATM   12  C14 UNL     1      14.228  -7.716  15.996  1.00  0.00     0.015 C 
ENDROOT
BRANCH   1  13
HETATM   13  C2  UNL     1      15.112  -4.185  15.228  1.00  0.00     0.124 C 
HETATM   14  C1  UNL     1      16.044  -3.521  14.288  1.00  0.00     0.040 C 
BRANCH  13  15
HETATM   15  O1  UNL     1      14.083  -3.263  15.489  1.00  0.00    -0.395 OA
ATOM     16  H1  UNL     1      13.852  -3.368  16.404  1.00  0.00     0.210 HD
ENDBRANCH  13  15
ENDBRANCH   1  13
BRANCH   3  17
HETATM   17  O2  UNL     1      12.043  -6.858  13.289  1.00  0.00    -0.389 OA
ATOM     18  H2  UNL     1      12.276  -7.220  12.443  1.00  0.00     0.210 HD
ENDBRANCH   3  17
TORSDOF 3
ENDMDL
MODEL 4
REMARK VINA RESULT: -6.112514196      1.734      3.275
REMARK  3 active torsions:
REMARK  status: ('A' for Active; 'I' for Inactive)
REMARK    1  A    between atoms: C2_2  and  O1_3 
REMARK    2  A    between atoms: C2_2  and  C3_5 
REMARK    3  A    between atoms: C5_7  and  O2_9 
ROOT
HETATM    1  C3  UNL     1      15.431  -4.555  13.388  1.00  0.00     0.005 A 
HETATM    2  C4  UNL     1      15.824  -6.039  13.541  1.00  0.00     0.052 A 
HETATM    3  C5  UNL     1      14.413  -6.437  13.889  1.00  0.00     0.063 A 
HETATM    4  C6  UNL     1      14.171  -7.110  15.182  1.00  0.00     0.046 C 
HETATM    5  C7  UNL     1      14.069  -4.972  13.782  1.00  0.00    -0.003 A 
HETATM    6  C8  UNL     1      13.498  -4.454  15.068  1.00  0.00     0.019 C 
HETATM    7  C9  UNL     1      13.029  -4.818  12.674  1.00  0.00     0.013 C 
HETATM    8  C10 UNL     1      13.126  -3.513  11.981  1.00  0.00     0.002 C 
HETATM    9  C11 UNL     1      14.465  -3.210  11.463  1.00  0.00     0.010 C 
HETATM   10  C12 UNL     1      15.605  -4.019  12.013  1.00  0.00    -0.037 C 
HETATM   11  C13 UNL     1      16.804  -3.086  11.855  1.00  0.00     0.015 C 
HETATM   12  C14 UNL     1      15.921  -5.107  10.972  1.00  0.00     0.015 C 
ENDROOT
BRANCH   1  13
HETATM   13  C2  UNL     1      16.251  -3.799  14.438  1.00  0.00     0.124 C 
HETATM   14  C1  UNL     1      15.532  -2.736  15.177  1.00  0.00     0.040 C 
BRANCH  13  15
HETATM   15  O1  UNL     1      16.769  -4.678  15.406  1.00  0.00    -0.395 OA
ATOM     16  H1  UNL     1      17.709  -4.709  15.268  1.00  0.00     0.210 HD
ENDBRANCH  13  15
ENDBRANCH   1  13
BRANCH   3  17
HETATM   17  O2  UNL     1      13.808  -7.262  12.901  1.00  0.00    -0.389 OA
ATOM     18  H2  UNL     1      14.380  -7.439  12.164  1.00  0.00     0.210 HD
ENDBRANCH   3  17
TORSDOF 3
ENDMDL
MODEL 5
REMARK VINA RESULT: -6.088489391      2.011      3.752
REMARK  3 active torsions:
REMARK  status: ('A' for Active; 'I' for Inactive)
REMARK    1  A    between atoms: C2_2  and  O1_3 
REMARK    2  A    between atoms: C2_2  and  C3_5 
REMARK    3  A    between atoms: C5_7  and  O2_9 
ROOT
HETATM    1  C3  UNL     1      14.827  -5.329  13.085  1.00  0.00     0.005 A 
HETATM    2  C4  UNL     1      13.545  -6.158  13.303  1.00  0.00     0.052 A 
HETATM    3  C5  UNL     1      13.754  -6.200  14.794  1.00  0.00     0.063 A 
HETATM    4  C6  UNL     1      13.861  -7.518  15.453  1.00  0.00     0.046 C 
HETATM    5  C7  UNL     1      15.030  -5.432  14.545  1.00  0.00    -0.003 A 
HETATM    6  C8  UNL     1      16.222  -6.182  15.058  1.00  0.00     0.019 C 
HETATM    7  C9  UNL     1      14.922  -4.098  15.282  1.00  0.00     0.013 C 
HETATM    8  C10 UNL     1      15.667  -3.013  14.605  1.00  0.00     0.002 C 
HETATM    9  C11 UNL     1      15.317  -2.840  13.190  1.00  0.00     0.010 C 
HETATM   10  C12 UNL     1      14.586  -3.972  12.527  1.00  0.00    -0.037 C 
HETATM   11  C13 UNL     1      14.972  -3.825  11.057  1.00  0.00     0.015 C 
HETATM   12  C14 UNL     1      13.097  -3.583  12.496  1.00  0.00     0.015 C 
ENDROOT
BRANCH   1  13
HETATM   13  C2  UNL     1      15.732  -6.192  12.200  1.00  0.00     0.124 C 
HETATM   14  C1  UNL     1      17.176  -6.158  12.528  1.00  0.00     0.040 C 
BRANCH  13  15
HETATM   15  O1  UNL     1      15.344  -7.543  12.242  1.00  0.00    -0.395 OA
ATOM     16  H1  UNL     1      14.399  -7.555  12.149  1.00  0.00     0.210 HD
ENDBRANCH  13  15
ENDBRANCH   1  13
BRANCH   3  17
HETATM   17  O2  UNL     1      12.762  -5.482  15.516  1.00  0.00    -0.389 OA
ATOM     18  H2  UNL     1      12.820  -5.609  16.455  1.00  0.00     0.210 HD
ENDBRANCH   3  17
TORSDOF 3
ENDMDL
