MODEL 1
REMARK VINA RESULT: -6.331728990      0.000      0.000
REMARK  3 active torsions:
REMARK  status: ('A' for Active; 'I' for Inactive)
REMARK    1  A    between atoms: C2_2  and  O1_4 
REMARK    2  A    between atoms: C2_2  and  C4_6 
REMARK    3  A    between atoms: C6_8  and  O2_9 
ROOT
HETATM    1  C4  UNL     1      13.763  -3.725  13.502  1.00  0.00     0.031 C 
HETATM    2  C5  UNL     1      15.017  -2.880  13.857  1.00  0.00     0.040 C 
HETATM    3  C6  UNL     1      16.187  -3.789  13.768  1.00  0.00     0.123 C 
HETATM    4  C7  UNL     1      15.655  -5.189  14.009  1.00  0.00     0.024 C 
HETATM    5  C8  UNL     1      16.232  -6.110  13.010  1.00  0.00     0.008 C 
HETATM    6  C9  UNL     1      15.438  -7.321  12.687  1.00  0.00     0.001 C 
HETATM    7  C10 UNL     1      13.963  -7.078  12.561  1.00  0.00     0.009 C 
HETATM    8  C11 UNL     1      13.504  -6.299  13.766  1.00  0.00    -0.040 C 
HETATM    9  C12 UNL     1      13.961  -7.256  14.908  1.00  0.00     0.015 C 
HETATM   10  C13 UNL     1      12.019  -6.366  13.855  1.00  0.00     0.015 C 
HETATM   11  C14 UNL     1      14.158  -5.007  14.031  1.00  0.00    -0.025 C 
HETATM   12  C15 UNL     1      13.879  -4.869  15.574  1.00  0.00     0.017 C 
ENDROOT
BRANCH   1  13
HETATM   13  C2  UNL     1      13.387  -3.303  12.180  1.00  0.00     0.055 C 
HETATM   14  C1  UNL     1      11.984  -3.595  11.686  1.00  0.00     0.045 C 
HETATM   15  C3  UNL     1      14.322  -3.535  11.031  1.00  0.00     0.045 C 
BRANCH  13  16
HETATM   16  O1  UNL     1      13.357  -1.871  12.250  1.00  0.00    -0.390 OA
ATOM     17  H1  UNL     1      13.974  -1.713  12.955  1.00  0.00     0.210 HD
ENDBRANCH  13  16
ENDBRANCH   1  13
BRANCH   3  18
HETATM   18  O2  UNL     1      17.137  -3.393  14.708  1.00  0.00    -0.395 OA
ATOM     19  H2  UNL     1      17.539  -4.168  15.083  1.00  0.00     0.210 HD
ENDBRANCH   3  18
TORSDOF 3
ENDMDL
MODEL 2
REMARK VINA RESULT: -6.294491021      1.752      2.975
REMARK  3 active torsions:
REMARK  status: ('A' for Active; 'I' for Inactive)
REMARK    1  A    between atoms: C2_2  and  O1_4 
REMARK    2  A    between atoms: C2_2  and  C4_6 
REMARK    3  A    between atoms: C6_8  and  O2_9 
ROOT
HETATM    1  C4  UNL     1      13.814  -5.748  14.528  1.00  0.00     0.031 C 
HETATM    2  C5  UNL     1      13.699  -4.501  15.446  1.00  0.00     0.040 C 
HETATM    3  C6  UNL     1      14.546  -3.442  14.842  1.00  0.00     0.123 C 
HETATM    4  C7  UNL     1      15.607  -4.160  14.030  1.00  0.00     0.024 C 
HETATM    5  C8  UNL     1      15.741  -3.506  12.714  1.00  0.00     0.008 C 
HETATM    6  C9  UNL     1      16.240  -4.351  11.600  1.00  0.00     0.001 C 
HETATM    7  C10 UNL     1      15.671  -5.739  11.574  1.00  0.00     0.009 C 
HETATM    8  C11 UNL     1      15.799  -6.332  12.952  1.00  0.00    -0.040 C 
HETATM    9  C12 UNL     1      17.339  -6.210  13.166  1.00  0.00     0.015 C 
HETATM   10  C13 UNL     1      15.594  -7.805  12.872  1.00  0.00     0.015 C 
HETATM   11  C14 UNL     1      15.174  -5.605  14.069  1.00  0.00    -0.025 C 
HETATM   12  C15 UNL     1      16.028  -6.158  15.270  1.00  0.00     0.017 C 
ENDROOT
BRANCH   1  13
HETATM   13  C2  UNL     1      12.563  -5.814  13.824  1.00  0.00     0.055 C 
HETATM   14  C1  UNL     1      12.175  -7.107  13.134  1.00  0.00     0.045 C 
HETATM   15  C3  UNL     1      12.155  -4.688  12.923  1.00  0.00     0.045 C 
BRANCH  13  16
HETATM   16  O1  UNL     1      11.564  -5.746  14.851  1.00  0.00    -0.390 OA
ATOM     17  H1  UNL     1      10.818  -5.430  14.355  1.00  0.00     0.210 HD
ENDBRANCH  13  16
ENDBRANCH   1  13
BRANCH   3  18
HETATM   18  O2  UNL     1      15.075  -2.653  15.862  1.00  0.00    -0.395 OA
ATOM     19  H2  UNL     1      15.239  -1.781  15.521  1.00  0.00     0.210 HD
ENDBRANCH   3  18
TORSDOF 3
ENDMDL
MODEL 3
REMARK VINA RESULT: -6.192217384      1.722      3.289
REMARK  3 active torsions:
REMARK  status: ('A' for Active; 'I' for Inactive)
REMARK    1  A    between atoms: C2_2  and  O1_4 
REMARK    2  A    between atoms: C2_2  and  C4_6 
REMARK    3  A    between atoms: C6_8  and  O2_9 
ROOT
HETATM    1  C4  UNL     1      12.910  -4.808  12.677  1.00  0.00     0.031 C 
HETATM    2  C5  UNL     1      12.168  -5.440  13.886  1.00  0.00     0.040 C 
HETATM    3  C6  UNL     1      13.034  -5.240  15.076  1.00  0.00     0.123 C 
HETATM    4  C7  UNL     1      14.452  -5.118  14.551  1.00  0.00     0.024 C 
HETATM    5  C8  UNL     1      15.124  -3.986  15.218  1.00  0.00     0.008 C 
HETATM    6  C9  UNL     1      16.231  -3.338  14.471  1.00  0.00     0.001 C 
HETATM    7  C10 UNL     1      15.966  -3.156  13.006  1.00  0.00     0.009 C 
HETATM    8  C11 UNL     1      15.478  -4.465  12.444  1.00  0.00    -0.040 C 
HETATM    9  C12 UNL     1      16.668  -5.395  12.830  1.00  0.00     0.015 C 
HETATM   10  C13 UNL     1      15.563  -4.422  10.958  1.00  0.00     0.015 C 
HETATM   11  C14 UNL     1      14.279  -5.064  13.053  1.00  0.00    -0.025 C 
HETATM   12  C15 UNL     1      14.493  -6.572  12.656  1.00  0.00     0.017 C 
ENDROOT
BRANCH   1  13
HETATM   13  C2  UNL     1      12.202  -3.589  12.396  1.00  0.00     0.055 C 
HETATM   14  C1  UNL     1      10.899  -3.313  13.119  1.00  0.00     0.045 C 
HETATM   15  C3  UNL     1      12.028  -3.141  10.976  1.00  0.00     0.045 C 
BRANCH  13  16
HETATM   16  O1  UNL     1      13.034  -2.552  12.932  1.00  0.00    -0.390 OA
ATOM     17  H1  UNL     1      12.413  -1.835  12.990  1.00  0.00     0.210 HD
ENDBRANCH  13  16
ENDBRANCH   1  13
BRANCH   3  18
HETATM   18  O2  UNL     1      12.860  -6.315  15.944  1.00  0.00    -0.395 OA
ATOM     19  H2  UNL     1      13.277  -6.110  16.774  1.00  0.00     0.210 HD
ENDBRANCH   3  18
TORSDOF 3
ENDMDL
MODEL 4
REMARK VINA RESULT: -6.172139233      1.522      2.302
REMARK  3 active torsions:
REMARK  status: ('A' for Active; 'I' for Inactive)
REMARK    1  A    between atoms: C2_2  and  O1_4 
REMARK    2  A    between atoms: C2_2  and  C4_6 
REMARK    3  A    between atoms: C6_8  and  O2_9 
ROOT
HETATM    1  C4  UNL     1      14.260  -3.030  12.320  1.00  0.00     0.031 C 
HETATM    2  C5  UNL     1      15.163  -2.863  11.068  1.00  0.00     0.040 C 
HETATM    3  C6  UNL     1      15.752  -4.195  10.780  1.00  0.00     0.123 C 
HETATM    4  C7  UNL     1      15.765  -4.945  12.099  1.00  0.00     0.024 C 
HETATM    5  C8  UNL     1      15.271  -6.319  11.884  1.00  0.00     0.008 C 
HETATM    6  C9  UNL     1      14.656  -6.994  13.055  1.00  0.00     0.001 C 
HETATM    7  C10 UNL     1      13.767  -6.112  13.881  1.00  0.00     0.009 C 
HETATM    8  C11 UNL     1      14.507  -4.834  14.177  1.00  0.00    -0.040 C 
HETATM    9  C12 UNL     1      15.776  -5.403  14.881  1.00  0.00     0.015 C 
HETATM   10  C13 UNL     1      13.815  -4.113  15.281  1.00  0.00     0.015 C 
HETATM   11  C14 UNL     1      14.994  -4.046  13.033  1.00  0.00    -0.025 C 
HETATM   12  C15 UNL     1      16.155  -3.242  13.727  1.00  0.00     0.017 C 
ENDROOT
BRANCH   1  13
HETATM   13  C2  UNL     1      12.912  -2.988  11.820  1.00  0.00     0.055 C 
HETATM   14  C1  UNL     1      12.026  -4.206  11.992  1.00  0.00     0.045 C 
HETATM   15  C3  UNL     1      12.641  -2.428  10.457  1.00  0.00     0.045 C 
BRANCH  13  16
HETATM   16  O1  UNL     1      12.241  -2.044  12.666  1.00  0.00    -0.390 OA
ATOM     17  H1  UNL     1      12.685  -2.195  13.492  1.00  0.00     0.210 HD
ENDBRANCH  13  16
ENDBRANCH   1  13
BRANCH   3  18
HETATM   18  O2  UNL     1      17.022  -4.018  10.236  1.00  0.00    -0.395 OA
ATOM     19  H2  UNL     1      17.468  -4.857  10.218  1.00  0.00     0.210 HD
ENDBRANCH   3  18
TORSDOF 3
ENDMDL
MODEL 5
REMARK VINA RESULT: -6.116616543      1.458      1.839
REMARK  3 active torsions:
REMARK  status: ('A' for Active; 'I' for Inactive)
REMARK    1  A    between atoms: C2_2  and  O1_4 
REMARK    2  A    between atoms: C2_2  and  C4_6 
REMARK    3  A    between atoms: C6_8  and  O2_9 
ROOT
HETATM    1  C4  UNL     1      14.886  -3.710  13.224  1.00  0.00     0.031 C 
HETATM    2  C5  UNL     1      16.207  -3.739  14.040  1.00  0.00     0.040 C 
HETATM    3  C6  UNL     1      16.384  -5.131  14.524  1.00  0.00     0.123 C 
HETATM    4  C7  UNL     1      14.994  -5.736  14.591  1.00  0.00     0.024 C 
HETATM    5  C8  UNL     1      15.021  -7.088  14.000  1.00  0.00     0.008 C 
HETATM    6  C9  UNL     1      13.744  -7.591  13.435  1.00  0.00     0.001 C 
HETATM    7  C10 UNL     1      12.964  -6.567  12.663  1.00  0.00     0.009 C 
HETATM    8  C11 UNL     1      12.861  -5.318  13.499  1.00  0.00    -0.040 C 
HETATM    9  C12 UNL     1      12.186  -5.895  14.781  1.00  0.00     0.015 C 
HETATM   10  C13 UNL     1      11.800  -4.439  12.936  1.00  0.00     0.015 C 
HETATM   11  C14 UNL     1      14.115  -4.692  13.947  1.00  0.00    -0.025 C 
HETATM   12  C15 UNL     1      13.595  -3.899  15.202  1.00  0.00     0.017 C 
ENDROOT
BRANCH   1  13
HETATM   13  C2  UNL     1      15.296  -3.630  11.848  1.00  0.00     0.055 C 
HETATM   14  C1  UNL     1      14.446  -2.839  10.873  1.00  0.00     0.045 C 
HETATM   15  C3  UNL     1      15.759  -4.865  11.136  1.00  0.00     0.045 C 
BRANCH  13  16
HETATM   16  O1  UNL     1      16.491  -2.838  11.870  1.00  0.00    -0.390 OA
ATOM     17  H1  UNL     1      17.001  -3.301  12.524  1.00  0.00     0.210 HD
ENDBRANCH  13  16
ENDBRANCH   1  13
BRANCH   3  18
HETATM   18  O2  UNL     1      17.029  -5.099  15.759  1.00  0.00    -0.395 OA
ATOM     19  H2  UNL     1      17.844  -5.582  15.691  1.00  0.00     0.210 HD
ENDBRANCH   3  18
TORSDOF 3
ENDMDL
