MODEL 1
REMARK VINA RESULT: -6.843703892      0.000      0.000
REMARK  4 active torsions:
REMARK  status: ('A' for Active; 'I' for Inactive)
REMARK    1  A    between atoms: C5_6  and  C6_7 
REMARK    2  A    between atoms: C6_7  and  C9_10 
REMARK    3  A    between atoms: C9_10  and  O1_11 
REMARK    4  A    between atoms: C11_14  and  C12_15 
ROOT
HETATM    1  C1  UNL     1      13.866  -2.296  10.272  1.00  0.00     0.011 C 
HETATM    2  C2  UNL     1      15.282  -2.463  10.774  1.00  0.00     0.004 C 
HETATM    3  C3  UNL     1      16.215  -2.390   9.543  1.00  0.00     0.102 C 
HETATM    4  C4  UNL     1      16.260  -0.985   9.190  1.00  0.00     0.064 C 
HETATM    5  N1  UNL     1      16.270   0.131   8.909  1.00  0.00    -0.197 NA
HETATM    6  C5  UNL     1      17.433  -3.096   9.812  1.00  0.00     0.014 C 
HETATM    7  C10 UNL     1      17.085  -4.010  10.996  1.00  0.00     0.012 C 
HETATM    8  C11 UNL     1      15.614  -3.831  11.246  1.00  0.00    -0.002 C 
ENDROOT
BRANCH   6   9
HETATM    9  C6  UNL     1      18.736  -2.509  10.091  1.00  0.00    -0.021 C 
HETATM   10  C7  UNL     1      19.562  -3.646  10.754  1.00  0.00     0.017 C 
HETATM   11  C8  UNL     1      18.799  -1.342  11.004  1.00  0.00     0.017 C 
BRANCH   9  12
HETATM   12  C9  UNL     1      19.624  -2.182   8.900  1.00  0.00     0.173 C 
BRANCH  12  13
HETATM   13  O1  UNL     1      19.453  -0.895   8.437  1.00  0.00    -0.400 OA
ATOM     14  H1  UNL     1      20.048  -0.671   7.731  1.00  0.00     0.209 HD
ENDBRANCH  12  13
ENDBRANCH   9  12
ENDBRANCH   6   9
BRANCH   8  15
HETATM   15  C12 UNL     1      15.215  -4.123  12.659  1.00  0.00    -0.047 C 
HETATM   16  C13 UNL     1      15.420  -2.910  13.565  1.00  0.00     0.015 C 
HETATM   17  C14 UNL     1      13.773  -4.525  12.811  1.00  0.00     0.015 C 
HETATM   18  C15 UNL     1      16.059  -5.229  13.253  1.00  0.00     0.015 C 
ENDBRANCH   8  15
TORSDOF 4
ENDMDL
MODEL 2
REMARK VINA RESULT: -6.823744278      0.030      1.020
REMARK  4 active torsions:
REMARK  status: ('A' for Active; 'I' for Inactive)
REMARK    1  A    between atoms: C5_6  and  C6_7 
REMARK    2  A    between atoms: C6_7  and  C9_10 
REMARK    3  A    between atoms: C9_10  and  O1_11 
REMARK    4  A    between atoms: C11_14  and  C12_15 
ROOT
HETATM    1  C1  UNL     1      13.877  -2.315  10.287  1.00  0.00     0.011 C 
HETATM    2  C2  UNL     1      15.295  -2.468  10.785  1.00  0.00     0.004 C 
HETATM    3  C3  UNL     1      16.223  -2.399   9.550  1.00  0.00     0.102 C 
HETATM    4  C4  UNL     1      16.257  -0.997   9.185  1.00  0.00     0.064 C 
HETATM    5  N1  UNL     1      16.258   0.116   8.894  1.00  0.00    -0.197 NA
HETATM    6  C5  UNL     1      17.446  -3.094   9.820  1.00  0.00     0.014 C 
HETATM    7  C10 UNL     1      17.110  -4.000  11.014  1.00  0.00     0.012 C 
HETATM    8  C11 UNL     1      15.639  -3.829  11.268  1.00  0.00    -0.002 C 
ENDROOT
BRANCH   6   9
HETATM    9  C6  UNL     1      18.746  -2.496  10.089  1.00  0.00    -0.021 C 
HETATM   10  C7  UNL     1      19.584  -3.621  10.757  1.00  0.00     0.017 C 
HETATM   11  C8  UNL     1      18.805  -1.322  10.992  1.00  0.00     0.017 C 
BRANCH   9  12
HETATM   12  C9  UNL     1      19.627  -2.172   8.891  1.00  0.00     0.173 C 
BRANCH  12  13
HETATM   13  O1  UNL     1      19.433  -0.895   8.410  1.00  0.00    -0.400 OA
ATOM     14  H1  UNL     1      18.517  -0.685   8.270  1.00  0.00     0.209 HD
ENDBRANCH  12  13
ENDBRANCH   9  12
ENDBRANCH   6   9
BRANCH   8  15
HETATM   15  C12 UNL     1      15.247  -4.112  12.685  1.00  0.00    -0.047 C 
HETATM   16  C13 UNL     1      16.069  -5.254  13.280  1.00  0.00     0.015 C 
HETATM   17  C14 UNL     1      15.426  -2.937  13.609  1.00  0.00     0.015 C 
HETATM   18  C15 UNL     1      13.802  -4.548  12.782  1.00  0.00     0.015 C 
ENDBRANCH   8  15
TORSDOF 4
ENDMDL
MODEL 3
REMARK VINA RESULT: -6.786967803      0.044      1.018
REMARK  4 active torsions:
REMARK  status: ('A' for Active; 'I' for Inactive)
REMARK    1  A    between atoms: C5_6  and  C6_7 
REMARK    2  A    between atoms: C6_7  and  C9_10 
REMARK    3  A    between atoms: C9_10  and  O1_11 
REMARK    4  A    between atoms: C11_14  and  C12_15 
ROOT
HETATM    1  C1  UNL     1      13.905  -2.302  10.255  1.00  0.00     0.011 C 
HETATM    2  C2  UNL     1      15.320  -2.464  10.761  1.00  0.00     0.004 C 
HETATM    3  C3  UNL     1      16.256  -2.386   9.532  1.00  0.00     0.102 C 
HETATM    4  C4  UNL     1      16.295  -0.981   9.181  1.00  0.00     0.064 C 
HETATM    5  N1  UNL     1      16.302   0.135   8.900  1.00  0.00    -0.197 NA
HETATM    6  C5  UNL     1      17.476  -3.087   9.804  1.00  0.00     0.014 C 
HETATM    7  C10 UNL     1      17.129  -4.003  10.987  1.00  0.00     0.012 C 
HETATM    8  C11 UNL     1      15.657  -3.831  11.233  1.00  0.00    -0.002 C 
ENDROOT
BRANCH   6   9
HETATM    9  C6  UNL     1      18.775  -2.495  10.087  1.00  0.00    -0.021 C 
HETATM   10  C7  UNL     1      19.605  -3.629  10.749  1.00  0.00     0.017 C 
HETATM   11  C8  UNL     1      18.831  -1.330  11.002  1.00  0.00     0.017 C 
BRANCH   9  12
HETATM   12  C9  UNL     1      19.664  -2.162   8.898  1.00  0.00     0.173 C 
BRANCH  12  13
HETATM   13  O1  UNL     1      19.491  -0.872   8.441  1.00  0.00    -0.400 OA
ATOM     14  H1  UNL     1      19.056  -0.832   7.597  1.00  0.00     0.209 HD
ENDBRANCH  12  13
ENDBRANCH   9  12
ENDBRANCH   6   9
BRANCH   8  15
HETATM   15  C12 UNL     1      15.255  -4.126  12.645  1.00  0.00    -0.047 C 
HETATM   16  C13 UNL     1      13.780  -4.508  12.743  1.00  0.00     0.015 C 
HETATM   17  C14 UNL     1      16.028  -5.255  13.271  1.00  0.00     0.015 C 
HETATM   18  C15 UNL     1      15.427  -2.913  13.532  1.00  0.00     0.015 C 
ENDBRANCH   8  15
TORSDOF 4
ENDMDL
MODEL 4
REMARK VINA RESULT: -6.634797757      4.060      5.765
REMARK  4 active torsions:
REMARK  status: ('A' for Active; 'I' for Inactive)
REMARK    1  A    between atoms: C5_6  and  C6_7 
REMARK    2  A    between atoms: C6_7  and  C9_10 
REMARK    3  A    between atoms: C9_10  and  O1_11 
REMARK    4  A    between atoms: C11_14  and  C12_15 
ROOT
HETATM    1  C1  UNL     1      10.782  -2.943  13.041  1.00  0.00     0.011 C 
HETATM    2  C2  UNL     1      12.157  -3.435  12.653  1.00  0.00     0.004 C 
HETATM    3  C3  UNL     1      12.859  -3.901  13.949  1.00  0.00     0.102 C 
HETATM    4  C4  UNL     1      12.242  -5.171  14.273  1.00  0.00     0.064 C 
HETATM    5  N1  UNL     1      11.729  -6.169  14.530  1.00  0.00    -0.197 NA
HETATM    6  C5  UNL     1      14.280  -3.820  13.789  1.00  0.00     0.014 C 
HETATM    7  C10 UNL     1      14.473  -2.865  12.602  1.00  0.00     0.012 C 
HETATM    8  C11 UNL     1      13.102  -2.369  12.237  1.00  0.00    -0.002 C 
ENDROOT
BRANCH   6   9
HETATM    9  C6  UNL     1      15.199  -4.933  13.597  1.00  0.00    -0.021 C 
HETATM   10  C7  UNL     1      16.505  -4.295  13.048  1.00  0.00     0.017 C 
HETATM   11  C8  UNL     1      14.814  -6.006  12.650  1.00  0.00     0.017 C 
BRANCH   9  12
HETATM   12  C9  UNL     1      15.733  -5.621  14.845  1.00  0.00     0.173 C 
BRANCH  12  13
HETATM   13  O1  UNL     1      16.845  -4.997  15.370  1.00  0.00    -0.400 OA
ATOM     14  H1  UNL     1      17.649  -5.482  15.219  1.00  0.00     0.209 HD
ENDBRANCH  12  13
ENDBRANCH   9  12
ENDBRANCH   6   9
BRANCH   8  15
HETATM   15  C12 UNL     1      12.988  -1.950  10.804  1.00  0.00    -0.047 C 
HETATM   16  C13 UNL     1      14.327  -2.059  10.076  1.00  0.00     0.015 C 
HETATM   17  C14 UNL     1      12.007  -2.769  10.010  1.00  0.00     0.015 C 
HETATM   18  C15 UNL     1      12.570  -0.501  10.684  1.00  0.00     0.015 C 
ENDBRANCH   8  15
TORSDOF 4
ENDMDL
MODEL 5
REMARK VINA RESULT: -6.509522985      0.713      1.278
REMARK  4 active torsions:
REMARK  status: ('A' for Active; 'I' for Inactive)
REMARK    1  A    between atoms: C5_6  and  C6_7 
REMARK    2  A    between atoms: C6_7  and  C9_10 
REMARK    3  A    between atoms: C9_10  and  O1_11 
REMARK    4  A    between atoms: C11_14  and  C12_15 
ROOT
HETATM    1  C1  UNL     1      13.558  -2.105  10.268  1.00  0.00     0.011 C 
HETATM    2  C2  UNL     1      14.991  -2.310  10.703  1.00  0.00     0.004 C 
HETATM    3  C3  UNL     1      15.875  -2.182   9.440  1.00  0.00     0.102 C 
HETATM    4  C4  UNL     1      15.919  -0.762   9.157  1.00  0.00     0.064 C 
HETATM    5  N1  UNL     1      15.930   0.367   8.932  1.00  0.00    -0.197 NA
HETATM    6  C5  UNL     1      17.094  -2.911   9.623  1.00  0.00     0.014 C 
HETATM    7  C10 UNL     1      16.786  -3.881  10.773  1.00  0.00     0.012 C 
HETATM    8  C11 UNL     1      15.328  -3.702  11.092  1.00  0.00    -0.002 C 
ENDROOT
BRANCH   6   9
HETATM    9  C6  UNL     1      18.414  -2.349   9.878  1.00  0.00    -0.021 C 
HETATM   10  C7  UNL     1      18.770  -1.546   8.597  1.00  0.00     0.017 C 
HETATM   11  C8  UNL     1      19.537  -3.284  10.127  1.00  0.00     0.017 C 
BRANCH   9  12
HETATM   12  C9  UNL     1      18.514  -1.253  10.927  1.00  0.00     0.173 C 
BRANCH  12  13
HETATM   13  O1  UNL     1      18.772  -0.011  10.386  1.00  0.00    -0.400 OA
ATOM     14  H1  UNL     1      18.014   0.562  10.393  1.00  0.00     0.209 HD
ENDBRANCH  12  13
ENDBRANCH   9  12
ENDBRANCH   6   9
BRANCH   8  15
HETATM   15  C12 UNL     1      14.983  -4.062  12.504  1.00  0.00    -0.047 C 
HETATM   16  C13 UNL     1      15.331  -2.935  13.474  1.00  0.00     0.015 C 
HETATM   17  C14 UNL     1      13.525  -4.365  12.713  1.00  0.00     0.015 C 
HETATM   18  C15 UNL     1      15.768  -5.267  12.973  1.00  0.00     0.015 C 
ENDBRANCH   8  15
TORSDOF 4
ENDMDL
