MODEL 1
REMARK VINA RESULT: -6.625607163      0.000      0.000
REMARK  16 active torsions:
REMARK  status: ('A' for Active; 'I' for Inactive)
REMARK    1  A    between atoms: N1_2  and  C2_3 
REMARK    2  A    between atoms: N1_2  and  C15_26 
REMARK    3  A    between atoms: C2_3  and  C3_4 
REMARK    4  A    between atoms: C3_4  and  C4_5 
REMARK    5  A    between atoms: C4_5  and  C5_6 
REMARK    6  A    between atoms: C5_6  and  C6_7 
REMARK    7  A    between atoms: C6_7  and  C7_8 
REMARK    8  A    between atoms: C7_8  and  C8_9 
REMARK    9  A    between atoms: C8_9  and  C9_10 
REMARK   10  A    between atoms: C9_10  and  C10_11 
REMARK   11  A    between atoms: C10_11  and  C11_12 
REMARK   12  A    between atoms: C11_12  and  N2_13 
REMARK   13  A    between atoms: N2_13  and  C12_15 
REMARK   14  A    between atoms: C15_26  and  C16_27 
REMARK   15  A    between atoms: C16_27  and  C17_28 
REMARK   16  A    between atoms: C17_28  and  N6_29 
ROOT
HETATM    1  C8  UNL     1      -8.491  30.781  -7.593  1.00  0.00     0.000 C 
ENDROOT
BRANCH   1   2
HETATM    2  C7  UNL     1      -7.016  30.902  -7.138  1.00  0.00     0.000 C 
BRANCH   2   3
HETATM    3  C6  UNL     1      -6.951  30.785  -5.662  1.00  0.00     0.000 C 
BRANCH   3   4
HETATM    4  C5  UNL     1      -5.828  31.468  -5.003  1.00  0.00     0.000 C 
BRANCH   4   5
HETATM    5  C4  UNL     1      -4.990  32.375  -5.787  1.00  0.00     0.002 C 
BRANCH   5   6
HETATM    6  C3  UNL     1      -3.916  33.171  -5.150  1.00  0.00     0.020 C 
BRANCH   6   7
HETATM    7  C2  UNL     1      -4.406  33.755  -3.799  1.00  0.00     0.121 C 
BRANCH   7   8
HETATM    8  N1  UNL     1      -3.662  33.281  -2.719  1.00  0.00    -0.398 N 
HETATM    9  C1  UNL     1      -2.289  33.441  -2.783  1.00  0.00     0.148 C 
BRANCH   8  10
HETATM   10  C15 UNL     1      -4.331  32.552  -1.763  1.00  0.00     0.059 C 
BRANCH  10  11
HETATM   11  C16 UNL     1      -4.021  31.071  -1.713  1.00  0.00     0.064 C 
BRANCH  11  12
HETATM   12  C17 UNL     1      -5.035  30.299  -0.916  1.00  0.00     0.127 C 
BRANCH  12  13
HETATM   13  N6  UNL     1      -6.376  30.783  -1.017  1.00  0.00    -0.367 N 
HETATM   14  C18 UNL     1      -7.326  30.303  -1.718  1.00  0.00     0.196 C 
HETATM   15  N7  UNL     1      -8.622  30.862  -1.746  1.00  0.00    -0.067 NA
HETATM   16  N8  UNL     1      -7.094  29.149  -2.515  1.00  0.00    -0.067 NA
ATOM     17  H6  UNL     1      -6.598  31.611  -0.464  1.00  0.00     0.161 HD
ENDBRANCH  12  13
ENDBRANCH  11  12
ENDBRANCH  10  11
ENDBRANCH   8  10
ENDBRANCH   7   8
ENDBRANCH   6   7
ENDBRANCH   5   6
ENDBRANCH   4   5
ENDBRANCH   3   4
ENDBRANCH   2   3
ENDBRANCH   1   2
BRANCH   1  18
HETATM   18  C9  UNL     1      -9.358  31.376  -6.548  1.00  0.00     0.002 C 
BRANCH  18  19
HETATM   19  C10 UNL     1     -10.710  30.670  -6.467  1.00  0.00     0.020 C 
BRANCH  19  20
HETATM   20  C11 UNL     1     -11.512  31.142  -5.264  1.00  0.00     0.138 C 
BRANCH  20  21
HETATM   21  N2  UNL     1     -12.057  30.035  -4.570  1.00  0.00    -0.225 N 
ATOM     22  H2  UNL     1     -13.051  30.104  -4.354  1.00  0.00     0.177 HD
BRANCH  21  23
HETATM   23  C12 UNL     1     -11.490  28.964  -4.174  1.00  0.00     0.695 A 
HETATM   24  N3  UNL     1     -10.370  29.020  -3.404  1.00  0.00    -0.129 N 
HETATM   25  N4  UNL     1      -9.764  27.929  -2.978  1.00  0.00    -0.247 N 
ATOM     26  H3  UNL     1      -9.989  29.931  -3.149  1.00  0.00     0.205 HD
HETATM   27  C13 UNL     1     -10.208  26.697  -3.274  1.00  0.00     0.329 A 
ATOM     28  H4  UNL     1      -8.927  28.026  -2.404  1.00  0.00     0.191 HD
HETATM   29  O1  UNL     1      -9.620  25.652  -2.862  1.00  0.00    -0.261 OA
HETATM   30  C14 UNL     1     -11.340  26.613  -4.053  1.00  0.00     0.329 A 
HETATM   31  O2  UNL     1     -11.767  25.467  -4.338  1.00  0.00    -0.261 OA
HETATM   32  N5  UNL     1     -11.956  27.753  -4.485  1.00  0.00    -0.150 N 
ATOM     33  H5  UNL     1     -12.795  27.676  -5.060  1.00  0.00     0.188 HD
ENDBRANCH  21  23
ENDBRANCH  20  21
ENDBRANCH  19  20
ENDBRANCH  18  19
ENDBRANCH   1  18
TORSDOF 16
ENDMDL
MODEL 2
REMARK VINA RESULT: -6.586941698      2.478      6.360
REMARK  16 active torsions:
REMARK  status: ('A' for Active; 'I' for Inactive)
REMARK    1  A    between atoms: N1_2  and  C2_3 
REMARK    2  A    between atoms: N1_2  and  C15_26 
REMARK    3  A    between atoms: C2_3  and  C3_4 
REMARK    4  A    between atoms: C3_4  and  C4_5 
REMARK    5  A    between atoms: C4_5  and  C5_6 
REMARK    6  A    between atoms: C5_6  and  C6_7 
REMARK    7  A    between atoms: C6_7  and  C7_8 
REMARK    8  A    between atoms: C7_8  and  C8_9 
REMARK    9  A    between atoms: C8_9  and  C9_10 
REMARK   10  A    between atoms: C9_10  and  C10_11 
REMARK   11  A    between atoms: C10_11  and  C11_12 
REMARK   12  A    between atoms: C11_12  and  N2_13 
REMARK   13  A    between atoms: N2_13  and  C12_15 
REMARK   14  A    between atoms: C15_26  and  C16_27 
REMARK   15  A    between atoms: C16_27  and  C17_28 
REMARK   16  A    between atoms: C17_28  and  N6_29 
ROOT
HETATM    1  C8  UNL     1      -4.527  32.479  -3.201  1.00  0.00     0.000 C 
ENDROOT
BRANCH   1   2
HETATM    2  C7  UNL     1      -3.947  33.377  -4.321  1.00  0.00     0.000 C 
BRANCH   2   3
HETATM    3  C6  UNL     1      -4.494  32.940  -5.627  1.00  0.00     0.000 C 
BRANCH   3   4
HETATM    4  C5  UNL     1      -5.504  31.872  -5.586  1.00  0.00     0.000 C 
BRANCH   4   5
HETATM    5  C4  UNL     1      -6.083  31.393  -6.841  1.00  0.00     0.002 C 
BRANCH   5   6
HETATM    6  C3  UNL     1      -7.323  30.585  -6.855  1.00  0.00     0.020 C 
BRANCH   6   7
HETATM    7  C2  UNL     1      -7.616  30.022  -5.439  1.00  0.00     0.121 C 
BRANCH   7   8
HETATM    8  N1  UNL     1      -8.947  30.198  -5.067  1.00  0.00    -0.398 N 
HETATM    9  C1  UNL     1      -9.582  31.339  -5.525  1.00  0.00     0.148 C 
BRANCH   8  10
HETATM   10  C15 UNL     1      -9.468  29.317  -4.148  1.00  0.00     0.059 C 
BRANCH  10  11
HETATM   11  C16 UNL     1     -10.810  29.686  -3.553  1.00  0.00     0.064 C 
BRANCH  11  12
HETATM   12  C17 UNL     1     -11.725  28.501  -3.421  1.00  0.00     0.127 C 
BRANCH  12  13
HETATM   13  N6  UNL     1     -11.082  27.229  -3.526  1.00  0.00    -0.367 N 
HETATM   14  C18 UNL     1     -11.576  26.141  -3.970  1.00  0.00     0.196 C 
HETATM   15  N7  UNL     1     -10.849  24.933  -4.031  1.00  0.00    -0.067 NA
HETATM   16  N8  UNL     1     -12.919  26.120  -4.434  1.00  0.00    -0.067 NA
ATOM     17  H6  UNL     1     -10.114  27.187  -3.208  1.00  0.00     0.161 HD
ENDBRANCH  12  13
ENDBRANCH  11  12
ENDBRANCH  10  11
ENDBRANCH   8  10
ENDBRANCH   7   8
ENDBRANCH   6   7
ENDBRANCH   5   6
ENDBRANCH   4   5
ENDBRANCH   3   4
ENDBRANCH   2   3
ENDBRANCH   1   2
BRANCH   1  18
HETATM   18  C9  UNL     1      -3.406  31.979  -2.368  1.00  0.00     0.002 C 
BRANCH  18  19
HETATM   19  C10 UNL     1      -3.892  31.486  -1.006  1.00  0.00     0.020 C 
BRANCH  19  20
HETATM   20  C11 UNL     1      -4.067  29.975  -0.993  1.00  0.00     0.138 C 
BRANCH  20  21
HETATM   21  N2  UNL     1      -5.420  29.634  -1.237  1.00  0.00    -0.225 N 
ATOM     22  H2  UNL     1      -5.561  28.783  -1.781  1.00  0.00     0.177 HD
BRANCH  21  23
HETATM   23  C12 UNL     1      -6.487  30.233  -0.880  1.00  0.00     0.695 A 
HETATM   24  N3  UNL     1      -6.917  30.165   0.409  1.00  0.00    -0.129 N 
HETATM   25  N4  UNL     1      -8.015  30.776   0.808  1.00  0.00    -0.247 N 
ATOM     26  H3  UNL     1      -6.375  29.627   1.085  1.00  0.00     0.205 HD
HETATM   27  C13 UNL     1      -8.778  31.503  -0.024  1.00  0.00     0.329 A 
ATOM     28  H4  UNL     1      -8.295  30.694   1.786  1.00  0.00     0.191 HD
HETATM   29  O1  UNL     1      -9.833  32.087   0.365  1.00  0.00    -0.261 OA
HETATM   30  C14 UNL     1      -8.364  31.587  -1.335  1.00  0.00     0.329 A 
HETATM   31  O2  UNL     1      -9.068  32.262  -2.126  1.00  0.00    -0.261 OA
HETATM   32  N5  UNL     1      -7.224  30.948  -1.732  1.00  0.00    -0.150 N 
ATOM     33  H5  UNL     1      -6.928  31.020  -2.705  1.00  0.00     0.188 HD
ENDBRANCH  21  23
ENDBRANCH  20  21
ENDBRANCH  19  20
ENDBRANCH  18  19
ENDBRANCH   1  18
TORSDOF 16
ENDMDL
MODEL 3
REMARK VINA RESULT: -6.467358272      0.998      1.262
REMARK  16 active torsions:
REMARK  status: ('A' for Active; 'I' for Inactive)
REMARK    1  A    between atoms: N1_2  and  C2_3 
REMARK    2  A    between atoms: N1_2  and  C15_26 
REMARK    3  A    between atoms: C2_3  and  C3_4 
REMARK    4  A    between atoms: C3_4  and  C4_5 
REMARK    5  A    between atoms: C4_5  and  C5_6 
REMARK    6  A    between atoms: C5_6  and  C6_7 
REMARK    7  A    between atoms: C6_7  and  C7_8 
REMARK    8  A    between atoms: C7_8  and  C8_9 
REMARK    9  A    between atoms: C8_9  and  C9_10 
REMARK   10  A    between atoms: C9_10  and  C10_11 
REMARK   11  A    between atoms: C10_11  and  C11_12 
REMARK   12  A    between atoms: C11_12  and  N2_13 
REMARK   13  A    between atoms: N2_13  and  C12_15 
REMARK   14  A    between atoms: C15_26  and  C16_27 
REMARK   15  A    between atoms: C16_27  and  C17_28 
REMARK   16  A    between atoms: C17_28  and  N6_29 
ROOT
HETATM    1  C8  UNL     1      -8.170  30.380  -7.545  1.00  0.00     0.000 C 
ENDROOT
BRANCH   1   2
HETATM    2  C7  UNL     1      -6.818  31.131  -7.626  1.00  0.00     0.000 C 
BRANCH   2   3
HETATM    3  C6  UNL     1      -6.669  31.994  -6.431  1.00  0.00     0.000 C 
BRANCH   3   4
HETATM    4  C5  UNL     1      -5.393  31.891  -5.708  1.00  0.00     0.000 C 
BRANCH   4   5
HETATM    5  C4  UNL     1      -4.650  33.113  -5.400  1.00  0.00     0.002 C 
BRANCH   5   6
HETATM    6  C3  UNL     1      -3.609  33.134  -4.347  1.00  0.00     0.020 C 
BRANCH   6   7
HETATM    7  C2  UNL     1      -4.265  33.163  -2.941  1.00  0.00     0.121 C 
BRANCH   7   8
HETATM    8  N1  UNL     1      -3.731  32.196  -2.090  1.00  0.00    -0.398 N 
HETATM    9  C1  UNL     1      -2.353  32.151  -1.977  1.00  0.00     0.148 C 
BRANCH   8  10
HETATM   10  C15 UNL     1      -4.600  31.267  -1.565  1.00  0.00     0.059 C 
BRANCH  10  11
HETATM   11  C16 UNL     1      -5.918  31.099  -2.290  1.00  0.00     0.064 C 
BRANCH  11  12
HETATM   12  C17 UNL     1      -6.888  30.241  -1.527  1.00  0.00     0.127 C 
BRANCH  12  13
HETATM   13  N6  UNL     1      -7.642  30.929  -0.526  1.00  0.00    -0.367 N 
HETATM   14  C18 UNL     1      -8.826  31.391  -0.625  1.00  0.00     0.196 C 
HETATM   15  N7  UNL     1      -9.483  32.058   0.431  1.00  0.00    -0.067 NA
HETATM   16  N8  UNL     1      -9.538  31.239  -1.846  1.00  0.00    -0.067 NA
ATOM     17  H6  UNL     1      -7.179  31.065   0.372  1.00  0.00     0.161 HD
ENDBRANCH  12  13
ENDBRANCH  11  12
ENDBRANCH  10  11
ENDBRANCH   8  10
ENDBRANCH   7   8
ENDBRANCH   6   7
ENDBRANCH   5   6
ENDBRANCH   4   5
ENDBRANCH   3   4
ENDBRANCH   2   3
ENDBRANCH   1   2
BRANCH   1  18
HETATM   18  C9  UNL     1      -8.998  31.011  -6.489  1.00  0.00     0.002 C 
BRANCH  18  19
HETATM   19  C10 UNL     1     -10.472  30.635  -6.629  1.00  0.00     0.020 C 
BRANCH  19  20
HETATM   20  C11 UNL     1     -11.271  31.057  -5.405  1.00  0.00     0.138 C 
BRANCH  20  21
HETATM   21  N2  UNL     1     -11.870  29.928  -4.795  1.00  0.00    -0.225 N 
ATOM     22  H2  UNL     1     -12.887  29.961  -4.724  1.00  0.00     0.177 HD
BRANCH  21  23
HETATM   23  C12 UNL     1     -11.328  28.875  -4.322  1.00  0.00     0.695 A 
HETATM   24  N3  UNL     1     -10.256  28.967  -3.488  1.00  0.00    -0.129 N 
HETATM   25  N4  UNL     1      -9.677  27.896  -2.982  1.00  0.00    -0.247 N 
ATOM     26  H3  UNL     1      -9.892  29.889  -3.249  1.00  0.00     0.205 HD
HETATM   27  C13 UNL     1     -10.102  26.651  -3.252  1.00  0.00     0.329 A 
ATOM     28  H4  UNL     1      -8.877  28.018  -2.362  1.00  0.00     0.191 HD
HETATM   29  O1  UNL     1      -9.540  25.626  -2.763  1.00  0.00    -0.261 OA
HETATM   30  C14 UNL     1     -11.185  26.532  -4.094  1.00  0.00     0.329 A 
HETATM   31  O2  UNL     1     -11.594  25.374  -4.358  1.00  0.00    -0.261 OA
HETATM   32  N5  UNL     1     -11.774  27.651  -4.610  1.00  0.00    -0.150 N 
ATOM     33  H5  UNL     1     -12.576  27.548  -5.232  1.00  0.00     0.188 HD
ENDBRANCH  21  23
ENDBRANCH  20  21
ENDBRANCH  19  20
ENDBRANCH  18  19
ENDBRANCH   1  18
TORSDOF 16
ENDMDL
MODEL 4
REMARK VINA RESULT: -6.356277328      1.768      2.589
REMARK  16 active torsions:
REMARK  status: ('A' for Active; 'I' for Inactive)
REMARK    1  A    between atoms: N1_2  and  C2_3 
REMARK    2  A    between atoms: N1_2  and  C15_26 
REMARK    3  A    between atoms: C2_3  and  C3_4 
REMARK    4  A    between atoms: C3_4  and  C4_5 
REMARK    5  A    between atoms: C4_5  and  C5_6 
REMARK    6  A    between atoms: C5_6  and  C6_7 
REMARK    7  A    between atoms: C6_7  and  C7_8 
REMARK    8  A    between atoms: C7_8  and  C8_9 
REMARK    9  A    between atoms: C8_9  and  C9_10 
REMARK   10  A    between atoms: C9_10  and  C10_11 
REMARK   11  A    between atoms: C10_11  and  C11_12 
REMARK   12  A    between atoms: C11_12  and  N2_13 
REMARK   13  A    between atoms: N2_13  and  C12_15 
REMARK   14  A    between atoms: C15_26  and  C16_27 
REMARK   15  A    between atoms: C16_27  and  C17_28 
REMARK   16  A    between atoms: C17_28  and  N6_29 
ROOT
HETATM    1  C8  UNL     1      -7.523  30.074  -5.759  1.00  0.00     0.000 C 
ENDROOT
BRANCH   1   2
HETATM    2  C7  UNL     1      -7.233  30.548  -7.204  1.00  0.00     0.000 C 
BRANCH   2   3
HETATM    3  C6  UNL     1      -6.081  31.482  -7.188  1.00  0.00     0.000 C 
BRANCH   3   4
HETATM    4  C5  UNL     1      -6.211  32.660  -6.318  1.00  0.00     0.000 C 
BRANCH   4   5
HETATM    5  C4  UNL     1      -5.006  33.396  -5.935  1.00  0.00     0.002 C 
BRANCH   5   6
HETATM    6  C3  UNL     1      -4.111  32.900  -4.865  1.00  0.00     0.020 C 
BRANCH   6   7
HETATM    7  C2  UNL     1      -4.940  32.238  -3.732  1.00  0.00     0.121 C 
BRANCH   7   8
HETATM    8  N1  UNL     1      -4.162  31.941  -2.614  1.00  0.00    -0.398 N 
HETATM    9  C1  UNL     1      -2.989  32.658  -2.456  1.00  0.00     0.148 C 
BRANCH   8  10
HETATM   10  C15 UNL     1      -4.537  30.858  -1.854  1.00  0.00     0.059 C 
BRANCH  10  11
HETATM   11  C16 UNL     1      -5.978  30.414  -1.986  1.00  0.00     0.064 C 
BRANCH  11  12
HETATM   12  C17 UNL     1      -6.104  28.932  -2.209  1.00  0.00     0.127 C 
BRANCH  12  13
HETATM   13  N6  UNL     1      -7.411  28.488  -2.579  1.00  0.00    -0.367 N 
HETATM   14  C18 UNL     1      -7.741  27.356  -3.061  1.00  0.00     0.196 C 
HETATM   15  N7  UNL     1      -9.070  27.017  -3.394  1.00  0.00    -0.067 NA
HETATM   16  N8  UNL     1      -6.740  26.370  -3.282  1.00  0.00    -0.067 NA
ATOM     17  H6  UNL     1      -8.169  29.156  -2.440  1.00  0.00     0.161 HD
ENDBRANCH  12  13
ENDBRANCH  11  12
ENDBRANCH  10  11
ENDBRANCH   8  10
ENDBRANCH   7   8
ENDBRANCH   6   7
ENDBRANCH   5   6
ENDBRANCH   4   5
ENDBRANCH   3   4
ENDBRANCH   2   3
ENDBRANCH   1   2
BRANCH   1  18
HETATM   18  C9  UNL     1      -8.939  30.379  -5.437  1.00  0.00     0.002 C 
BRANCH  18  19
HETATM   19  C10 UNL     1      -9.075  31.045  -4.069  1.00  0.00     0.020 C 
BRANCH  19  20
HETATM   20  C11 UNL     1     -10.180  30.400  -3.246  1.00  0.00     0.138 C 
BRANCH  20  21
HETATM   21  N2  UNL     1     -11.374  30.317  -4.003  1.00  0.00    -0.225 N 
ATOM     22  H2  UNL     1     -11.533  31.091  -4.648  1.00  0.00     0.177 HD
BRANCH  21  23
HETATM   23  C12 UNL     1     -12.279  29.419  -3.999  1.00  0.00     0.695 A 
HETATM   24  N3  UNL     1     -13.594  29.766  -3.963  1.00  0.00    -0.129 N 
HETATM   25  N4  UNL     1     -14.551  28.859  -3.960  1.00  0.00    -0.247 N 
ATOM     26  H3  UNL     1     -13.846  30.754  -3.937  1.00  0.00     0.205 HD
HETATM   27  C13 UNL     1     -14.295  27.541  -3.993  1.00  0.00     0.329 A 
ATOM     28  H4  UNL     1     -15.522  29.170  -3.932  1.00  0.00     0.191 HD
HETATM   29  O1  UNL     1     -15.220  26.674  -3.989  1.00  0.00    -0.261 OA
HETATM   30  C14 UNL     1     -12.971  27.165  -4.029  1.00  0.00     0.329 A 
HETATM   31  O2  UNL     1     -12.715  25.935  -4.059  1.00  0.00    -0.261 OA
HETATM   32  N5  UNL     1     -11.991  28.117  -4.032  1.00  0.00    -0.150 N 
ATOM     33  H5  UNL     1     -11.015  27.823  -4.061  1.00  0.00     0.188 HD
ENDBRANCH  21  23
ENDBRANCH  20  21
ENDBRANCH  19  20
ENDBRANCH  18  19
ENDBRANCH   1  18
TORSDOF 16
ENDMDL
MODEL 5
REMARK VINA RESULT: -6.340687356      3.438      5.539
REMARK  16 active torsions:
REMARK  status: ('A' for Active; 'I' for Inactive)
REMARK    1  A    between atoms: N1_2  and  C2_3 
REMARK    2  A    between atoms: N1_2  and  C15_26 
REMARK    3  A    between atoms: C2_3  and  C3_4 
REMARK    4  A    between atoms: C3_4  and  C4_5 
REMARK    5  A    between atoms: C4_5  and  C5_6 
REMARK    6  A    between atoms: C5_6  and  C6_7 
REMARK    7  A    between atoms: C6_7  and  C7_8 
REMARK    8  A    between atoms: C7_8  and  C8_9 
REMARK    9  A    between atoms: C8_9  and  C9_10 
REMARK   10  A    between atoms: C9_10  and  C10_11 
REMARK   11  A    between atoms: C10_11  and  C11_12 
REMARK   12  A    between atoms: C11_12  and  N2_13 
REMARK   13  A    between atoms: N2_13  and  C12_15 
REMARK   14  A    between atoms: C15_26  and  C16_27 
REMARK   15  A    between atoms: C16_27  and  C17_28 
REMARK   16  A    between atoms: C17_28  and  N6_29 
ROOT
HETATM    1  C8  UNL     1      -7.210  30.419  -5.409  1.00  0.00     0.000 C 
ENDROOT
BRANCH   1   2
HETATM    2  C7  UNL     1      -6.680  31.101  -6.694  1.00  0.00     0.000 C 
BRANCH   2   3
HETATM    3  C6  UNL     1      -7.209  30.385  -7.879  1.00  0.00     0.000 C 
BRANCH   3   4
HETATM    4  C5  UNL     1      -6.469  30.569  -9.136  1.00  0.00     0.000 C 
BRANCH   4   5
HETATM    5  C4  UNL     1      -7.064  31.379 -10.198  1.00  0.00     0.002 C 
BRANCH   5   6
HETATM    6  C3  UNL     1      -6.937  32.854 -10.202  1.00  0.00     0.020 C 
BRANCH   6   7
HETATM    7  C2  UNL     1      -8.304  33.514  -9.880  1.00  0.00     0.121 C 
BRANCH   7   8
HETATM    8  N1  UNL     1      -8.417  33.863  -8.535  1.00  0.00    -0.398 N 
HETATM    9  C1  UNL     1      -7.327  34.487  -7.953  1.00  0.00     0.148 C 
BRANCH   8  10
HETATM   10  C15 UNL     1      -9.529  33.417  -7.858  1.00  0.00     0.059 C 
BRANCH  10  11
HETATM   11  C16 UNL     1     -10.403  32.422  -8.591  1.00  0.00     0.064 C 
BRANCH  11  12
HETATM   12  C17 UNL     1     -11.289  31.642  -7.660  1.00  0.00     0.127 C 
BRANCH  12  13
HETATM   13  N6  UNL     1     -12.608  32.170  -7.499  1.00  0.00    -0.367 N 
HETATM   14  C18 UNL     1     -13.134  32.641  -6.438  1.00  0.00     0.196 C 
HETATM   15  N7  UNL     1     -14.453  33.140  -6.388  1.00  0.00    -0.067 NA
HETATM   16  N8  UNL     1     -12.375  32.676  -5.236  1.00  0.00    -0.067 NA
ATOM     17  H6  UNL     1     -13.196  32.170  -8.332  1.00  0.00     0.161 HD
ENDBRANCH  12  13
ENDBRANCH  11  12
ENDBRANCH  10  11
ENDBRANCH   8  10
ENDBRANCH   7   8
ENDBRANCH   6   7
ENDBRANCH   5   6
ENDBRANCH   4   5
ENDBRANCH   3   4
ENDBRANCH   2   3
ENDBRANCH   1   2
BRANCH   1  18
HETATM   18  C9  UNL     1      -8.618  30.834  -5.200  1.00  0.00     0.002 C 
BRANCH  18  19
HETATM   19  C10 UNL     1      -8.904  31.140  -3.731  1.00  0.00     0.020 C 
BRANCH  19  20
HETATM   20  C11 UNL     1      -9.940  30.187  -3.156  1.00  0.00     0.138 C 
BRANCH  20  21
HETATM   21  N2  UNL     1     -11.099  30.170  -3.970  1.00  0.00    -0.225 N 
ATOM     22  H2  UNL     1     -11.161  30.925  -4.653  1.00  0.00     0.177 HD
BRANCH  21  23
HETATM   23  C12 UNL     1     -12.077  29.352  -3.975  1.00  0.00     0.695 A 
HETATM   24  N3  UNL     1     -13.358  29.808  -3.921  1.00  0.00    -0.129 N 
HETATM   25  N4  UNL     1     -14.388  28.986  -3.928  1.00  0.00    -0.247 N 
ATOM     26  H3  UNL     1     -13.525  30.813  -3.873  1.00  0.00     0.205 HD
HETATM   27  C13 UNL     1     -14.245  27.652  -3.989  1.00  0.00     0.329 A 
ATOM     28  H4  UNL     1     -15.329  29.378  -3.885  1.00  0.00     0.191 HD
HETATM   29  O1  UNL     1     -15.240  26.867  -3.995  1.00  0.00    -0.261 OA
HETATM   30  C14 UNL     1     -12.958  27.166  -4.045  1.00  0.00     0.329 A 
HETATM   31  O2  UNL     1     -12.808  25.920  -4.102  1.00  0.00    -0.261 OA
HETATM   32  N5  UNL     1     -11.901  28.031  -4.037  1.00  0.00    -0.150 N 
ATOM     33  H5  UNL     1     -10.954  27.657  -4.080  1.00  0.00     0.188 HD
ENDBRANCH  21  23
ENDBRANCH  20  21
ENDBRANCH  19  20
ENDBRANCH  18  19
ENDBRANCH   1  18
TORSDOF 16
ENDMDL
