MODEL 1
REMARK VINA RESULT: -6.810723495      0.000      0.000
REMARK  17 active torsions:
REMARK  status: ('A' for Active; 'I' for Inactive)
REMARK    1  A    between atoms: N1_2  and  C2_4 
REMARK    2  A    between atoms: N1_2  and  C4_8 
REMARK    3  A    between atoms: C2_4  and  C3_5 
REMARK    4  A    between atoms: C3_5  and  O2_6 
REMARK    5  A    between atoms: C4_8  and  C5_9 
REMARK    6  A    between atoms: C5_9  and  C6_10 
REMARK    7  A    between atoms: C6_10  and  C7_11 
REMARK    8  A    between atoms: C7_11  and  C8_12 
REMARK    9  A    between atoms: C8_12  and  N2_13 
REMARK   10  A    between atoms: N2_13  and  C9_15 
REMARK   11  A    between atoms: C9_15  and  C10_16 
REMARK   12  A    between atoms: C9_15  and  C13_28 
REMARK   13  A    between atoms: C10_16  and  C11_17 
REMARK   14  A    between atoms: C12_22  and  N5_23 
REMARK   15  A    between atoms: C13_28  and  N7_29 
REMARK   16  A    between atoms: C17_33  and  C18_34 
REMARK   17  A    between atoms: C18_34  and  O3_35 
ROOT
HETATM    1  C9  UNL     1      -9.257  30.114  -3.792  1.00  0.00     0.106 C 
ENDROOT
BRANCH   1   2
HETATM    2  N2  UNL     1      -8.681  30.281  -5.063  1.00  0.00    -0.396 N 
ATOM      3  H2  UNL     1      -8.930  29.607  -5.786  1.00  0.00     0.159 HD
BRANCH   2   4
HETATM    4  C8  UNL     1      -7.801  31.294  -5.404  1.00  0.00     0.056 C 
BRANCH   4   5
HETATM    5  C7  UNL     1      -6.328  31.131  -5.289  1.00  0.00     0.044 C 
BRANCH   5   6
HETATM    6  C6  UNL     1      -5.533  32.252  -5.861  1.00  0.00     0.007 C 
BRANCH   6   7
HETATM    7  C5  UNL     1      -4.433  32.653  -4.914  1.00  0.00     0.037 C 
BRANCH   7   8
HETATM    8  C4  UNL     1      -4.763  32.191  -3.525  1.00  0.00     0.311 C 
BRANCH   8   9
HETATM    9  N1  UNL     1      -4.039  32.927  -2.491  1.00  0.00     0.011 N 
HETATM   10  C1  UNL     1      -3.900  34.310  -2.864  1.00  0.00     0.356 C 
HETATM   11  O1  UNL     1      -4.878  32.889  -1.403  1.00  0.00    -0.065 OA
BRANCH   9  12
HETATM   12  C2  UNL     1      -2.794  32.315  -2.156  1.00  0.00     0.337 C 
BRANCH  12  13
HETATM   13  C3  UNL     1      -2.930  30.914  -1.576  1.00  0.00     0.200 C 
BRANCH  13  14
HETATM   14  O2  UNL     1      -2.917  30.968  -0.189  1.00  0.00    -0.399 OA
ATOM     15  H2  UNL     1      -3.506  31.648   0.117  1.00  0.00     0.209 HD
ENDBRANCH  13  14
ENDBRANCH  12  13
ENDBRANCH   9  12
ENDBRANCH   8   9
ENDBRANCH   7   8
ENDBRANCH   6   7
ENDBRANCH   5   6
ENDBRANCH   4   5
ENDBRANCH   2   4
ENDBRANCH   1   2
BRANCH   1  16
HETATM   16  C10 UNL     1      -8.786  30.986  -2.685  1.00  0.00     0.105 C 
BRANCH  16  17
HETATM   17  C11 UNL     1      -7.744  30.338  -1.852  1.00  0.00     0.114 A 
HETATM   18  N3  UNL     1      -7.099  29.206  -2.141  1.00  0.00    -0.274 N 
HETATM   19  N4  UNL     1      -6.229  28.962  -1.197  1.00  0.00    -0.131 N 
ATOM     20  H3  UNL     1      -7.258  28.624  -2.964  1.00  0.00     0.189 HD
HETATM   21  C12 UNL     1      -6.297  29.939  -0.275  1.00  0.00     0.691 A 
ATOM     22  H4  UNL     1      -5.599  28.161  -1.165  1.00  0.00     0.205 HD
HETATM   23  N6  UNL     1      -7.238  30.799  -0.674  1.00  0.00    -0.178 N 
ATOM     24  H6  UNL     1      -7.525  31.648  -0.185  1.00  0.00     0.185 HD
BRANCH  21  25
HETATM   25  N5  UNL     1      -5.621  30.095   0.827  1.00  0.00    -0.233 N 
ATOM     26  H52 UNL     1      -6.065  30.144   1.744  1.00  0.00     0.174 HD
ATOM     27  H51 UNL     1      -4.616  30.185   0.969  1.00  0.00     0.174 HD
ENDBRANCH  21  25
ENDBRANCH  16  17
ENDBRANCH   1  16
BRANCH   1  28
HETATM   28  C13 UNL     1     -10.781  30.237  -3.903  1.00  0.00     0.153 C 
BRANCH  28  29
HETATM   29  N7  UNL     1     -11.387  28.905  -3.864  1.00  0.00    -0.364 N 
HETATM   30  C14 UNL     1     -10.575  27.848  -3.717  1.00  0.00     0.090 A 
HETATM   31  C15 UNL     1     -11.096  26.546  -3.674  1.00  0.00     0.018 A 
HETATM   32  C16 UNL     1     -12.442  26.351  -3.783  1.00  0.00     0.012 A 
HETATM   33  C17 UNL     1     -13.269  27.440  -3.932  1.00  0.00    -0.019 A 
HETATM   34  C19 UNL     1     -12.695  28.721  -3.969  1.00  0.00     0.099 A 
BRANCH  33  35
HETATM   35  C18 UNL     1     -14.737  27.260  -4.061  1.00  0.00     0.204 C 
BRANCH  35  36
HETATM   36  O3  UNL     1     -15.086  26.150  -4.840  1.00  0.00    -0.396 OA
ATOM     37  H3  UNL     1     -15.840  25.681  -4.502  1.00  0.00     0.209 HD
ENDBRANCH  35  36
ENDBRANCH  33  35
ENDBRANCH  28  29
ENDBRANCH   1  28
TORSDOF 17
ENDMDL
MODEL 2
REMARK VINA RESULT: -6.784101413      1.352      1.830
REMARK  17 active torsions:
REMARK  status: ('A' for Active; 'I' for Inactive)
REMARK    1  A    between atoms: N1_2  and  C2_4 
REMARK    2  A    between atoms: N1_2  and  C4_8 
REMARK    3  A    between atoms: C2_4  and  C3_5 
REMARK    4  A    between atoms: C3_5  and  O2_6 
REMARK    5  A    between atoms: C4_8  and  C5_9 
REMARK    6  A    between atoms: C5_9  and  C6_10 
REMARK    7  A    between atoms: C6_10  and  C7_11 
REMARK    8  A    between atoms: C7_11  and  C8_12 
REMARK    9  A    between atoms: C8_12  and  N2_13 
REMARK   10  A    between atoms: N2_13  and  C9_15 
REMARK   11  A    between atoms: C9_15  and  C10_16 
REMARK   12  A    between atoms: C9_15  and  C13_28 
REMARK   13  A    between atoms: C10_16  and  C11_17 
REMARK   14  A    between atoms: C12_22  and  N5_23 
REMARK   15  A    between atoms: C13_28  and  N7_29 
REMARK   16  A    between atoms: C17_33  and  C18_34 
REMARK   17  A    between atoms: C18_34  and  O3_35 
ROOT
HETATM    1  C9  UNL     1      -9.033  30.772  -4.044  1.00  0.00     0.106 C 
ENDROOT
BRANCH   1   2
HETATM    2  N2  UNL     1      -8.291  31.349  -5.089  1.00  0.00    -0.396 N 
ATOM      3  H2  UNL     1      -8.705  32.140  -5.581  1.00  0.00     0.159 HD
BRANCH   2   4
HETATM    4  C8  UNL     1      -7.039  30.921  -5.498  1.00  0.00     0.056 C 
BRANCH   4   5
HETATM    5  C7  UNL     1      -5.789  31.566  -5.019  1.00  0.00     0.044 C 
BRANCH   5   6
HETATM    6  C6  UNL     1      -5.056  32.345  -6.054  1.00  0.00     0.007 C 
BRANCH   6   7
HETATM    7  C5  UNL     1      -4.113  33.324  -5.406  1.00  0.00     0.037 C 
BRANCH   7   8
HETATM    8  C4  UNL     1      -4.683  33.791  -4.099  1.00  0.00     0.311 C 
BRANCH   8   9
HETATM    9  N1  UNL     1      -3.658  34.229  -3.153  1.00  0.00     0.011 N 
HETATM   10  C1  UNL     1      -2.734  35.126  -3.795  1.00  0.00     0.356 C 
HETATM   11  O1  UNL     1      -4.353  34.968  -2.225  1.00  0.00    -0.065 OA
BRANCH   9  12
HETATM   12  C2  UNL     1      -3.011  33.135  -2.505  1.00  0.00     0.337 C 
BRANCH  12  13
HETATM   13  C3  UNL     1      -3.970  32.107  -1.922  1.00  0.00     0.200 C 
BRANCH  13  14
HETATM   14  O2  UNL     1      -4.615  32.631  -0.810  1.00  0.00    -0.399 OA
ATOM     15  H2  UNL     1      -5.554  32.523  -0.896  1.00  0.00     0.209 HD
ENDBRANCH  13  14
ENDBRANCH  12  13
ENDBRANCH   9  12
ENDBRANCH   8   9
ENDBRANCH   7   8
ENDBRANCH   6   7
ENDBRANCH   5   6
ENDBRANCH   4   5
ENDBRANCH   2   4
ENDBRANCH   1   2
BRANCH   1  16
HETATM   16  C10 UNL     1      -8.859  31.315  -2.673  1.00  0.00     0.105 C 
BRANCH  16  17
HETATM   17  C11 UNL     1      -7.862  30.553  -1.880  1.00  0.00     0.114 A 
HETATM   18  N3  UNL     1      -7.320  29.381  -2.216  1.00  0.00    -0.274 N 
HETATM   19  N4  UNL     1      -6.459  29.034  -1.297  1.00  0.00    -0.131 N 
ATOM     20  H3  UNL     1      -7.542  28.842  -3.054  1.00  0.00     0.189 HD
HETATM   21  C12 UNL     1      -6.429  29.981  -0.343  1.00  0.00     0.691 A 
ATOM     22  H4  UNL     1      -5.900  28.181  -1.302  1.00  0.00     0.205 HD
HETATM   23  N6  UNL     1      -7.299  30.931  -0.697  1.00  0.00    -0.178 N 
ATOM     24  H6  UNL     1      -7.505  31.784  -0.177  1.00  0.00     0.185 HD
BRANCH  21  25
HETATM   25  N5  UNL     1      -5.725  30.043   0.750  1.00  0.00    -0.233 N 
ATOM     26  H52 UNL     1      -4.708  29.969   0.756  1.00  0.00     0.174 HD
ATOM     27  H51 UNL     1      -6.027  30.170   1.715  1.00  0.00     0.174 HD
ENDBRANCH  21  25
ENDBRANCH  16  17
ENDBRANCH   1  16
BRANCH   1  28
HETATM   28  C13 UNL     1     -10.524  30.801  -4.401  1.00  0.00     0.153 C 
BRANCH  28  29
HETATM   29  N7  UNL     1     -11.166  29.571  -3.935  1.00  0.00    -0.364 N 
HETATM   30  C14 UNL     1     -12.482  29.606  -3.680  1.00  0.00     0.090 A 
HETATM   31  C15 UNL     1     -13.154  28.461  -3.228  1.00  0.00     0.018 A 
HETATM   32  C16 UNL     1     -12.464  27.297  -3.047  1.00  0.00     0.012 A 
HETATM   33  C17 UNL     1     -11.114  27.268  -3.313  1.00  0.00    -0.019 A 
HETATM   34  C19 UNL     1     -10.492  28.444  -3.762  1.00  0.00     0.099 A 
BRANCH  33  35
HETATM   35  C18 UNL     1     -10.335  26.020  -3.118  1.00  0.00     0.204 C 
BRANCH  35  36
HETATM   36  O3  UNL     1     -10.847  24.937  -3.843  1.00  0.00    -0.396 OA
ATOM     37  H3  UNL     1     -10.964  25.129  -4.766  1.00  0.00     0.209 HD
ENDBRANCH  35  36
ENDBRANCH  33  35
ENDBRANCH  28  29
ENDBRANCH   1  28
TORSDOF 17
ENDMDL
MODEL 3
REMARK VINA RESULT: -6.759505980      3.091      4.347
REMARK  17 active torsions:
REMARK  status: ('A' for Active; 'I' for Inactive)
REMARK    1  A    between atoms: N1_2  and  C2_4 
REMARK    2  A    between atoms: N1_2  and  C4_8 
REMARK    3  A    between atoms: C2_4  and  C3_5 
REMARK    4  A    between atoms: C3_5  and  O2_6 
REMARK    5  A    between atoms: C4_8  and  C5_9 
REMARK    6  A    between atoms: C5_9  and  C6_10 
REMARK    7  A    between atoms: C6_10  and  C7_11 
REMARK    8  A    between atoms: C7_11  and  C8_12 
REMARK    9  A    between atoms: C8_12  and  N2_13 
REMARK   10  A    between atoms: N2_13  and  C9_15 
REMARK   11  A    between atoms: C9_15  and  C10_16 
REMARK   12  A    between atoms: C9_15  and  C13_28 
REMARK   13  A    between atoms: C10_16  and  C11_17 
REMARK   14  A    between atoms: C12_22  and  N5_23 
REMARK   15  A    between atoms: C13_28  and  N7_29 
REMARK   16  A    between atoms: C17_33  and  C18_34 
REMARK   17  A    between atoms: C18_34  and  O3_35 
ROOT
HETATM    1  C9  UNL     1      -9.379  30.347  -3.877  1.00  0.00     0.106 C 
ENDROOT
BRANCH   1   2
HETATM    2  N2  UNL     1      -8.815  30.724  -5.107  1.00  0.00    -0.396 N 
ATOM      3  H2  UNL     1      -9.363  31.337  -5.710  1.00  0.00     0.159 HD
BRANCH   2   4
HETATM    4  C8  UNL     1      -7.568  30.325  -5.559  1.00  0.00     0.056 C 
BRANCH   4   5
HETATM    5  C7  UNL     1      -6.333  31.089  -5.243  1.00  0.00     0.044 C 
BRANCH   5   6
HETATM    6  C6  UNL     1      -5.739  31.814  -6.399  1.00  0.00     0.007 C 
BRANCH   6   7
HETATM    7  C5  UNL     1      -6.373  31.357  -7.687  1.00  0.00     0.037 C 
BRANCH   7   8
HETATM    8  C4  UNL     1      -6.859  32.544  -8.466  1.00  0.00     0.311 C 
BRANCH   8   9
HETATM    9  N1  UNL     1      -8.236  32.394  -8.933  1.00  0.00     0.011 N 
HETATM   10  C1  UNL     1      -8.418  33.087 -10.182  1.00  0.00     0.356 C 
HETATM   11  O1  UNL     1      -8.355  31.051  -9.201  1.00  0.00    -0.065 OA
BRANCH   9  12
HETATM   12  C2  UNL     1      -9.192  32.771  -7.944  1.00  0.00     0.337 C 
BRANCH  12  13
HETATM   13  C3  UNL     1     -10.570  32.161  -8.150  1.00  0.00     0.200 C 
BRANCH  13  14
HETATM   14  O2  UNL     1     -10.598  30.864  -7.654  1.00  0.00    -0.399 OA
ATOM     15  H2  UNL     1      -9.717  30.509  -7.619  1.00  0.00     0.209 HD
ENDBRANCH  13  14
ENDBRANCH  12  13
ENDBRANCH   9  12
ENDBRANCH   8   9
ENDBRANCH   7   8
ENDBRANCH   6   7
ENDBRANCH   5   6
ENDBRANCH   4   5
ENDBRANCH   2   4
ENDBRANCH   1   2
BRANCH   1  16
HETATM   16  C10 UNL     1      -8.981  31.096  -2.658  1.00  0.00     0.105 C 
BRANCH  16  17
HETATM   17  C11 UNL     1      -7.919  30.406  -1.885  1.00  0.00     0.114 A 
HETATM   18  N3  UNL     1      -7.315  29.265  -2.225  1.00  0.00    -0.274 N 
HETATM   19  N4  UNL     1      -6.411  28.982  -1.325  1.00  0.00    -0.131 N 
ATOM     20  H3  UNL     1      -7.525  28.706  -3.051  1.00  0.00     0.189 HD
HETATM   21  C12 UNL     1      -6.415  29.939  -0.381  1.00  0.00     0.691 A 
ATOM     22  H4  UNL     1      -5.801  28.165  -1.338  1.00  0.00     0.205 HD
HETATM   23  N6  UNL     1      -7.351  30.830  -0.721  1.00  0.00    -0.178 N 
ATOM     24  H6  UNL     1      -7.595  31.674  -0.203  1.00  0.00     0.185 HD
BRANCH  21  25
HETATM   25  N5  UNL     1      -5.688  30.056   0.692  1.00  0.00    -0.233 N 
ATOM     26  H52 UNL     1      -6.030  30.500   1.544  1.00  0.00     0.174 HD
ATOM     27  H51 UNL     1      -4.732  29.750   0.869  1.00  0.00     0.174 HD
ENDBRANCH  21  25
ENDBRANCH  16  17
ENDBRANCH   1  16
BRANCH   1  28
HETATM   28  C13 UNL     1     -10.908  30.366  -3.991  1.00  0.00     0.153 C 
BRANCH  28  29
HETATM   29  N7  UNL     1     -11.426  28.999  -3.910  1.00  0.00    -0.364 N 
HETATM   30  C14 UNL     1     -10.543  27.997  -3.783  1.00  0.00     0.090 A 
HETATM   31  C15 UNL     1     -10.978  26.667  -3.703  1.00  0.00     0.018 A 
HETATM   32  C16 UNL     1     -12.312  26.385  -3.755  1.00  0.00     0.012 A 
HETATM   33  C17 UNL     1     -13.212  27.417  -3.884  1.00  0.00    -0.019 A 
HETATM   34  C19 UNL     1     -12.722  28.731  -3.960  1.00  0.00     0.099 A 
BRANCH  33  35
HETATM   35  C18 UNL     1     -14.669  27.142  -3.951  1.00  0.00     0.204 C 
BRANCH  35  36
HETATM   36  O3  UNL     1     -14.998  26.153  -4.885  1.00  0.00    -0.396 OA
ATOM     37  H3  UNL     1     -14.272  25.573  -5.083  1.00  0.00     0.209 HD
ENDBRANCH  35  36
ENDBRANCH  33  35
ENDBRANCH  28  29
ENDBRANCH   1  28
TORSDOF 17
ENDMDL
MODEL 4
REMARK VINA RESULT: -6.718703467      3.594      8.886
REMARK  17 active torsions:
REMARK  status: ('A' for Active; 'I' for Inactive)
REMARK    1  A    between atoms: N1_2  and  C2_4 
REMARK    2  A    between atoms: N1_2  and  C4_8 
REMARK    3  A    between atoms: C2_4  and  C3_5 
REMARK    4  A    between atoms: C3_5  and  O2_6 
REMARK    5  A    between atoms: C4_8  and  C5_9 
REMARK    6  A    between atoms: C5_9  and  C6_10 
REMARK    7  A    between atoms: C6_10  and  C7_11 
REMARK    8  A    between atoms: C7_11  and  C8_12 
REMARK    9  A    between atoms: C8_12  and  N2_13 
REMARK   10  A    between atoms: N2_13  and  C9_15 
REMARK   11  A    between atoms: C9_15  and  C10_16 
REMARK   12  A    between atoms: C9_15  and  C13_28 
REMARK   13  A    between atoms: C10_16  and  C11_17 
REMARK   14  A    between atoms: C12_22  and  N5_23 
REMARK   15  A    between atoms: C13_28  and  N7_29 
REMARK   16  A    between atoms: C17_33  and  C18_34 
REMARK   17  A    between atoms: C18_34  and  O3_35 
ROOT
HETATM    1  C9  UNL     1     -10.073  29.157  -4.299  1.00  0.00     0.106 C 
ENDROOT
BRANCH   1   2
HETATM    2  N2  UNL     1     -10.660  27.918  -3.993  1.00  0.00    -0.396 N 
ATOM      3  H2  UNL     1     -10.144  27.076  -4.247  1.00  0.00     0.159 HD
BRANCH   2   4
HETATM    4  C8  UNL     1     -11.887  27.757  -3.370  1.00  0.00     0.056 C 
BRANCH   4   5
HETATM    5  C7  UNL     1     -12.753  26.577  -3.627  1.00  0.00     0.044 C 
BRANCH   5   6
HETATM    6  C6  UNL     1     -14.151  26.906  -4.015  1.00  0.00     0.007 C 
BRANCH   6   7
HETATM    7  C5  UNL     1     -14.680  28.034  -3.168  1.00  0.00     0.037 C 
BRANCH   7   8
HETATM    8  C4  UNL     1     -15.977  27.629  -2.532  1.00  0.00     0.311 C 
BRANCH   8   9
HETATM    9  N1  UNL     1     -16.153  28.184  -1.191  1.00  0.00     0.011 N 
HETATM   10  C1  UNL     1     -17.404  28.890  -1.103  1.00  0.00     0.356 C 
HETATM   11  O1  UNL     1     -16.261  27.078  -0.382  1.00  0.00    -0.065 OA
BRANCH   9  12
HETATM   12  C2  UNL     1     -15.039  28.973  -0.777  1.00  0.00     0.337 C 
BRANCH  12  13
HETATM   13  C3  UNL     1     -14.397  28.504   0.521  1.00  0.00     0.200 C 
BRANCH  13  14
HETATM   14  O2  UNL     1     -13.250  27.772   0.250  1.00  0.00    -0.399 OA
ATOM     15  H2  UNL     1     -13.123  27.105   0.914  1.00  0.00     0.209 HD
ENDBRANCH  13  14
ENDBRANCH  12  13
ENDBRANCH   9  12
ENDBRANCH   8   9
ENDBRANCH   7   8
ENDBRANCH   6   7
ENDBRANCH   5   6
ENDBRANCH   4   5
ENDBRANCH   2   4
ENDBRANCH   1   2
BRANCH   1  16
HETATM   16  C10 UNL     1     -10.859  30.391  -4.042  1.00  0.00     0.105 C 
BRANCH  16  17
HETATM   17  C11 UNL     1     -11.354  31.023  -5.291  1.00  0.00     0.114 A 
HETATM   18  N3  UNL     1     -12.491  31.708  -5.427  1.00  0.00    -0.274 N 
HETATM   19  N4  UNL     1     -12.576  32.144  -6.656  1.00  0.00    -0.131 N 
ATOM     20  H3  UNL     1     -13.181  31.865  -4.693  1.00  0.00     0.189 HD
HETATM   21  C12 UNL     1     -11.489  31.746  -7.340  1.00  0.00     0.691 A 
ATOM     22  H4  UNL     1     -13.344  32.699  -7.034  1.00  0.00     0.205 HD
HETATM   23  N6  UNL     1     -10.723  31.047  -6.498  1.00  0.00    -0.178 N 
ATOM     24  H6  UNL     1      -9.828  30.610  -6.720  1.00  0.00     0.185 HD
BRANCH  21  25
HETATM   25  N5  UNL     1     -11.165  31.951  -8.583  1.00  0.00    -0.233 N 
ATOM     26  H52 UNL     1     -11.858  32.110  -9.316  1.00  0.00     0.174 HD
ATOM     27  H51 UNL     1     -10.245  31.991  -9.021  1.00  0.00     0.174 HD
ENDBRANCH  21  25
ENDBRANCH  16  17
ENDBRANCH   1  16
BRANCH   1  28
HETATM   28  C13 UNL     1      -8.723  29.273  -3.581  1.00  0.00     0.153 C 
BRANCH  28  29
HETATM   29  N7  UNL     1      -7.783  30.019  -4.419  1.00  0.00    -0.364 N 
HETATM   30  C14 UNL     1      -6.836  30.748  -3.809  1.00  0.00     0.090 A 
HETATM   31  C15 UNL     1      -5.908  31.485  -4.557  1.00  0.00     0.018 A 
HETATM   32  C16 UNL     1      -5.965  31.463  -5.921  1.00  0.00     0.012 A 
HETATM   33  C17 UNL     1      -6.937  30.712  -6.540  1.00  0.00    -0.019 A 
HETATM   34  C19 UNL     1      -7.841  29.992  -5.742  1.00  0.00     0.099 A 
BRANCH  33  35
HETATM   35  C18 UNL     1      -7.029  30.673  -8.021  1.00  0.00     0.204 C 
BRANCH  35  36
HETATM   36  O3  UNL     1      -8.325  30.408  -8.482  1.00  0.00    -0.396 OA
ATOM     37  H3  UNL     1      -8.869  29.975  -7.834  1.00  0.00     0.209 HD
ENDBRANCH  35  36
ENDBRANCH  33  35
ENDBRANCH  28  29
ENDBRANCH   1  28
TORSDOF 17
ENDMDL
MODEL 5
REMARK VINA RESULT: -6.685236675      4.212      6.055
REMARK  17 active torsions:
REMARK  status: ('A' for Active; 'I' for Inactive)
REMARK    1  A    between atoms: N1_2  and  C2_4 
REMARK    2  A    between atoms: N1_2  and  C4_8 
REMARK    3  A    between atoms: C2_4  and  C3_5 
REMARK    4  A    between atoms: C3_5  and  O2_6 
REMARK    5  A    between atoms: C4_8  and  C5_9 
REMARK    6  A    between atoms: C5_9  and  C6_10 
REMARK    7  A    between atoms: C6_10  and  C7_11 
REMARK    8  A    between atoms: C7_11  and  C8_12 
REMARK    9  A    between atoms: C8_12  and  N2_13 
REMARK   10  A    between atoms: N2_13  and  C9_15 
REMARK   11  A    between atoms: C9_15  and  C10_16 
REMARK   12  A    between atoms: C9_15  and  C13_28 
REMARK   13  A    between atoms: C10_16  and  C11_17 
REMARK   14  A    between atoms: C12_22  and  N5_23 
REMARK   15  A    between atoms: C13_28  and  N7_29 
REMARK   16  A    between atoms: C17_33  and  C18_34 
REMARK   17  A    between atoms: C18_34  and  O3_35 
ROOT
HETATM    1  C9  UNL     1     -11.424  28.673  -3.639  1.00  0.00     0.106 C 
ENDROOT
BRANCH   1   2
HETATM    2  N2  UNL     1     -10.143  28.826  -3.084  1.00  0.00    -0.396 N 
ATOM      3  H2  UNL     1     -10.016  29.555  -2.382  1.00  0.00     0.159 HD
BRANCH   2   4
HETATM    4  C8  UNL     1      -9.039  28.059  -3.419  1.00  0.00     0.056 C 
BRANCH   4   5
HETATM    5  C7  UNL     1      -7.802  28.661  -3.981  1.00  0.00     0.044 C 
BRANCH   5   6
HETATM    6  C6  UNL     1      -7.961  30.053  -4.482  1.00  0.00     0.007 C 
BRANCH   6   7
HETATM    7  C5  UNL     1      -7.680  30.115  -5.960  1.00  0.00     0.037 C 
BRANCH   7   8
HETATM    8  C4  UNL     1      -7.935  31.503  -6.470  1.00  0.00     0.311 C 
BRANCH   8   9
HETATM    9  N1  UNL     1      -7.898  31.592  -7.928  1.00  0.00     0.011 N 
HETATM   10  C1  UNL     1      -6.566  31.341  -8.411  1.00  0.00     0.356 C 
HETATM   11  O1  UNL     1      -8.679  30.541  -8.348  1.00  0.00    -0.065 OA
BRANCH   9  12
HETATM   12  C2  UNL     1      -8.444  32.817  -8.414  1.00  0.00     0.337 C 
BRANCH  12  13
HETATM   13  C3  UNL     1      -8.943  32.746  -9.850  1.00  0.00     0.200 C 
BRANCH  13  14
HETATM   14  O2  UNL     1     -10.299  32.450  -9.871  1.00  0.00    -0.399 OA
ATOM     15  H2  UNL     1     -10.495  31.866 -10.594  1.00  0.00     0.209 HD
ENDBRANCH  13  14
ENDBRANCH  12  13
ENDBRANCH   9  12
ENDBRANCH   8   9
ENDBRANCH   7   8
ENDBRANCH   6   7
ENDBRANCH   5   6
ENDBRANCH   4   5
ENDBRANCH   2   4
ENDBRANCH   1   2
BRANCH   1  16
HETATM   16  C10 UNL     1     -11.540  28.521  -5.112  1.00  0.00     0.105 C 
BRANCH  16  17
HETATM   17  C11 UNL     1     -11.524  29.824  -5.823  1.00  0.00     0.114 A 
HETATM   18  N3  UNL     1     -11.400  29.999  -7.140  1.00  0.00    -0.274 N 
HETATM   19  N4  UNL     1     -11.464  31.276  -7.405  1.00  0.00    -0.131 N 
ATOM     20  H3  UNL     1     -11.275  29.256  -7.829  1.00  0.00     0.189 HD
HETATM   21  C12 UNL     1     -11.631  31.955  -6.256  1.00  0.00     0.691 A 
ATOM     22  H4  UNL     1     -11.399  31.692  -8.334  1.00  0.00     0.205 HD
HETATM   23  N6  UNL     1     -11.668  31.059  -5.266  1.00  0.00    -0.178 N 
ATOM     24  H6  UNL     1     -11.785  31.263  -4.273  1.00  0.00     0.185 HD
BRANCH  21  25
HETATM   25  N5  UNL     1     -11.739  33.236  -6.052  1.00  0.00    -0.233 N 
ATOM     26  H52 UNL     1     -12.543  33.654  -5.583  1.00  0.00     0.174 HD
ATOM     27  H51 UNL     1     -11.100  33.992  -6.294  1.00  0.00     0.174 HD
ENDBRANCH  21  25
ENDBRANCH  16  17
ENDBRANCH   1  16
BRANCH   1  28
HETATM   28  C13 UNL     1     -12.134  27.494  -2.964  1.00  0.00     0.153 C 
BRANCH  28  29
HETATM   29  N7  UNL     1     -13.370  27.958  -2.333  1.00  0.00    -0.364 N 
HETATM   30  C14 UNL     1     -13.285  28.522  -1.119  1.00  0.00     0.090 A 
HETATM   31  C15 UNL     1     -14.434  28.984  -0.462  1.00  0.00     0.018 A 
HETATM   32  C16 UNL     1     -15.654  28.862  -1.064  1.00  0.00     0.012 A 
HETATM   33  C17 UNL     1     -15.734  28.285  -2.310  1.00  0.00    -0.019 A 
HETATM   34  C19 UNL     1     -14.551  27.839  -2.921  1.00  0.00     0.099 A 
BRANCH  33  35
HETATM   35  C18 UNL     1     -17.046  28.132  -2.986  1.00  0.00     0.204 C 
BRANCH  35  36
HETATM   36  O3  UNL     1     -16.934  28.008  -4.377  1.00  0.00    -0.396 OA
ATOM     37  H3  UNL     1     -16.429  28.709  -4.772  1.00  0.00     0.209 HD
ENDBRANCH  35  36
ENDBRANCH  33  35
ENDBRANCH  28  29
ENDBRANCH   1  28
TORSDOF 17
ENDMDL
