MODEL 1
REMARK VINA RESULT: -6.955573117      0.000      0.000
REMARK  15 active torsions:
REMARK  status: ('A' for Active; 'I' for Inactive)
REMARK    1  A    between atoms: N1_1  and  C1_5 
REMARK    2  A    between atoms: C1_5  and  C2_6 
REMARK    3  A    between atoms: C2_6  and  C3_7 
REMARK    4  A    between atoms: C3_7  and  N2_8 
REMARK    5  A    between atoms: C5_11  and  C6_12 
REMARK    6  A    between atoms: C6_12  and  C7_13 
REMARK    7  A    between atoms: C7_13  and  C8_14 
REMARK    8  A    between atoms: C8_14  and  C9_15 
REMARK    9  A    between atoms: C9_15  and  C10_16 
REMARK   10  A    between atoms: C10_16  and  C11_17 
REMARK   11  A    between atoms: C11_17  and  C12_18 
REMARK   12  A    between atoms: C12_18  and  C13_19 
REMARK   13  A    between atoms: C13_19  and  N3_20 
REMARK   14  A    between atoms: N3_20  and  C14_22 
REMARK   15  A    between atoms: C15_27  and  C16_28 
ROOT
HETATM    1  N2  UNL     1     -10.371  30.166  -3.728  1.00  0.00    -0.321 N 
HETATM    2  C4  UNL     1      -9.306  30.886  -3.055  1.00  0.00     0.252 C 
HETATM    3  O1  UNL     1      -9.315  32.126  -2.815  1.00  0.00    -0.271 OA
HETATM    4  C5  UNL     1      -8.289  29.874  -2.745  1.00  0.00     0.279 C 
HETATM    5  N4  UNL     1      -8.964  28.627  -2.803  1.00  0.00    -0.040 N 
ATOM      6  H41 UNL     1      -8.914  28.123  -1.917  1.00  0.00     0.280 HD
ATOM      7  H42 UNL     1      -8.471  27.952  -3.386  1.00  0.00     0.280 HD
HETATM    8  C15 UNL     1     -10.327  28.821  -3.237  1.00  0.00     0.303 C 
ENDROOT
BRANCH   4   9
HETATM    9  C6  UNL     1      -7.138  29.862  -3.716  1.00  0.00     0.043 C 
BRANCH   9  10
HETATM   10  C7  UNL     1      -6.075  30.856  -3.395  1.00  0.00     0.002 C 
BRANCH  10  11
HETATM   11  C8  UNL     1      -5.627  31.679  -4.565  1.00  0.00     0.000 C 
BRANCH  11  12
HETATM   12  C9  UNL     1      -6.701  32.001  -5.543  1.00  0.00     0.000 C 
BRANCH  12  13
HETATM   13  C10 UNL     1      -6.320  31.467  -6.946  1.00  0.00     0.000 C 
BRANCH  13  14
HETATM   14  C11 UNL     1      -7.221  30.352  -7.325  1.00  0.00     0.002 C 
BRANCH  14  15
HETATM   15  C12 UNL     1      -7.146  29.939  -8.742  1.00  0.00     0.020 C 
BRANCH  15  16
HETATM   16  C13 UNL     1      -7.067  31.043  -9.725  1.00  0.00     0.122 C 
BRANCH  16  17
HETATM   17  N3  UNL     1      -8.291  31.543 -10.271  1.00  0.00    -0.368 N 
ATOM     18  H3  UNL     1      -8.662  31.096 -11.109  1.00  0.00     0.161 HD
BRANCH  17  19
HETATM   19  C14 UNL     1      -9.014  32.621  -9.714  1.00  0.00     0.348 C 
HETATM   20  O2  UNL     1     -10.251  32.690  -9.847  1.00  0.00    -0.284 OA
ENDBRANCH  17  19
ENDBRANCH  16  17
ENDBRANCH  15  16
ENDBRANCH  14  15
ENDBRANCH  13  14
ENDBRANCH  12  13
ENDBRANCH  11  12
ENDBRANCH  10  11
ENDBRANCH   9  10
ENDBRANCH   4   9
BRANCH   1  21
HETATM   21  C3  UNL     1     -11.209  30.845  -4.679  1.00  0.00     0.130 C 
BRANCH  21  22
HETATM   22  C2  UNL     1     -10.403  31.378  -5.873  1.00  0.00     0.047 C 
BRANCH  22  23
HETATM   23  C1  UNL     1     -11.009  30.677  -7.095  1.00  0.00     0.231 C 
BRANCH  23  24
HETATM   24  N1  UNL     1     -12.020  31.461  -7.732  1.00  0.00    -0.079 N 
ATOM     25  H13 UNL     1     -11.608  32.145  -8.365  1.00  0.00     0.274 HD
ATOM     26  H12 UNL     1     -12.544  30.905  -8.408  1.00  0.00     0.274 HD
ATOM     27  H11 UNL     1     -12.646  31.910  -7.063  1.00  0.00     0.274 HD
ENDBRANCH  23  24
ENDBRANCH  22  23
ENDBRANCH  21  22
ENDBRANCH   1  21
BRANCH   8  28
HETATM   28  C16 UNL     1     -10.833  27.756  -4.128  1.00  0.00     0.137 C 
HETATM   29  C17 UNL     1     -12.326  27.874  -4.313  1.00  0.00     0.121 C 
HETATM   30  C18 UNL     1     -12.851  26.478  -4.176  1.00  0.00     0.225 C 
HETATM   31  O3  UNL     1     -14.054  26.179  -4.215  1.00  0.00    -0.273 OA
HETATM   32  N5  UNL     1     -11.734  25.633  -4.004  1.00  0.00    -0.297 N 
HETATM   33  C19 UNL     1     -10.591  26.393  -3.598  1.00  0.00     0.232 C 
ATOM     34  H5  UNL     1     -11.740  24.622  -4.147  1.00  0.00     0.171 HD
HETATM   35  O4  UNL     1      -9.628  25.932  -2.936  1.00  0.00    -0.273 OA
ENDBRANCH   8  28
TORSDOF 15
ENDMDL
MODEL 2
REMARK VINA RESULT: -6.848490559      1.485      1.670
REMARK  15 active torsions:
REMARK  status: ('A' for Active; 'I' for Inactive)
REMARK    1  A    between atoms: N1_1  and  C1_5 
REMARK    2  A    between atoms: C1_5  and  C2_6 
REMARK    3  A    between atoms: C2_6  and  C3_7 
REMARK    4  A    between atoms: C3_7  and  N2_8 
REMARK    5  A    between atoms: C5_11  and  C6_12 
REMARK    6  A    between atoms: C6_12  and  C7_13 
REMARK    7  A    between atoms: C7_13  and  C8_14 
REMARK    8  A    between atoms: C8_14  and  C9_15 
REMARK    9  A    between atoms: C9_15  and  C10_16 
REMARK   10  A    between atoms: C10_16  and  C11_17 
REMARK   11  A    between atoms: C11_17  and  C12_18 
REMARK   12  A    between atoms: C12_18  and  C13_19 
REMARK   13  A    between atoms: C13_19  and  N3_20 
REMARK   14  A    between atoms: N3_20  and  C14_22 
REMARK   15  A    between atoms: C15_27  and  C16_28 
ROOT
HETATM    1  N2  UNL     1     -10.373  30.167  -3.896  1.00  0.00    -0.321 N 
HETATM    2  C4  UNL     1      -9.325  30.928  -3.242  1.00  0.00     0.252 C 
HETATM    3  O1  UNL     1      -9.347  32.179  -3.064  1.00  0.00    -0.271 OA
HETATM    4  C5  UNL     1      -8.304  29.941  -2.868  1.00  0.00     0.279 C 
HETATM    5  N4  UNL     1      -8.968  28.687  -2.875  1.00  0.00    -0.040 N 
ATOM      6  H41 UNL     1      -8.927  28.227  -1.965  1.00  0.00     0.280 HD
ATOM      7  H42 UNL     1      -8.460  27.989  -3.417  1.00  0.00     0.280 HD
HETATM    8  C15 UNL     1     -10.325  28.848  -3.339  1.00  0.00     0.303 C 
ENDROOT
BRANCH   4   9
HETATM    9  C6  UNL     1      -7.138  29.893  -3.820  1.00  0.00     0.043 C 
BRANCH   9  10
HETATM   10  C7  UNL     1      -6.024  30.810  -3.449  1.00  0.00     0.002 C 
BRANCH  10  11
HETATM   11  C8  UNL     1      -5.839  31.966  -4.384  1.00  0.00     0.000 C 
BRANCH  11  12
HETATM   12  C9  UNL     1      -5.641  31.583  -5.810  1.00  0.00     0.000 C 
BRANCH  12  13
HETATM   13  C10 UNL     1      -6.317  32.622  -6.738  1.00  0.00     0.000 C 
BRANCH  13  14
HETATM   14  C11 UNL     1      -7.273  31.942  -7.645  1.00  0.00     0.002 C 
BRANCH  14  15
HETATM   15  C12 UNL     1      -7.168  30.467  -7.674  1.00  0.00     0.020 C 
BRANCH  15  16
HETATM   16  C13 UNL     1      -7.180  29.853  -9.020  1.00  0.00     0.122 C 
BRANCH  16  17
HETATM   17  N3  UNL     1      -6.609  30.595 -10.101  1.00  0.00    -0.368 N 
ATOM     18  H3  UNL     1      -7.099  31.429 -10.424  1.00  0.00     0.161 HD
BRANCH  17  19
HETATM   19  C14 UNL     1      -5.404  30.238 -10.747  1.00  0.00     0.348 C 
HETATM   20  O2  UNL     1      -4.996  29.061 -10.720  1.00  0.00    -0.284 OA
ENDBRANCH  17  19
ENDBRANCH  16  17
ENDBRANCH  15  16
ENDBRANCH  14  15
ENDBRANCH  13  14
ENDBRANCH  12  13
ENDBRANCH  11  12
ENDBRANCH  10  11
ENDBRANCH   9  10
ENDBRANCH   4   9
BRANCH   1  21
HETATM   21  C3  UNL     1     -11.202  30.790  -4.892  1.00  0.00     0.130 C 
BRANCH  21  22
HETATM   22  C2  UNL     1     -10.548  30.757  -6.281  1.00  0.00     0.047 C 
BRANCH  22  23
HETATM   23  C1  UNL     1     -11.256  31.867  -7.069  1.00  0.00     0.231 C 
BRANCH  23  24
HETATM   24  N1  UNL     1     -10.939  31.838  -8.462  1.00  0.00    -0.079 N 
ATOM     25  H13 UNL     1     -10.129  32.423  -8.666  1.00  0.00     0.274 HD
ATOM     26  H12 UNL     1     -10.559  30.931  -8.733  1.00  0.00     0.274 HD
ATOM     27  H11 UNL     1     -11.733  32.093  -9.049  1.00  0.00     0.274 HD
ENDBRANCH  23  24
ENDBRANCH  22  23
ENDBRANCH  21  22
ENDBRANCH   1  21
BRANCH   8  28
HETATM   28  C16 UNL     1     -10.808  27.735  -4.184  1.00  0.00     0.137 C 
HETATM   29  C17 UNL     1     -12.303  27.819  -4.379  1.00  0.00     0.121 C 
HETATM   30  C18 UNL     1     -12.804  26.420  -4.183  1.00  0.00     0.225 C 
HETATM   31  O3  UNL     1     -14.001  26.098  -4.212  1.00  0.00    -0.273 OA
HETATM   32  N5  UNL     1     -11.672  25.604  -3.970  1.00  0.00    -0.297 N 
HETATM   33  C19 UNL     1     -10.544  26.402  -3.595  1.00  0.00     0.232 C 
ATOM     34  H5  UNL     1     -11.659  24.588  -4.070  1.00  0.00     0.171 HD
HETATM   35  O4  UNL     1      -9.576  25.988  -2.910  1.00  0.00    -0.273 OA
ENDBRANCH   8  28
TORSDOF 15
ENDMDL
MODEL 3
REMARK VINA RESULT: -6.795036160      1.242      1.728
REMARK  15 active torsions:
REMARK  status: ('A' for Active; 'I' for Inactive)
REMARK    1  A    between atoms: N1_1  and  C1_5 
REMARK    2  A    between atoms: C1_5  and  C2_6 
REMARK    3  A    between atoms: C2_6  and  C3_7 
REMARK    4  A    between atoms: C3_7  and  N2_8 
REMARK    5  A    between atoms: C5_11  and  C6_12 
REMARK    6  A    between atoms: C6_12  and  C7_13 
REMARK    7  A    between atoms: C7_13  and  C8_14 
REMARK    8  A    between atoms: C8_14  and  C9_15 
REMARK    9  A    between atoms: C9_15  and  C10_16 
REMARK   10  A    between atoms: C10_16  and  C11_17 
REMARK   11  A    between atoms: C11_17  and  C12_18 
REMARK   12  A    between atoms: C12_18  and  C13_19 
REMARK   13  A    between atoms: C13_19  and  N3_20 
REMARK   14  A    between atoms: N3_20  and  C14_22 
REMARK   15  A    between atoms: C15_27  and  C16_28 
ROOT
HETATM    1  N2  UNL     1     -10.253  30.282  -3.918  1.00  0.00    -0.321 N 
HETATM    2  C4  UNL     1      -9.242  30.969  -3.136  1.00  0.00     0.252 C 
HETATM    3  O1  UNL     1      -9.169  32.223  -2.998  1.00  0.00    -0.271 OA
HETATM    4  C5  UNL     1      -8.389  29.909  -2.586  1.00  0.00     0.279 C 
HETATM    5  N4  UNL     1      -9.164  28.722  -2.658  1.00  0.00    -0.040 N 
ATOM      6  H41 UNL     1      -9.302  28.300  -1.740  1.00  0.00     0.280 HD
ATOM      7  H42 UNL     1      -8.652  27.958  -3.098  1.00  0.00     0.280 HD
HETATM    8  C15 UNL     1     -10.416  28.989  -3.324  1.00  0.00     0.303 C 
ENDROOT
BRANCH   4   9
HETATM    9  C6  UNL     1      -7.106  29.713  -3.351  1.00  0.00     0.043 C 
BRANCH   9  10
HETATM   10  C7  UNL     1      -5.885  30.055  -2.568  1.00  0.00     0.002 C 
BRANCH  10  11
HETATM   11  C8  UNL     1      -5.657  31.525  -2.390  1.00  0.00     0.000 C 
BRANCH  11  12
HETATM   12  C9  UNL     1      -4.696  32.125  -3.356  1.00  0.00     0.000 C 
BRANCH  12  13
HETATM   13  C10 UNL     1      -5.463  32.812  -4.513  1.00  0.00     0.000 C 
BRANCH  13  14
HETATM   14  C11 UNL     1      -5.091  32.188  -5.806  1.00  0.00     0.002 C 
BRANCH  14  15
HETATM   15  C12 UNL     1      -6.195  31.502  -6.510  1.00  0.00     0.020 C 
BRANCH  15  16
HETATM   16  C13 UNL     1      -6.734  32.207  -7.694  1.00  0.00     0.122 C 
BRANCH  16  17
HETATM   17  N3  UNL     1      -6.756  31.505  -8.940  1.00  0.00    -0.368 N 
ATOM     18  H3  UNL     1      -6.670  32.047  -9.799  1.00  0.00     0.161 HD
BRANCH  17  19
HETATM   19  C14 UNL     1      -6.892  30.103  -9.047  1.00  0.00     0.348 C 
HETATM   20  O2  UNL     1      -8.020  29.579  -9.121  1.00  0.00    -0.284 OA
ENDBRANCH  17  19
ENDBRANCH  16  17
ENDBRANCH  15  16
ENDBRANCH  14  15
ENDBRANCH  13  14
ENDBRANCH  12  13
ENDBRANCH  11  12
ENDBRANCH  10  11
ENDBRANCH   9  10
ENDBRANCH   4   9
BRANCH   1  21
HETATM   21  C3  UNL     1     -10.862  30.937  -5.044  1.00  0.00     0.130 C 
BRANCH  21  22
HETATM   22  C2  UNL     1      -9.974  30.867  -6.295  1.00  0.00     0.047 C 
BRANCH  22  23
HETATM   23  C1  UNL     1     -10.936  31.099  -7.467  1.00  0.00     0.231 C 
BRANCH  23  24
HETATM   24  N1  UNL     1     -10.310  31.763  -8.566  1.00  0.00    -0.079 N 
ATOM     25  H13 UNL     1     -10.573  32.749  -8.597  1.00  0.00     0.274 HD
ATOM     26  H12 UNL     1      -9.307  31.866  -8.411  1.00  0.00     0.274 HD
ATOM     27  H11 UNL     1     -10.499  31.306  -9.458  1.00  0.00     0.274 HD
ENDBRANCH  23  24
ENDBRANCH  22  23
ENDBRANCH  21  22
ENDBRANCH   1  21
BRANCH   8  28
HETATM   28  C16 UNL     1     -10.877  27.891  -4.200  1.00  0.00     0.137 C 
HETATM   29  C17 UNL     1     -12.376  27.931  -4.368  1.00  0.00     0.121 C 
HETATM   30  C18 UNL     1     -12.827  26.510  -4.215  1.00  0.00     0.225 C 
HETATM   31  O3  UNL     1     -14.013  26.149  -4.237  1.00  0.00    -0.273 OA
HETATM   32  N5  UNL     1     -11.665  25.725  -4.050  1.00  0.00    -0.297 N 
HETATM   33  C19 UNL     1     -10.558  26.547  -3.664  1.00  0.00     0.232 C 
ATOM     34  H5  UNL     1     -11.620  24.715  -4.186  1.00  0.00     0.171 HD
HETATM   35  O4  UNL     1      -9.565  26.142  -3.011  1.00  0.00    -0.273 OA
ENDBRANCH   8  28
TORSDOF 15
ENDMDL
MODEL 4
REMARK VINA RESULT: -6.734532957      2.134      4.654
REMARK  15 active torsions:
REMARK  status: ('A' for Active; 'I' for Inactive)
REMARK    1  A    between atoms: N1_1  and  C1_5 
REMARK    2  A    between atoms: C1_5  and  C2_6 
REMARK    3  A    between atoms: C2_6  and  C3_7 
REMARK    4  A    between atoms: C3_7  and  N2_8 
REMARK    5  A    between atoms: C5_11  and  C6_12 
REMARK    6  A    between atoms: C6_12  and  C7_13 
REMARK    7  A    between atoms: C7_13  and  C8_14 
REMARK    8  A    between atoms: C8_14  and  C9_15 
REMARK    9  A    between atoms: C9_15  and  C10_16 
REMARK   10  A    between atoms: C10_16  and  C11_17 
REMARK   11  A    between atoms: C11_17  and  C12_18 
REMARK   12  A    between atoms: C12_18  and  C13_19 
REMARK   13  A    between atoms: C13_19  and  N3_20 
REMARK   14  A    between atoms: N3_20  and  C14_22 
REMARK   15  A    between atoms: C15_27  and  C16_28 
ROOT
HETATM    1  N2  UNL     1     -10.368  30.130  -3.935  1.00  0.00    -0.321 N 
HETATM    2  C4  UNL     1      -9.286  30.844  -3.283  1.00  0.00     0.252 C 
HETATM    3  O1  UNL     1      -9.245  32.096  -3.120  1.00  0.00    -0.271 OA
HETATM    4  C5  UNL     1      -8.321  29.810  -2.889  1.00  0.00     0.279 C 
HETATM    5  N4  UNL     1      -9.050  28.592  -2.886  1.00  0.00    -0.040 N 
ATOM      6  H41 UNL     1      -9.039  28.142  -1.971  1.00  0.00     0.280 HD
ATOM      7  H42 UNL     1      -8.575  27.862  -3.416  1.00  0.00     0.280 HD
HETATM    8  C15 UNL     1     -10.393  28.818  -3.362  1.00  0.00     0.303 C 
ENDROOT
BRANCH   4   9
HETATM    9  C6  UNL     1      -7.152  29.689  -3.831  1.00  0.00     0.043 C 
BRANCH   9  10
HETATM   10  C7  UNL     1      -7.056  30.807  -4.812  1.00  0.00     0.002 C 
BRANCH  10  11
HETATM   11  C8  UNL     1      -5.785  31.596  -4.725  1.00  0.00     0.000 C 
BRANCH  11  12
HETATM   12  C9  UNL     1      -5.325  31.878  -3.338  1.00  0.00     0.000 C 
BRANCH  12  13
HETATM   13  C10 UNL     1      -3.968  32.624  -3.369  1.00  0.00     0.000 C 
BRANCH  13  14
HETATM   14  C11 UNL     1      -3.225  32.375  -2.110  1.00  0.00     0.002 C 
BRANCH  14  15
HETATM   15  C12 UNL     1      -3.115  30.953  -1.719  1.00  0.00     0.020 C 
BRANCH  15  16
HETATM   16  C13 UNL     1      -3.447  30.651  -0.309  1.00  0.00     0.122 C 
BRANCH  16  17
HETATM   17  N3  UNL     1      -4.818  30.736   0.090  1.00  0.00    -0.368 N 
ATOM     18  H3  UNL     1      -5.148  31.614   0.493  1.00  0.00     0.161 HD
BRANCH  17  19
HETATM   19  C14 UNL     1      -5.739  29.674  -0.041  1.00  0.00     0.348 C 
HETATM   20  O2  UNL     1      -5.434  28.645  -0.672  1.00  0.00    -0.284 OA
ENDBRANCH  17  19
ENDBRANCH  16  17
ENDBRANCH  15  16
ENDBRANCH  14  15
ENDBRANCH  13  14
ENDBRANCH  12  13
ENDBRANCH  11  12
ENDBRANCH  10  11
ENDBRANCH   9  10
ENDBRANCH   4   9
BRANCH   1  21
HETATM   21  C3  UNL     1     -11.157  30.783  -4.945  1.00  0.00     0.130 C 
BRANCH  21  22
HETATM   22  C2  UNL     1     -10.471  30.745  -6.318  1.00  0.00     0.047 C 
BRANCH  22  23
HETATM   23  C1  UNL     1     -11.347  31.630  -7.214  1.00  0.00     0.231 C 
BRANCH  23  24
HETATM   24  N1  UNL     1     -10.777  31.836  -8.508  1.00  0.00    -0.079 N 
ATOM     25  H13 UNL     1     -11.500  31.855  -9.228  1.00  0.00     0.274 HD
ATOM     26  H12 UNL     1     -10.423  32.788  -8.606  1.00  0.00     0.274 HD
ATOM     27  H11 UNL     1     -10.055  31.151  -8.731  1.00  0.00     0.274 HD
ENDBRANCH  23  24
ENDBRANCH  22  23
ENDBRANCH  21  22
ENDBRANCH   1  21
BRANCH   8  28
HETATM   28  C16 UNL     1     -10.928  27.721  -4.197  1.00  0.00     0.137 C 
HETATM   29  C17 UNL     1     -12.425  27.841  -4.347  1.00  0.00     0.121 C 
HETATM   30  C18 UNL     1     -12.953  26.453  -4.143  1.00  0.00     0.225 C 
HETATM   31  O3  UNL     1     -14.157  26.160  -4.137  1.00  0.00    -0.273 OA
HETATM   32  N5  UNL     1     -11.834  25.609  -3.968  1.00  0.00    -0.297 N 
HETATM   33  C19 UNL     1     -10.677  26.379  -3.623  1.00  0.00     0.232 C 
ATOM     34  H5  UNL     1     -11.849  24.595  -4.072  1.00  0.00     0.171 HD
HETATM   35  O4  UNL     1      -9.699  25.938  -2.970  1.00  0.00    -0.273 OA
ENDBRANCH   8  28
TORSDOF 15
ENDMDL
MODEL 5
REMARK VINA RESULT: -6.698351993      2.085      4.154
REMARK  15 active torsions:
REMARK  status: ('A' for Active; 'I' for Inactive)
REMARK    1  A    between atoms: N1_1  and  C1_5 
REMARK    2  A    between atoms: C1_5  and  C2_6 
REMARK    3  A    between atoms: C2_6  and  C3_7 
REMARK    4  A    between atoms: C3_7  and  N2_8 
REMARK    5  A    between atoms: C5_11  and  C6_12 
REMARK    6  A    between atoms: C6_12  and  C7_13 
REMARK    7  A    between atoms: C7_13  and  C8_14 
REMARK    8  A    between atoms: C8_14  and  C9_15 
REMARK    9  A    between atoms: C9_15  and  C10_16 
REMARK   10  A    between atoms: C10_16  and  C11_17 
REMARK   11  A    between atoms: C11_17  and  C12_18 
REMARK   12  A    between atoms: C12_18  and  C13_19 
REMARK   13  A    between atoms: C13_19  and  N3_20 
REMARK   14  A    between atoms: N3_20  and  C14_22 
REMARK   15  A    between atoms: C15_27  and  C16_28 
ROOT
HETATM    1  N2  UNL     1     -10.393  30.128  -3.893  1.00  0.00    -0.321 N 
HETATM    2  C4  UNL     1      -9.307  30.857  -3.265  1.00  0.00     0.252 C 
HETATM    3  O1  UNL     1      -9.289  32.107  -3.084  1.00  0.00    -0.271 OA
HETATM    4  C5  UNL     1      -8.305  29.840  -2.920  1.00  0.00     0.279 C 
HETATM    5  N4  UNL     1      -9.005  28.605  -2.914  1.00  0.00    -0.040 N 
ATOM      6  H41 UNL     1      -8.953  28.142  -2.006  1.00  0.00     0.280 HD
ATOM      7  H42 UNL     1      -8.531  27.894  -3.470  1.00  0.00     0.280 HD
HETATM    8  C15 UNL     1     -10.368  28.806  -3.341  1.00  0.00     0.303 C 
ENDROOT
BRANCH   4   9
HETATM    9  C6  UNL     1      -7.166  29.761  -3.903  1.00  0.00     0.043 C 
BRANCH   9  10
HETATM   10  C7  UNL     1      -7.587  29.932  -5.322  1.00  0.00     0.002 C 
BRANCH  10  11
HETATM   11  C8  UNL     1      -6.781  30.936  -6.089  1.00  0.00     0.000 C 
BRANCH  11  12
HETATM   12  C9  UNL     1      -6.400  32.147  -5.311  1.00  0.00     0.000 C 
BRANCH  12  13
HETATM   13  C10 UNL     1      -4.868  32.363  -5.382  1.00  0.00     0.000 C 
BRANCH  13  14
HETATM   14  C11 UNL     1      -4.369  32.871  -4.081  1.00  0.00     0.002 C 
BRANCH  14  15
HETATM   15  C12 UNL     1      -4.306  31.866  -2.999  1.00  0.00     0.020 C 
BRANCH  15  16
HETATM   16  C13 UNL     1      -5.096  32.181  -1.788  1.00  0.00     0.122 C 
BRANCH  16  17
HETATM   17  N3  UNL     1      -5.458  31.101  -0.924  1.00  0.00    -0.368 N 
ATOM     18  H3  UNL     1      -6.246  31.235  -0.290  1.00  0.00     0.161 HD
BRANCH  17  19
HETATM   19  C14 UNL     1      -4.786  29.859  -0.899  1.00  0.00     0.348 C 
HETATM   20  O2  UNL     1      -5.423  28.792  -0.993  1.00  0.00    -0.284 OA
ENDBRANCH  17  19
ENDBRANCH  16  17
ENDBRANCH  15  16
ENDBRANCH  14  15
ENDBRANCH  13  14
ENDBRANCH  12  13
ENDBRANCH  11  12
ENDBRANCH  10  11
ENDBRANCH   9  10
ENDBRANCH   4   9
BRANCH   1  21
HETATM   21  C3  UNL     1     -11.230  30.778  -4.865  1.00  0.00     0.130 C 
BRANCH  21  22
HETATM   22  C2  UNL     1     -10.664  30.642  -6.287  1.00  0.00     0.047 C 
BRANCH  22  23
HETATM   23  C1  UNL     1     -10.648  32.075  -6.835  1.00  0.00     0.231 C 
BRANCH  23  24
HETATM   24  N1  UNL     1      -9.911  32.973  -6.002  1.00  0.00    -0.079 N 
ATOM     25  H13 UNL     1     -10.132  32.823  -5.017  1.00  0.00     0.274 HD
ATOM     26  H12 UNL     1      -8.920  32.730  -5.986  1.00  0.00     0.274 HD
ATOM     27  H11 UNL     1     -10.045  33.949  -6.264  1.00  0.00     0.274 HD
ENDBRANCH  23  24
ENDBRANCH  22  23
ENDBRANCH  21  22
ENDBRANCH   1  21
BRANCH   8  28
HETATM   28  C16 UNL     1     -10.905  27.711  -4.176  1.00  0.00     0.137 C 
HETATM   29  C17 UNL     1     -12.402  27.834  -4.327  1.00  0.00     0.121 C 
HETATM   30  C18 UNL     1     -12.934  26.449  -4.122  1.00  0.00     0.225 C 
HETATM   31  O3  UNL     1     -14.140  26.159  -4.118  1.00  0.00    -0.273 OA
HETATM   32  N5  UNL     1     -11.819  25.602  -3.945  1.00  0.00    -0.297 N 
HETATM   33  C19 UNL     1     -10.660  26.368  -3.599  1.00  0.00     0.232 C 
ATOM     34  H5  UNL     1     -11.836  24.587  -4.049  1.00  0.00     0.171 HD
HETATM   35  O4  UNL     1      -9.684  25.925  -2.945  1.00  0.00    -0.273 OA
ENDBRANCH   8  28
TORSDOF 15
ENDMDL
