MODEL 1
REMARK VINA RESULT: -6.254290570      0.000      0.000
REMARK  17 active torsions:
REMARK  status: ('A' for Active; 'I' for Inactive)
REMARK    1  A    between atoms: N1_2  and  C2_3 
REMARK    2  A    between atoms: C2_3  and  O1_4 
REMARK    3  A    between atoms: O1_4  and  C3_5 
REMARK       I    between atoms: C3_5  and  N2_7 
REMARK    4  A    between atoms: N2_7  and  C4_9 
REMARK    5  A    between atoms: C4_9  and  C5_10 
REMARK    6  A    between atoms: C4_9  and  C14_23 
REMARK    7  A    between atoms: C5_10  and  C6_11 
REMARK    8  A    between atoms: C6_11  and  C7_12 
REMARK    9  A    between atoms: C8_13  and  C9_14 
REMARK   10  A    between atoms: C9_14  and  C10_15 
REMARK   11  A    between atoms: C11_16  and  C12_17 
REMARK   12  A    between atoms: N4_19  and  C13_21 
REMARK   13  A    between atoms: C14_23  and  C15_24 
REMARK   14  A    between atoms: C15_24  and  N5_25 
REMARK   15  A    between atoms: N5_25  and  N6_27 
REMARK   16  A    between atoms: C16_29  and  N7_30 
REMARK   17  A    between atoms: N7_30  and  N8_32 
ROOT
HETATM    1  C4  UNL     1      -8.608  30.850  -6.020  1.00  0.00     0.088 C 
ENDROOT
BRANCH   1   2
HETATM    2  N2  UNL     1      -9.103  31.778  -7.073  1.00  0.00    -0.332 N 
HETATM    3  C3  UNL     1     -10.273  31.408  -7.760  1.00  0.00     0.362 C 
HETATM    4  O2  UNL     1     -10.941  30.368  -7.561  1.00  0.00    -0.238 OA
ATOM      5  H2  UNL     1      -8.613  32.646  -7.288  1.00  0.00     0.165 HD
BRANCH   3   6
HETATM    6  O1  UNL     1     -10.747  32.257  -8.749  1.00  0.00    -0.276 OA
BRANCH   6   7
HETATM    7  C2  UNL     1      -9.863  32.960  -9.622  1.00  0.00     0.416 C 
BRANCH   7   8
HETATM    8  N1  UNL     1      -9.744  34.338  -9.218  1.00  0.00    -0.046 N 
HETATM    9  C1  UNL     1      -8.411  34.773  -8.901  1.00  0.00     0.275 C 
HETATM   10  C17 UNL     1     -10.623  35.230  -9.953  1.00  0.00     0.267 A 
HETATM   11  C18 UNL     1     -10.865  34.963  -8.536  1.00  0.00     0.267 A 
ENDBRANCH   7   8
ENDBRANCH   6   7
ENDBRANCH   3   6
ENDBRANCH   1   2
BRANCH   1  12
HETATM   12  C5  UNL     1      -7.145  30.775  -6.213  1.00  0.00     0.029 C 
BRANCH  12  13
HETATM   13  C6  UNL     1      -6.588  32.219  -6.133  1.00  0.00     0.029 C 
BRANCH  13  14
HETATM   14  C7  UNL     1      -5.152  32.262  -5.897  1.00  0.00    -0.030 C 
HETATM   15  C8  UNL     1      -4.606  32.406  -4.723  1.00  0.00    -0.027 C 
BRANCH  15  16
HETATM   16  C9  UNL     1      -5.341  32.547  -3.454  1.00  0.00     0.054 C 
BRANCH  16  17
HETATM   17  C10 UNL     1      -5.188  31.257  -2.664  1.00  0.00    -0.020 C 
HETATM   18  C11 UNL     1      -6.115  30.362  -2.772  1.00  0.00     0.041 C 
BRANCH  18  19
HETATM   19  C12 UNL     1      -6.206  29.075  -2.138  1.00  0.00     0.117 C 
HETATM   20  N3  UNL     1      -5.438  28.919  -0.906  1.00  0.00    -0.083 NA
HETATM   21  N4  UNL     1      -6.848  28.046  -2.471  1.00  0.00    -0.323 N 
ATOM     22  H4  UNL     1      -6.757  27.241  -1.853  1.00  0.00     0.169 HD
BRANCH  21  23
HETATM   23  C13 UNL     1      -7.657  27.875  -3.569  1.00  0.00     0.354 C 
HETATM   24  O3  UNL     1      -8.826  27.427  -3.410  1.00  0.00    -0.283 OA
ENDBRANCH  21  23
ENDBRANCH  18  19
ENDBRANCH  16  17
ENDBRANCH  15  16
ENDBRANCH  13  14
ENDBRANCH  12  13
ENDBRANCH   1  12
BRANCH   1  25
HETATM   25  C14 UNL     1      -9.107  31.392  -4.709  1.00  0.00     0.046 C 
BRANCH  25  26
HETATM   26  C15 UNL     1     -10.286  30.715  -4.159  1.00  0.00     0.141 C 
BRANCH  26  27
HETATM   27  N5  UNL     1     -10.633  29.442  -4.713  1.00  0.00    -0.335 N 
ATOM     28  H5  UNL     1      -9.902  28.795  -5.010  1.00  0.00     0.180 HD
BRANCH  27  29
HETATM   29  N6  UNL     1     -11.974  29.095  -4.844  1.00  0.00    -0.299 N 
HETATM   30  C16 UNL     1     -12.556  28.445  -3.910  1.00  0.00     0.212 C 
ATOM     31  H6  UNL     1     -12.490  29.358  -5.683  1.00  0.00     0.187 HD
BRANCH  30  32
HETATM   32  N7  UNL     1     -11.821  28.090  -2.754  1.00  0.00    -0.301 N 
ATOM     33  H7  UNL     1     -11.436  28.812  -2.144  1.00  0.00     0.187 HD
BRANCH  32  34
HETATM   34  N8  UNL     1     -11.630  26.741  -2.461  1.00  0.00    -0.344 N 
ATOM     35  H82 UNL     1     -11.026  26.178  -3.059  1.00  0.00     0.176 HD
ATOM     36  H81 UNL     1     -12.100  26.339  -1.650  1.00  0.00     0.176 HD
ENDBRANCH  32  34
ENDBRANCH  30  32
ENDBRANCH  27  29
ENDBRANCH  26  27
ENDBRANCH  25  26
ENDBRANCH   1  25
TORSDOF 17
ENDMDL
MODEL 2
REMARK VINA RESULT: -6.093633370      3.019      6.025
REMARK  17 active torsions:
REMARK  status: ('A' for Active; 'I' for Inactive)
REMARK    1  A    between atoms: N1_2  and  C2_3 
REMARK    2  A    between atoms: C2_3  and  O1_4 
REMARK    3  A    between atoms: O1_4  and  C3_5 
REMARK       I    between atoms: C3_5  and  N2_7 
REMARK    4  A    between atoms: N2_7  and  C4_9 
REMARK    5  A    between atoms: C4_9  and  C5_10 
REMARK    6  A    between atoms: C4_9  and  C14_23 
REMARK    7  A    between atoms: C5_10  and  C6_11 
REMARK    8  A    between atoms: C6_11  and  C7_12 
REMARK    9  A    between atoms: C8_13  and  C9_14 
REMARK   10  A    between atoms: C9_14  and  C10_15 
REMARK   11  A    between atoms: C11_16  and  C12_17 
REMARK   12  A    between atoms: N4_19  and  C13_21 
REMARK   13  A    between atoms: C14_23  and  C15_24 
REMARK   14  A    between atoms: C15_24  and  N5_25 
REMARK   15  A    between atoms: N5_25  and  N6_27 
REMARK   16  A    between atoms: C16_29  and  N7_30 
REMARK   17  A    between atoms: N7_30  and  N8_32 
ROOT
HETATM    1  C4  UNL     1     -10.580  30.295  -4.791  1.00  0.00     0.088 C 
ENDROOT
BRANCH   1   2
HETATM    2  N2  UNL     1     -12.013  30.410  -4.408  1.00  0.00    -0.332 N 
HETATM    3  C3  UNL     1     -12.545  29.393  -3.595  1.00  0.00     0.362 C 
HETATM    4  O2  UNL     1     -11.920  28.400  -3.160  1.00  0.00    -0.238 OA
ATOM      5  H2  UNL     1     -12.584  31.193  -4.722  1.00  0.00     0.165 HD
BRANCH   3   6
HETATM    6  O1  UNL     1     -13.882  29.479  -3.232  1.00  0.00    -0.276 OA
BRANCH   6   7
HETATM    7  C2  UNL     1     -14.395  28.794  -2.090  1.00  0.00     0.416 C 
BRANCH   7   8
HETATM    8  N1  UNL     1     -15.728  28.310  -2.348  1.00  0.00    -0.046 N 
HETATM    9  C1  UNL     1     -16.028  28.044  -3.728  1.00  0.00     0.275 C 
HETATM   10  C17 UNL     1     -16.215  27.396  -1.329  1.00  0.00     0.267 A 
HETATM   11  C18 UNL     1     -16.804  28.728  -1.465  1.00  0.00     0.267 A 
ENDBRANCH   7   8
ENDBRANCH   6   7
ENDBRANCH   3   6
ENDBRANCH   1   2
BRANCH   1  12
HETATM   12  C5  UNL     1     -10.562  30.299  -6.269  1.00  0.00     0.029 C 
BRANCH  12  13
HETATM   13  C6  UNL     1      -9.399  31.219  -6.720  1.00  0.00     0.029 C 
BRANCH  13  14
HETATM   14  C7  UNL     1      -8.313  30.489  -7.360  1.00  0.00    -0.030 C 
HETATM   15  C8  UNL     1      -7.049  30.748  -7.179  1.00  0.00    -0.027 C 
BRANCH  15  16
HETATM   16  C9  UNL     1      -6.513  31.808  -6.308  1.00  0.00     0.054 C 
BRANCH  16  17
HETATM   17  C10 UNL     1      -6.101  31.180  -4.986  1.00  0.00    -0.020 C 
HETATM   18  C11 UNL     1      -5.467  31.916  -4.133  1.00  0.00     0.041 C 
BRANCH  18  19
HETATM   19  C12 UNL     1      -4.973  31.565  -2.828  1.00  0.00     0.117 C 
HETATM   20  N3  UNL     1      -5.704  30.508  -2.136  1.00  0.00    -0.083 NA
HETATM   21  N4  UNL     1      -4.002  32.024  -2.175  1.00  0.00    -0.323 N 
ATOM     22  H4  UNL     1      -3.843  31.609  -1.257  1.00  0.00     0.169 HD
BRANCH  21  23
HETATM   23  C13 UNL     1      -3.127  33.016  -2.547  1.00  0.00     0.354 C 
HETATM   24  O3  UNL     1      -3.420  34.220  -2.307  1.00  0.00    -0.283 OA
ENDBRANCH  21  23
ENDBRANCH  18  19
ENDBRANCH  16  17
ENDBRANCH  15  16
ENDBRANCH  13  14
ENDBRANCH  12  13
ENDBRANCH   1  12
BRANCH   1  25
HETATM   25  C14 UNL     1      -9.862  31.413  -4.087  1.00  0.00     0.046 C 
BRANCH  25  26
HETATM   26  C15 UNL     1      -9.128  31.024  -2.878  1.00  0.00     0.141 C 
BRANCH  26  27
HETATM   27  N5  UNL     1      -9.116  29.636  -2.534  1.00  0.00    -0.335 N 
ATOM     28  H5  UNL     1      -9.922  29.214  -2.071  1.00  0.00     0.180 HD
BRANCH  27  29
HETATM   29  N6  UNL     1      -7.998  28.865  -2.835  1.00  0.00    -0.299 N 
HETATM   30  C16 UNL     1      -8.141  27.643  -3.179  1.00  0.00     0.212 C 
ATOM     31  H6  UNL     1      -7.065  29.275  -2.781  1.00  0.00     0.187 HD
BRANCH  30  32
HETATM   32  N7  UNL     1      -9.444  27.094  -3.247  1.00  0.00    -0.301 N 
ATOM     33  H7  UNL     1     -10.115  27.437  -3.935  1.00  0.00     0.187 HD
BRANCH  32  34
HETATM   34  N8  UNL     1      -9.798  26.078  -2.361  1.00  0.00    -0.344 N 
ATOM     35  H82 UNL     1      -9.408  26.075  -1.419  1.00  0.00     0.176 HD
ATOM     36  H81 UNL     1     -10.444  25.352  -2.671  1.00  0.00     0.176 HD
ENDBRANCH  32  34
ENDBRANCH  30  32
ENDBRANCH  27  29
ENDBRANCH  26  27
ENDBRANCH  25  26
ENDBRANCH   1  25
TORSDOF 17
ENDMDL
MODEL 3
REMARK VINA RESULT: -5.969006138      2.195      5.060
REMARK  17 active torsions:
REMARK  status: ('A' for Active; 'I' for Inactive)
REMARK    1  A    between atoms: N1_2  and  C2_3 
REMARK    2  A    between atoms: C2_3  and  O1_4 
REMARK    3  A    between atoms: O1_4  and  C3_5 
REMARK       I    between atoms: C3_5  and  N2_7 
REMARK    4  A    between atoms: N2_7  and  C4_9 
REMARK    5  A    between atoms: C4_9  and  C5_10 
REMARK    6  A    between atoms: C4_9  and  C14_23 
REMARK    7  A    between atoms: C5_10  and  C6_11 
REMARK    8  A    between atoms: C6_11  and  C7_12 
REMARK    9  A    between atoms: C8_13  and  C9_14 
REMARK   10  A    between atoms: C9_14  and  C10_15 
REMARK   11  A    between atoms: C11_16  and  C12_17 
REMARK   12  A    between atoms: N4_19  and  C13_21 
REMARK   13  A    between atoms: C14_23  and  C15_24 
REMARK   14  A    between atoms: C15_24  and  N5_25 
REMARK   15  A    between atoms: N5_25  and  N6_27 
REMARK   16  A    between atoms: C16_29  and  N7_30 
REMARK   17  A    between atoms: N7_30  and  N8_32 
ROOT
HETATM    1  C4  UNL     1      -7.328  30.953  -5.953  1.00  0.00     0.088 C 
ENDROOT
BRANCH   1   2
HETATM    2  N2  UNL     1      -8.055  29.941  -5.139  1.00  0.00    -0.332 N 
HETATM    3  C3  UNL     1      -9.326  30.298  -4.654  1.00  0.00     0.362 C 
HETATM    4  O2  UNL     1      -9.904  31.391  -4.849  1.00  0.00    -0.238 OA
ATOM      5  H2  UNL     1      -7.648  29.028  -4.942  1.00  0.00     0.165 HD
BRANCH   3   6
HETATM    6  O1  UNL     1     -10.017  29.370  -3.888  1.00  0.00    -0.276 OA
BRANCH   6   7
HETATM    7  C2  UNL     1     -11.135  28.651  -4.408  1.00  0.00     0.416 C 
BRANCH   7   8
HETATM    8  N1  UNL     1     -11.162  27.310  -3.880  1.00  0.00    -0.046 N 
HETATM    9  C1  UNL     1      -9.950  26.878  -3.237  1.00  0.00     0.275 C 
HETATM   10  C17 UNL     1     -12.441  26.948  -3.296  1.00  0.00     0.267 A 
HETATM   11  C18 UNL     1     -11.995  26.319  -4.538  1.00  0.00     0.267 A 
ENDBRANCH   7   8
ENDBRANCH   6   7
ENDBRANCH   3   6
ENDBRANCH   1   2
BRANCH   1  12
HETATM   12  C5  UNL     1      -6.009  31.110  -5.306  1.00  0.00     0.029 C 
BRANCH  12  13
HETATM   13  C6  UNL     1      -5.489  32.531  -5.641  1.00  0.00     0.029 C 
BRANCH  13  14
HETATM   14  C7  UNL     1      -4.390  32.951  -4.784  1.00  0.00    -0.030 C 
HETATM   15  C8  UNL     1      -4.535  33.646  -3.692  1.00  0.00    -0.027 C 
BRANCH  15  16
HETATM   16  C9  UNL     1      -5.821  34.118  -3.147  1.00  0.00     0.054 C 
BRANCH  16  17
HETATM   17  C10 UNL     1      -6.297  33.118  -2.106  1.00  0.00    -0.020 C 
HETATM   18  C11 UNL     1      -7.395  32.476  -2.335  1.00  0.00     0.041 C 
BRANCH  18  19
HETATM   19  C12 UNL     1      -8.052  31.491  -1.518  1.00  0.00     0.117 C 
HETATM   20  N3  UNL     1      -9.272  31.932  -0.848  1.00  0.00    -0.083 NA
HETATM   21  N4  UNL     1      -7.747  30.293  -1.282  1.00  0.00    -0.323 N 
ATOM     22  H4  UNL     1      -8.377  29.784  -0.663  1.00  0.00     0.169 HD
BRANCH  21  23
HETATM   23  C13 UNL     1      -6.668  29.588  -1.758  1.00  0.00     0.354 C 
HETATM   24  O3  UNL     1      -6.841  28.735  -2.671  1.00  0.00    -0.283 OA
ENDBRANCH  21  23
ENDBRANCH  18  19
ENDBRANCH  16  17
ENDBRANCH  15  16
ENDBRANCH  13  14
ENDBRANCH  12  13
ENDBRANCH   1  12
BRANCH   1  25
HETATM   25  C14 UNL     1      -7.348  30.450  -7.370  1.00  0.00     0.046 C 
BRANCH  25  26
HETATM   26  C15 UNL     1      -8.239  31.177  -8.281  1.00  0.00     0.141 C 
BRANCH  26  27
HETATM   27  N5  UNL     1      -9.648  31.018  -8.089  1.00  0.00    -0.335 N 
ATOM     28  H5  UNL     1     -10.013  30.190  -7.617  1.00  0.00     0.180 HD
BRANCH  27  29
HETATM   29  N6  UNL     1     -10.517  32.000  -8.553  1.00  0.00    -0.299 N 
HETATM   30  C16 UNL     1     -11.642  32.179  -7.974  1.00  0.00     0.212 C 
ATOM     31  H6  UNL     1     -10.257  32.576  -9.354  1.00  0.00     0.187 HD
BRANCH  30  32
HETATM   32  N7  UNL     1     -11.984  31.368  -6.865  1.00  0.00    -0.301 N 
ATOM     33  H7  UNL     1     -11.720  30.383  -6.843  1.00  0.00     0.187 HD
BRANCH  32  34
HETATM   34  N8  UNL     1     -12.686  31.935  -5.803  1.00  0.00    -0.344 N 
ATOM     35  H82 UNL     1     -12.677  32.947  -5.678  1.00  0.00     0.176 HD
ATOM     36  H81 UNL     1     -13.198  31.325  -5.166  1.00  0.00     0.176 HD
ENDBRANCH  32  34
ENDBRANCH  30  32
ENDBRANCH  27  29
ENDBRANCH  26  27
ENDBRANCH  25  26
ENDBRANCH   1  25
TORSDOF 17
ENDMDL
MODEL 4
REMARK VINA RESULT: -5.960326364      3.319      7.381
REMARK  17 active torsions:
REMARK  status: ('A' for Active; 'I' for Inactive)
REMARK    1  A    between atoms: N1_2  and  C2_3 
REMARK    2  A    between atoms: C2_3  and  O1_4 
REMARK    3  A    between atoms: O1_4  and  C3_5 
REMARK       I    between atoms: C3_5  and  N2_7 
REMARK    4  A    between atoms: N2_7  and  C4_9 
REMARK    5  A    between atoms: C4_9  and  C5_10 
REMARK    6  A    between atoms: C4_9  and  C14_23 
REMARK    7  A    between atoms: C5_10  and  C6_11 
REMARK    8  A    between atoms: C6_11  and  C7_12 
REMARK    9  A    between atoms: C8_13  and  C9_14 
REMARK   10  A    between atoms: C9_14  and  C10_15 
REMARK   11  A    between atoms: C11_16  and  C12_17 
REMARK   12  A    between atoms: N4_19  and  C13_21 
REMARK   13  A    between atoms: C14_23  and  C15_24 
REMARK   14  A    between atoms: C15_24  and  N5_25 
REMARK   15  A    between atoms: N5_25  and  N6_27 
REMARK   16  A    between atoms: C16_29  and  N7_30 
REMARK   17  A    between atoms: N7_30  and  N8_32 
ROOT
HETATM    1  C4  UNL     1     -10.936  27.796  -4.083  1.00  0.00     0.088 C 
ENDROOT
BRANCH   1   2
HETATM    2  N2  UNL     1     -12.159  27.861  -3.238  1.00  0.00    -0.332 N 
HETATM    3  C3  UNL     1     -13.204  26.973  -3.549  1.00  0.00     0.362 C 
HETATM    4  O2  UNL     1     -13.196  26.127  -4.472  1.00  0.00    -0.238 OA
ATOM      5  H2  UNL     1     -12.236  28.523  -2.467  1.00  0.00     0.165 HD
BRANCH   3   6
HETATM    6  O1  UNL     1     -14.356  27.022  -2.777  1.00  0.00    -0.276 OA
BRANCH   6   7
HETATM    7  C2  UNL     1     -15.097  28.230  -2.611  1.00  0.00     0.416 C 
BRANCH   7   8
HETATM    8  N1  UNL     1     -15.446  28.423  -1.226  1.00  0.00    -0.046 N 
HETATM    9  C1  UNL     1     -14.397  28.952  -0.397  1.00  0.00     0.275 C 
HETATM   10  C17 UNL     1     -16.805  28.898  -1.036  1.00  0.00     0.267 A 
HETATM   11  C18 UNL     1     -16.435  27.543  -0.627  1.00  0.00     0.267 A 
ENDBRANCH   7   8
ENDBRANCH   6   7
ENDBRANCH   3   6
ENDBRANCH   1   2
BRANCH   1  12
HETATM   12  C5  UNL     1     -10.787  29.144  -4.671  1.00  0.00     0.029 C 
BRANCH  12  13
HETATM   13  C6  UNL     1      -9.733  29.907  -3.829  1.00  0.00     0.029 C 
BRANCH  13  14
HETATM   14  C7  UNL     1      -9.510  31.269  -4.296  1.00  0.00    -0.030 C 
HETATM   15  C8  UNL     1      -8.387  31.697  -4.798  1.00  0.00    -0.027 C 
BRANCH  15  16
HETATM   16  C9  UNL     1      -7.170  30.886  -4.976  1.00  0.00     0.054 C 
BRANCH  16  17
HETATM   17  C10 UNL     1      -6.795  30.899  -6.449  1.00  0.00    -0.020 C 
HETATM   18  C11 UNL     1      -7.564  30.273  -7.279  1.00  0.00     0.041 C 
BRANCH  18  19
HETATM   19  C12 UNL     1      -7.433  30.135  -8.704  1.00  0.00     0.117 C 
HETATM   20  N3  UNL     1      -6.852  28.878  -9.169  1.00  0.00    -0.083 NA
HETATM   21  N4  UNL     1      -7.740  30.927  -9.631  1.00  0.00    -0.323 N 
ATOM     22  H4  UNL     1      -7.550  30.602 -10.579  1.00  0.00     0.169 HD
BRANCH  21  23
HETATM   23  C13 UNL     1      -8.299  32.177  -9.522  1.00  0.00     0.354 C 
HETATM   24  O3  UNL     1      -9.454  32.379  -9.988  1.00  0.00    -0.283 OA
ENDBRANCH  21  23
ENDBRANCH  18  19
ENDBRANCH  16  17
ENDBRANCH  15  16
ENDBRANCH  13  14
ENDBRANCH  12  13
ENDBRANCH   1  12
BRANCH   1  25
HETATM   25  C14 UNL     1      -9.830  27.304  -3.190  1.00  0.00     0.046 C 
BRANCH  25  26
HETATM   26  C15 UNL     1      -9.944  25.905  -2.764  1.00  0.00     0.141 C 
BRANCH  26  27
HETATM   27  N5  UNL     1      -8.829  25.336  -2.071  1.00  0.00    -0.335 N 
ATOM     28  H5  UNL     1      -7.878  25.508  -2.398  1.00  0.00     0.180 HD
BRANCH  27  29
HETATM   29  N6  UNL     1      -9.053  24.545  -0.949  1.00  0.00    -0.299 N 
HETATM   30  C16 UNL     1      -8.165  23.703  -0.577  1.00  0.00     0.212 C 
ATOM     31  H6  UNL     1      -9.922  24.636  -0.424  1.00  0.00     0.187 HD
BRANCH  30  32
HETATM   32  N7  UNL     1      -6.965  23.592  -1.320  1.00  0.00    -0.301 N 
ATOM     33  H7  UNL     1      -6.772  24.234  -2.090  1.00  0.00     0.187 HD
BRANCH  32  34
HETATM   34  N8  UNL     1      -6.051  22.595  -0.985  1.00  0.00    -0.344 N 
ATOM     35  H82 UNL     1      -6.384  21.732  -0.557  1.00  0.00     0.176 HD
ATOM     36  H81 UNL     1      -5.061  22.747  -1.174  1.00  0.00     0.176 HD
ENDBRANCH  32  34
ENDBRANCH  30  32
ENDBRANCH  27  29
ENDBRANCH  26  27
ENDBRANCH  25  26
ENDBRANCH   1  25
TORSDOF 17
ENDMDL
MODEL 5
REMARK VINA RESULT: -5.911442400      3.453      6.141
REMARK  17 active torsions:
REMARK  status: ('A' for Active; 'I' for Inactive)
REMARK    1  A    between atoms: N1_2  and  C2_3 
REMARK    2  A    between atoms: C2_3  and  O1_4 
REMARK    3  A    between atoms: O1_4  and  C3_5 
REMARK       I    between atoms: C3_5  and  N2_7 
REMARK    4  A    between atoms: N2_7  and  C4_9 
REMARK    5  A    between atoms: C4_9  and  C5_10 
REMARK    6  A    between atoms: C4_9  and  C14_23 
REMARK    7  A    between atoms: C5_10  and  C6_11 
REMARK    8  A    between atoms: C6_11  and  C7_12 
REMARK    9  A    between atoms: C8_13  and  C9_14 
REMARK   10  A    between atoms: C9_14  and  C10_15 
REMARK   11  A    between atoms: C11_16  and  C12_17 
REMARK   12  A    between atoms: N4_19  and  C13_21 
REMARK   13  A    between atoms: C14_23  and  C15_24 
REMARK   14  A    between atoms: C15_24  and  N5_25 
REMARK   15  A    between atoms: N5_25  and  N6_27 
REMARK   16  A    between atoms: C16_29  and  N7_30 
REMARK   17  A    between atoms: N7_30  and  N8_32 
ROOT
HETATM    1  C4  UNL     1      -7.756  30.828  -4.877  1.00  0.00     0.088 C 
ENDROOT
BRANCH   1   2
HETATM    2  N2  UNL     1      -8.805  30.184  -4.042  1.00  0.00    -0.332 N 
HETATM    3  C3  UNL     1     -10.093  30.750  -4.076  1.00  0.00     0.362 C 
HETATM    4  O2  UNL     1     -10.436  31.747  -4.751  1.00  0.00    -0.238 OA
ATOM      5  H2  UNL     1      -8.600  29.366  -3.469  1.00  0.00     0.165 HD
BRANCH   3   6
HETATM    6  O1  UNL     1     -11.084  30.168  -3.299  1.00  0.00    -0.276 OA
BRANCH   6   7
HETATM    7  C2  UNL     1     -12.238  29.566  -3.884  1.00  0.00     0.416 C 
BRANCH   7   8
HETATM    8  N1  UNL     1     -12.631  28.398  -3.136  1.00  0.00    -0.046 N 
HETATM    9  C1  UNL     1     -13.403  28.657  -1.952  1.00  0.00     0.275 C 
HETATM   10  C17 UNL     1     -12.985  27.269  -3.978  1.00  0.00     0.267 A 
HETATM   11  C18 UNL     1     -11.769  27.229  -3.167  1.00  0.00     0.267 A 
ENDBRANCH   7   8
ENDBRANCH   6   7
ENDBRANCH   3   6
ENDBRANCH   1   2
BRANCH   1  12
HETATM   12  C5  UNL     1      -6.529  30.816  -4.053  1.00  0.00     0.029 C 
BRANCH  12  13
HETATM   13  C6  UNL     1      -6.920  30.308  -2.641  1.00  0.00     0.029 C 
BRANCH  13  14
HETATM   14  C7  UNL     1      -5.978  29.334  -2.107  1.00  0.00    -0.030 C 
HETATM   15  C8  UNL     1      -4.891  29.645  -1.459  1.00  0.00    -0.027 C 
BRANCH  15  16
HETATM   16  C9  UNL     1      -4.440  31.015  -1.160  1.00  0.00     0.054 C 
BRANCH  16  17
HETATM   17  C10 UNL     1      -3.015  31.172  -1.666  1.00  0.00    -0.020 C 
HETATM   18  C11 UNL     1      -2.050  30.776  -0.902  1.00  0.00     0.041 C 
BRANCH  18  19
HETATM   19  C12 UNL     1      -0.632  30.814  -1.144  1.00  0.00     0.117 C 
HETATM   20  N3  UNL     1      -0.173  31.855  -2.059  1.00  0.00    -0.083 NA
HETATM   21  N4  UNL     1       0.292  30.091  -0.691  1.00  0.00    -0.323 N 
ATOM     22  H4  UNL     1       1.234  30.314  -1.011  1.00  0.00     0.169 HD
BRANCH  21  23
HETATM   23  C13 UNL     1       0.186  29.036   0.183  1.00  0.00     0.354 C 
HETATM   24  O3  UNL     1       0.289  29.248   1.422  1.00  0.00    -0.283 OA
ENDBRANCH  21  23
ENDBRANCH  18  19
ENDBRANCH  16  17
ENDBRANCH  15  16
ENDBRANCH  13  14
ENDBRANCH  12  13
ENDBRANCH   1  12
BRANCH   1  25
HETATM   25  C14 UNL     1      -7.724  30.070  -6.176  1.00  0.00     0.046 C 
BRANCH  25  26
HETATM   26  C15 UNL     1      -8.156  30.828  -7.355  1.00  0.00     0.141 C 
BRANCH  26  27
HETATM   27  N5  UNL     1      -9.550  30.806  -7.677  1.00  0.00    -0.335 N 
ATOM     28  H5  UNL     1     -10.139  30.037  -7.358  1.00  0.00     0.180 HD
BRANCH  27  29
HETATM   29  N6  UNL     1     -10.095  31.842  -8.430  1.00  0.00    -0.299 N 
HETATM   30  C16 UNL     1     -11.303  32.206  -8.229  1.00  0.00     0.212 C 
ATOM     31  H6  UNL     1      -9.531  32.309  -9.140  1.00  0.00     0.187 HD
BRANCH  30  32
HETATM   32  N7  UNL     1     -12.068  31.544  -7.238  1.00  0.00    -0.301 N 
ATOM     33  H7  UNL     1     -12.005  30.532  -7.127  1.00  0.00     0.187 HD
BRANCH  32  34
HETATM   34  N8  UNL     1     -12.907  32.295  -6.417  1.00  0.00    -0.344 N 
ATOM     35  H82 UNL     1     -12.660  32.430  -5.437  1.00  0.00     0.176 HD
ATOM     36  H81 UNL     1     -13.757  32.697  -6.812  1.00  0.00     0.176 HD
ENDBRANCH  32  34
ENDBRANCH  30  32
ENDBRANCH  27  29
ENDBRANCH  26  27
ENDBRANCH  25  26
ENDBRANCH   1  25
TORSDOF 17
ENDMDL
