MODEL 1
REMARK VINA RESULT: -8.252443958      0.000      0.000
REMARK  19 active torsions:
REMARK  status: ('A' for Active; 'I' for Inactive)
REMARK    1  A    between atoms: N1_2  and  C2_5 
REMARK    2  A    between atoms: C3_6  and  O1_7 
REMARK    3  A    between atoms: C6_12  and  O3_13 
REMARK    4  A    between atoms: O3_13  and  C7_14 
REMARK    5  A    between atoms: C8_15  and  N2_16 
REMARK    6  A    between atoms: C10_21  and  C11_22 
REMARK    7  A    between atoms: C11_22  and  N3_23 
REMARK    8  A    between atoms: C12_27  and  O4_28 
REMARK    9  A    between atoms: O4_28  and  C13_29 
REMARK   10  A    between atoms: C13_29  and  C14_30 
REMARK   11  A    between atoms: C14_30  and  O5_31 
REMARK   12  A    between atoms: C14_30  and  C15_33 
REMARK   13  A    between atoms: C15_33  and  N4_34 
REMARK   14  A    between atoms: N4_34  and  C16_37 
REMARK   15  A    between atoms: C16_37  and  C18_39 
REMARK   16  A    between atoms: C18_39  and  C19_40 
REMARK   17  A    between atoms: C19_40  and  N5_41 
REMARK   18  A    between atoms: C20_45  and  N6_46 
REMARK   19  A    between atoms: C21_50  and  O6_51 
ROOT
HETATM    1  C7  UNL     1     -22.267   0.470   3.261  1.00  0.00     0.188 C 
HETATM    2  C8  UNL     1     -21.942  -1.006   3.226  1.00  0.00     0.215 C 
HETATM    3  C9  UNL     1     -22.720  -1.709   4.273  1.00  0.00     0.044 C 
HETATM    4  C10 UNL     1     -22.436  -1.163   5.657  1.00  0.00     0.044 C 
HETATM    5  C12 UNL     1     -22.768   0.303   5.743  1.00  0.00     0.160 C 
HETATM    6  C20 UNL     1     -22.273   1.118   4.574  1.00  0.00     0.243 C 
ENDROOT
BRANCH   5   7
HETATM    7  O4  UNL     1     -24.166   0.366   5.815  1.00  0.00    -0.381 OA
BRANCH   7   8
HETATM    8  C13 UNL     1     -24.603   1.143   6.874  1.00  0.00     0.201 C 
BRANCH   8   9
HETATM    9  C14 UNL     1     -25.734   0.481   7.634  1.00  0.00     0.167 C 
BRANCH   9  10
HETATM   10  O5  UNL     1     -25.384   0.365   9.003  1.00  0.00    -0.392 OA
ATOM     11  H5  UNL     1     -26.164   0.449   9.539  1.00  0.00     0.210 HD
ENDBRANCH   9  10
BRANCH   9  12
HETATM   12  C15 UNL     1     -26.930   1.411   7.620  1.00  0.00     0.266 C 
BRANCH  12  13
HETATM   13  N4  UNL     1     -27.289   1.893   8.930  1.00  0.00    -0.069 N 
ATOM     14  H42 UNL     1     -27.936   1.277   9.425  1.00  0.00     0.277 HD
ATOM     15  H41 UNL     1     -26.526   1.841   9.604  1.00  0.00     0.277 HD
BRANCH  13  16
HETATM   16  C16 UNL     1     -27.808   3.247   8.745  1.00  0.00     0.183 C 
HETATM   17  C17 UNL     1     -27.596   3.623   7.289  1.00  0.00     0.040 C 
BRANCH  16  18
HETATM   18  C18 UNL     1     -27.084   4.213   9.654  1.00  0.00     0.059 C 
BRANCH  18  19
HETATM   19  C19 UNL     1     -25.925   3.446  10.297  1.00  0.00     0.231 C 
BRANCH  19  20
HETATM   20  N5  UNL     1     -24.725   3.668   9.516  1.00  0.00    -0.079 N 
ATOM     21  H53 UNL     1     -24.838   3.389   8.542  1.00  0.00     0.274 HD
ATOM     22  H52 UNL     1     -24.541   4.658   9.360  1.00  0.00     0.274 HD
ATOM     23  H51 UNL     1     -23.944   3.193   9.969  1.00  0.00     0.274 HD
ENDBRANCH  19  20
ENDBRANCH  18  19
ENDBRANCH  16  18
ENDBRANCH  13  16
ENDBRANCH  12  13
ENDBRANCH   9  12
ENDBRANCH   8   9
ENDBRANCH   7   8
ENDBRANCH   5   7
BRANCH   4  24
HETATM   24  C11 UNL     1     -23.167  -1.968   6.705  1.00  0.00     0.236 C 
BRANCH  24  25
HETATM   25  N3  UNL     1     -24.029  -2.920   5.989  1.00  0.00    -0.079 N 
ATOM     26  H33 UNL     1     -24.900  -2.503   5.660  1.00  0.00     0.274 HD
ATOM     27  H32 UNL     1     -23.661  -3.186   5.075  1.00  0.00     0.274 HD
ATOM     28  H31 UNL     1     -24.172  -3.715   6.610  1.00  0.00     0.274 HD
ENDBRANCH  24  25
ENDBRANCH   4  24
BRANCH   6  29
HETATM   29  N6  UNL     1     -23.193   2.284   4.572  1.00  0.00    -0.070 N 
ATOM     30  H63 UNL     1     -22.955   2.954   3.840  1.00  0.00     0.274 HD
ATOM     31  H62 UNL     1     -24.127   2.031   4.249  1.00  0.00     0.274 HD
ATOM     32  H61 UNL     1     -23.216   2.721   5.494  1.00  0.00     0.274 HD
ENDBRANCH   6  29
BRANCH   1  33
HETATM   33  O3  UNL     1     -21.498   1.037   2.277  1.00  0.00    -0.349 OA
BRANCH  33  34
HETATM   34  C6  UNL     1     -20.504   1.892   2.607  1.00  0.00     0.291 C 
HETATM   35  O2  UNL     1     -21.031   3.181   2.381  1.00  0.00    -0.351 OA
HETATM   36  C4  UNL     1     -20.086   4.169   2.525  1.00  0.00     0.151 C 
HETATM   37  C3  UNL     1     -18.924   4.033   1.580  1.00  0.00     0.180 C 
HETATM   38  C5  UNL     1     -20.746   5.498   2.246  1.00  0.00     0.042 C 
HETATM   39  C2  UNL     1     -19.072   2.799   0.764  1.00  0.00     0.249 C 
HETATM   40  C21 UNL     1     -19.316   1.633   1.718  1.00  0.00     0.206 C 
BRANCH  37  41
HETATM   41  O1  UNL     1     -18.778   5.153   0.764  1.00  0.00    -0.391 OA
ATOM     42  H1  UNL     1     -18.702   5.944   1.284  1.00  0.00     0.210 HD
ENDBRANCH  37  41
BRANCH  39  43
HETATM   43  N1  UNL     1     -20.108   2.836  -0.212  1.00  0.00    -0.070 N 
HETATM   44  C1  UNL     1     -19.637   2.958  -1.559  1.00  0.00     0.267 C 
ATOM     45  H12 UNL     1     -20.775   3.578   0.002  1.00  0.00     0.277 HD
ATOM     46  H11 UNL     1     -20.719   2.024  -0.118  1.00  0.00     0.277 HD
ENDBRANCH  39  43
BRANCH  40  47
HETATM   47  O6  UNL     1     -19.450   0.497   0.918  1.00  0.00    -0.388 OA
ATOM     48  H6  UNL     1     -20.214   0.646   0.374  1.00  0.00     0.210 HD
ENDBRANCH  40  47
ENDBRANCH  33  34
ENDBRANCH   1  33
BRANCH   2  49
HETATM   49  N2  UNL     1     -20.529  -1.269   3.248  1.00  0.00    -0.072 N 
ATOM     50  H23 UNL     1     -20.279  -1.971   2.552  1.00  0.00     0.274 HD
ATOM     51  H22 UNL     1     -20.005  -0.476   2.880  1.00  0.00     0.274 HD
ATOM     52  H21 UNL     1     -20.189  -1.534   4.172  1.00  0.00     0.274 HD
ENDBRANCH   2  49
TORSDOF 19
ENDMDL
MODEL 2
REMARK VINA RESULT: -7.494852960      1.211      2.065
REMARK  19 active torsions:
REMARK  status: ('A' for Active; 'I' for Inactive)
REMARK    1  A    between atoms: N1_2  and  C2_5 
REMARK    2  A    between atoms: C3_6  and  O1_7 
REMARK    3  A    between atoms: C6_12  and  O3_13 
REMARK    4  A    between atoms: O3_13  and  C7_14 
REMARK    5  A    between atoms: C8_15  and  N2_16 
REMARK    6  A    between atoms: C10_21  and  C11_22 
REMARK    7  A    between atoms: C11_22  and  N3_23 
REMARK    8  A    between atoms: C12_27  and  O4_28 
REMARK    9  A    between atoms: O4_28  and  C13_29 
REMARK   10  A    between atoms: C13_29  and  C14_30 
REMARK   11  A    between atoms: C14_30  and  O5_31 
REMARK   12  A    between atoms: C14_30  and  C15_33 
REMARK   13  A    between atoms: C15_33  and  N4_34 
REMARK   14  A    between atoms: N4_34  and  C16_37 
REMARK   15  A    between atoms: C16_37  and  C18_39 
REMARK   16  A    between atoms: C18_39  and  C19_40 
REMARK   17  A    between atoms: C19_40  and  N5_41 
REMARK   18  A    between atoms: C20_45  and  N6_46 
REMARK   19  A    between atoms: C21_50  and  O6_51 
ROOT
HETATM    1  C7  UNL     1     -22.113   0.630   3.258  1.00  0.00     0.188 C 
HETATM    2  C8  UNL     1     -21.811  -0.850   3.209  1.00  0.00     0.215 C 
HETATM    3  C9  UNL     1     -22.648  -1.559   4.205  1.00  0.00     0.044 C 
HETATM    4  C10 UNL     1     -22.420  -1.044   5.610  1.00  0.00     0.044 C 
HETATM    5  C12 UNL     1     -22.732   0.426   5.710  1.00  0.00     0.160 C 
HETATM    6  C20 UNL     1     -22.170   1.254   4.582  1.00  0.00     0.243 C 
ENDROOT
BRANCH   5   7
HETATM    7  O4  UNL     1     -24.130   0.511   5.719  1.00  0.00    -0.381 OA
BRANCH   7   8
HETATM    8  C13 UNL     1     -24.604   1.270   6.775  1.00  0.00     0.201 C 
BRANCH   8   9
HETATM    9  C14 UNL     1     -25.693   0.553   7.545  1.00  0.00     0.167 C 
BRANCH   9  10
HETATM   10  O5  UNL     1     -25.326   0.453   8.909  1.00  0.00    -0.392 OA
ATOM     11  H5  UNL     1     -25.947  -0.102   9.367  1.00  0.00     0.210 HD
ENDBRANCH   9  10
BRANCH   9  12
HETATM   12  C15 UNL     1     -26.934   1.425   7.544  1.00  0.00     0.266 C 
BRANCH  12  13
HETATM   13  N4  UNL     1     -27.295   1.898   8.856  1.00  0.00    -0.069 N 
ATOM     14  H42 UNL     1     -27.938   1.277   9.348  1.00  0.00     0.277 HD
ATOM     15  H41 UNL     1     -26.531   1.847   9.529  1.00  0.00     0.277 HD
BRANCH  13  16
HETATM   16  C16 UNL     1     -27.821   3.251   8.677  1.00  0.00     0.183 C 
HETATM   17  C17 UNL     1     -27.580   3.648   7.232  1.00  0.00     0.040 C 
BRANCH  16  18
HETATM   18  C18 UNL     1     -27.125   4.210   9.615  1.00  0.00     0.059 C 
BRANCH  18  19
HETATM   19  C19 UNL     1     -25.979   3.442  10.279  1.00  0.00     0.231 C 
BRANCH  19  20
HETATM   20  N5  UNL     1     -24.764   3.668   9.524  1.00  0.00    -0.079 N 
ATOM     21  H53 UNL     1     -24.753   4.581   9.068  1.00  0.00     0.274 HD
ATOM     22  H52 UNL     1     -23.952   3.801  10.126  1.00  0.00     0.274 HD
ATOM     23  H51 UNL     1     -24.638   2.901   8.863  1.00  0.00     0.274 HD
ENDBRANCH  19  20
ENDBRANCH  18  19
ENDBRANCH  16  18
ENDBRANCH  13  16
ENDBRANCH  12  13
ENDBRANCH   9  12
ENDBRANCH   8   9
ENDBRANCH   7   8
ENDBRANCH   5   7
BRANCH   4  24
HETATM   24  C11 UNL     1     -23.213  -1.856   6.608  1.00  0.00     0.236 C 
BRANCH  24  25
HETATM   25  N3  UNL     1     -23.739  -3.024   5.886  1.00  0.00    -0.079 N 
ATOM     26  H33 UNL     1     -23.598  -2.969   4.877  1.00  0.00     0.274 HD
ATOM     27  H32 UNL     1     -23.196  -3.873   6.047  1.00  0.00     0.274 HD
ATOM     28  H31 UNL     1     -24.719  -3.120   6.151  1.00  0.00     0.274 HD
ENDBRANCH  24  25
ENDBRANCH   4  24
BRANCH   6  29
HETATM   29  N6  UNL     1     -23.069   2.436   4.560  1.00  0.00    -0.070 N 
ATOM     30  H63 UNL     1     -23.794   2.374   5.275  1.00  0.00     0.274 HD
ATOM     31  H62 UNL     1     -22.598   3.277   4.894  1.00  0.00     0.274 HD
ATOM     32  H61 UNL     1     -23.463   2.567   3.628  1.00  0.00     0.274 HD
ENDBRANCH   6  29
BRANCH   1  33
HETATM   33  O3  UNL     1     -21.290   1.202   2.322  1.00  0.00    -0.349 OA
BRANCH  33  34
HETATM   34  C6  UNL     1     -21.809   1.675   1.166  1.00  0.00     0.291 C 
HETATM   35  O2  UNL     1     -21.086   1.032   0.141  1.00  0.00    -0.351 OA
HETATM   36  C4  UNL     1     -21.392   1.521  -1.107  1.00  0.00     0.151 C 
HETATM   37  C3  UNL     1     -21.103   2.989  -1.265  1.00  0.00     0.180 C 
HETATM   38  C5  UNL     1     -20.556   0.781  -2.123  1.00  0.00     0.042 C 
HETATM   39  C2  UNL     1     -20.613   3.553   0.021  1.00  0.00     0.249 C 
HETATM   40  C21 UNL     1     -21.609   3.167   1.111  1.00  0.00     0.206 C 
BRANCH  37  41
HETATM   41  O1  UNL     1     -20.195   3.236  -2.293  1.00  0.00    -0.391 OA
ATOM     42  H1  UNL     1     -19.811   2.427  -2.607  1.00  0.00     0.210 HD
ENDBRANCH  37  41
BRANCH  39  43
HETATM   43  N1  UNL     1     -19.306   3.141   0.407  1.00  0.00    -0.070 N 
HETATM   44  C1  UNL     1     -18.322   4.179   0.332  1.00  0.00     0.267 C 
ATOM     45  H12 UNL     1     -19.011   2.329  -0.136  1.00  0.00     0.277 HD
ATOM     46  H11 UNL     1     -19.321   2.728   1.339  1.00  0.00     0.277 HD
ENDBRANCH  39  43
BRANCH  40  47
HETATM   47  O6  UNL     1     -21.117   3.712   2.297  1.00  0.00    -0.388 OA
ATOM     48  H6  UNL     1     -20.198   3.899   2.142  1.00  0.00     0.210 HD
ENDBRANCH  40  47
ENDBRANCH  33  34
ENDBRANCH   1  33
BRANCH   2  49
HETATM   49  N2  UNL     1     -20.406  -1.139   3.291  1.00  0.00    -0.072 N 
ATOM     50  H23 UNL     1     -20.081  -1.098   4.257  1.00  0.00     0.274 HD
ATOM     51  H22 UNL     1     -20.223  -2.123   3.096  1.00  0.00     0.274 HD
ATOM     52  H21 UNL     1     -19.841  -0.537   2.691  1.00  0.00     0.274 HD
ENDBRANCH   2  49
TORSDOF 19
ENDMDL
MODEL 3
REMARK VINA RESULT: -7.377939687      1.656      2.054
REMARK  19 active torsions:
REMARK  status: ('A' for Active; 'I' for Inactive)
REMARK    1  A    between atoms: N1_2  and  C2_5 
REMARK    2  A    between atoms: C3_6  and  O1_7 
REMARK    3  A    between atoms: C6_12  and  O3_13 
REMARK    4  A    between atoms: O3_13  and  C7_14 
REMARK    5  A    between atoms: C8_15  and  N2_16 
REMARK    6  A    between atoms: C10_21  and  C11_22 
REMARK    7  A    between atoms: C11_22  and  N3_23 
REMARK    8  A    between atoms: C12_27  and  O4_28 
REMARK    9  A    between atoms: O4_28  and  C13_29 
REMARK   10  A    between atoms: C13_29  and  C14_30 
REMARK   11  A    between atoms: C14_30  and  O5_31 
REMARK   12  A    between atoms: C14_30  and  C15_33 
REMARK   13  A    between atoms: C15_33  and  N4_34 
REMARK   14  A    between atoms: N4_34  and  C16_37 
REMARK   15  A    between atoms: C16_37  and  C18_39 
REMARK   16  A    between atoms: C18_39  and  C19_40 
REMARK   17  A    between atoms: C19_40  and  N5_41 
REMARK   18  A    between atoms: C20_45  and  N6_46 
REMARK   19  A    between atoms: C21_50  and  O6_51 
ROOT
HETATM    1  C7  UNL     1     -21.717   0.986   3.447  1.00  0.00     0.188 C 
HETATM    2  C8  UNL     1     -21.381  -0.480   3.300  1.00  0.00     0.215 C 
HETATM    3  C9  UNL     1     -22.361  -1.290   4.061  1.00  0.00     0.044 C 
HETATM    4  C10 UNL     1     -22.385  -0.923   5.530  1.00  0.00     0.044 C 
HETATM    5  C12 UNL     1     -22.739   0.527   5.723  1.00  0.00     0.160 C 
HETATM    6  C20 UNL     1     -22.011   1.469   4.798  1.00  0.00     0.243 C 
ENDROOT
BRANCH   5   7
HETATM    7  O4  UNL     1     -24.120   0.607   5.502  1.00  0.00    -0.381 OA
BRANCH   7   8
HETATM    8  C13 UNL     1     -24.754   1.421   6.425  1.00  0.00     0.201 C 
BRANCH   8   9
HETATM    9  C14 UNL     1     -25.669   0.633   7.341  1.00  0.00     0.167 C 
BRANCH   9  10
HETATM   10  O5  UNL     1     -25.106   0.571   8.639  1.00  0.00    -0.392 OA
ATOM     11  H5  UNL     1     -24.651   1.383   8.830  1.00  0.00     0.210 HD
ENDBRANCH   9  10
BRANCH   9  12
HETATM   12  C15 UNL     1     -26.957   1.414   7.517  1.00  0.00     0.266 C 
BRANCH  12  13
HETATM   13  N4  UNL     1     -27.170   1.856   8.872  1.00  0.00    -0.069 N 
ATOM     14  H42 UNL     1     -27.704   1.194   9.435  1.00  0.00     0.277 HD
ATOM     15  H41 UNL     1     -26.322   1.848   9.438  1.00  0.00     0.277 HD
BRANCH  13  16
HETATM   16  C16 UNL     1     -27.795   3.175   8.782  1.00  0.00     0.183 C 
HETATM   17  C17 UNL     1     -27.652   3.652   7.348  1.00  0.00     0.040 C 
BRANCH  16  18
HETATM   18  C18 UNL     1     -27.121   4.138   9.732  1.00  0.00     0.059 C 
BRANCH  18  19
HETATM   19  C19 UNL     1     -25.900   3.420  10.313  1.00  0.00     0.231 C 
BRANCH  19  20
HETATM   20  N5  UNL     1     -24.746   3.716   9.488  1.00  0.00    -0.079 N 
ATOM     21  H53 UNL     1     -23.997   3.035   9.608  1.00  0.00     0.274 HD
ATOM     22  H52 UNL     1     -24.925   3.558   8.497  1.00  0.00     0.274 HD
ATOM     23  H51 UNL     1     -24.440   4.670   9.681  1.00  0.00     0.274 HD
ENDBRANCH  19  20
ENDBRANCH  18  19
ENDBRANCH  16  18
ENDBRANCH  13  16
ENDBRANCH  12  13
ENDBRANCH   9  12
ENDBRANCH   8   9
ENDBRANCH   7   8
ENDBRANCH   5   7
BRANCH   4  24
HETATM   24  C11 UNL     1     -23.318  -1.836   6.290  1.00  0.00     0.236 C 
BRANCH  24  25
HETATM   25  N3  UNL     1     -23.575  -2.999   5.427  1.00  0.00    -0.079 N 
ATOM     26  H33 UNL     1     -23.623  -2.760   4.436  1.00  0.00     0.274 HD
ATOM     27  H32 UNL     1     -22.782  -3.638   5.368  1.00  0.00     0.274 HD
ATOM     28  H31 UNL     1     -24.424  -3.444   5.775  1.00  0.00     0.274 HD
ENDBRANCH  24  25
ENDBRANCH   4  24
BRANCH   6  29
HETATM   29  N6  UNL     1     -22.917   2.644   4.743  1.00  0.00    -0.070 N 
ATOM     30  H63 UNL     1     -23.856   2.415   5.069  1.00  0.00     0.274 HD
ATOM     31  H62 UNL     1     -22.678   3.342   5.448  1.00  0.00     0.274 HD
ATOM     32  H61 UNL     1     -22.928   3.043   3.804  1.00  0.00     0.274 HD
ENDBRANCH   6  29
BRANCH   1  33
HETATM   33  O3  UNL     1     -20.760   1.654   2.728  1.00  0.00    -0.349 OA
BRANCH  33  34
HETATM   34  C6  UNL     1     -21.123   2.443   1.691  1.00  0.00     0.291 C 
HETATM   35  O2  UNL     1     -22.335   1.900   1.216  1.00  0.00    -0.351 OA
HETATM   36  C4  UNL     1     -22.762   2.501   0.056  1.00  0.00     0.151 C 
HETATM   37  C3  UNL     1     -21.788   2.376  -1.083  1.00  0.00     0.180 C 
HETATM   38  C5  UNL     1     -24.050   1.838  -0.373  1.00  0.00     0.042 C 
HETATM   39  C2  UNL     1     -20.558   1.675  -0.625  1.00  0.00     0.249 C 
HETATM   40  C21 UNL     1     -20.055   2.384   0.629  1.00  0.00     0.206 C 
BRANCH  37  41
HETATM   41  O1  UNL     1     -22.347   1.728  -2.183  1.00  0.00    -0.391 OA
ATOM     42  H1  UNL     1     -22.434   0.797  -2.019  1.00  0.00     0.210 HD
ENDBRANCH  37  41
BRANCH  39  43
HETATM   43  N1  UNL     1     -20.715   0.286  -0.354  1.00  0.00    -0.070 N 
HETATM   44  C1  UNL     1     -20.093  -0.570  -1.318  1.00  0.00     0.267 C 
ATOM     45  H12 UNL     1     -21.702   0.051  -0.249  1.00  0.00     0.277 HD
ATOM     46  H11 UNL     1     -20.385   0.066   0.586  1.00  0.00     0.277 HD
ENDBRANCH  39  43
BRANCH  40  47
HETATM   47  O6  UNL     1     -18.905   1.701   1.027  1.00  0.00    -0.388 OA
ATOM     48  H6  UNL     1     -18.750   1.037   0.366  1.00  0.00     0.210 HD
ENDBRANCH  40  47
ENDBRANCH  33  34
ENDBRANCH   1  33
BRANCH   2  49
HETATM   49  N2  UNL     1     -20.005  -0.771   3.591  1.00  0.00    -0.072 N 
ATOM     50  H23 UNL     1     -19.633  -1.464   2.942  1.00  0.00     0.274 HD
ATOM     51  H22 UNL     1     -19.406   0.019   3.351  1.00  0.00     0.274 HD
ATOM     52  H21 UNL     1     -19.855  -1.061   4.558  1.00  0.00     0.274 HD
ENDBRANCH   2  49
TORSDOF 19
ENDMDL
MODEL 4
REMARK VINA RESULT: -7.292399659      1.989      2.660
REMARK  19 active torsions:
REMARK  status: ('A' for Active; 'I' for Inactive)
REMARK    1  A    between atoms: N1_2  and  C2_5 
REMARK    2  A    between atoms: C3_6  and  O1_7 
REMARK    3  A    between atoms: C6_12  and  O3_13 
REMARK    4  A    between atoms: O3_13  and  C7_14 
REMARK    5  A    between atoms: C8_15  and  N2_16 
REMARK    6  A    between atoms: C10_21  and  C11_22 
REMARK    7  A    between atoms: C11_22  and  N3_23 
REMARK    8  A    between atoms: C12_27  and  O4_28 
REMARK    9  A    between atoms: O4_28  and  C13_29 
REMARK   10  A    between atoms: C13_29  and  C14_30 
REMARK   11  A    between atoms: C14_30  and  O5_31 
REMARK   12  A    between atoms: C14_30  and  C15_33 
REMARK   13  A    between atoms: C15_33  and  N4_34 
REMARK   14  A    between atoms: N4_34  and  C16_37 
REMARK   15  A    between atoms: C16_37  and  C18_39 
REMARK   16  A    between atoms: C18_39  and  C19_40 
REMARK   17  A    between atoms: C19_40  and  N5_41 
REMARK   18  A    between atoms: C20_45  and  N6_46 
REMARK   19  A    between atoms: C21_50  and  O6_51 
ROOT
HETATM    1  C7  UNL     1     -21.652   0.927   3.424  1.00  0.00     0.188 C 
HETATM    2  C8  UNL     1     -21.378  -0.557   3.332  1.00  0.00     0.215 C 
HETATM    3  C9  UNL     1     -22.422  -1.298   4.077  1.00  0.00     0.044 C 
HETATM    4  C10 UNL     1     -22.483  -0.886   5.534  1.00  0.00     0.044 C 
HETATM    5  C12 UNL     1     -22.776   0.584   5.672  1.00  0.00     0.160 C 
HETATM    6  C20 UNL     1     -21.972   1.464   4.748  1.00  0.00     0.243 C 
ENDROOT
BRANCH   5   7
HETATM    7  O4  UNL     1     -24.143   0.720   5.396  1.00  0.00    -0.381 OA
BRANCH   7   8
HETATM    8  C13 UNL     1     -24.764   1.621   6.243  1.00  0.00     0.201 C 
BRANCH   8   9
HETATM    9  C14 UNL     1     -24.177   1.583   7.639  1.00  0.00     0.167 C 
BRANCH   9  10
HETATM   10  O5  UNL     1     -23.441   2.769   7.880  1.00  0.00    -0.392 OA
ATOM     11  H5  UNL     1     -23.942   3.348   8.442  1.00  0.00     0.210 HD
ENDBRANCH   9  10
BRANCH   9  12
HETATM   12  C15 UNL     1     -25.317   1.627   8.639  1.00  0.00     0.266 C 
BRANCH  12  13
HETATM   13  N4  UNL     1     -25.379   2.867   9.372  1.00  0.00    -0.069 N 
ATOM     14  H42 UNL     1     -25.304   2.744  10.382  1.00  0.00     0.277 HD
ATOM     15  H41 UNL     1     -24.550   3.449   9.254  1.00  0.00     0.277 HD
BRANCH  13  16
HETATM   16  C16 UNL     1     -26.615   3.529   8.959  1.00  0.00     0.183 C 
HETATM   17  C17 UNL     1     -27.195   4.220  10.180  1.00  0.00     0.040 C 
BRANCH  16  18
HETATM   18  C18 UNL     1     -27.592   2.515   8.408  1.00  0.00     0.059 C 
BRANCH  18  19
HETATM   19  C19 UNL     1     -28.271   3.157   7.195  1.00  0.00     0.231 C 
BRANCH  19  20
HETATM   20  N5  UNL     1     -27.340   4.071   6.566  1.00  0.00    -0.079 N 
ATOM     21  H53 UNL     1     -27.457   5.031   6.892  1.00  0.00     0.274 HD
ATOM     22  H52 UNL     1     -26.382   3.930   6.883  1.00  0.00     0.274 HD
ATOM     23  H51 UNL     1     -27.432   3.991   5.553  1.00  0.00     0.274 HD
ENDBRANCH  19  20
ENDBRANCH  18  19
ENDBRANCH  16  18
ENDBRANCH  13  16
ENDBRANCH  12  13
ENDBRANCH   9  12
ENDBRANCH   8   9
ENDBRANCH   7   8
ENDBRANCH   5   7
BRANCH   4  24
HETATM   24  C11 UNL     1     -23.484  -1.733   6.283  1.00  0.00     0.236 C 
BRANCH  24  25
HETATM   25  N3  UNL     1     -23.499  -3.052   5.635  1.00  0.00    -0.079 N 
ATOM     26  H33 UNL     1     -24.292  -3.182   5.006  1.00  0.00     0.274 HD
ATOM     27  H32 UNL     1     -22.762  -3.166   4.938  1.00  0.00     0.274 HD
ATOM     28  H31 UNL     1     -23.458  -3.749   6.378  1.00  0.00     0.274 HD
ENDBRANCH  24  25
ENDBRANCH   4  24
BRANCH   6  29
HETATM   29  N6  UNL     1     -22.820   2.676   4.626  1.00  0.00    -0.070 N 
ATOM     30  H63 UNL     1     -22.719   3.119   3.712  1.00  0.00     0.274 HD
ATOM     31  H62 UNL     1     -23.811   2.443   4.572  1.00  0.00     0.274 HD
ATOM     32  H61 UNL     1     -22.624   3.327   5.387  1.00  0.00     0.274 HD
ENDBRANCH   6  29
BRANCH   1  33
HETATM   33  O3  UNL     1     -20.638   1.529   2.723  1.00  0.00    -0.349 OA
BRANCH  33  34
HETATM   34  C6  UNL     1     -20.907   2.165   1.560  1.00  0.00     0.291 C 
HETATM   35  O2  UNL     1     -22.283   1.956   1.330  1.00  0.00    -0.351 OA
HETATM   36  C4  UNL     1     -22.687   2.413   0.099  1.00  0.00     0.151 C 
HETATM   37  C3  UNL     1     -21.979   1.753  -1.052  1.00  0.00     0.180 C 
HETATM   38  C5  UNL     1     -24.162   2.127  -0.051  1.00  0.00     0.042 C 
HETATM   39  C2  UNL     1     -20.954   0.803  -0.541  1.00  0.00     0.249 C 
HETATM   40  C21 UNL     1     -20.079   1.552   0.460  1.00  0.00     0.206 C 
BRANCH  37  41
HETATM   41  O1  UNL     1     -22.865   1.111  -1.914  1.00  0.00    -0.391 OA
ATOM     42  H1  UNL     1     -23.117   0.263  -1.570  1.00  0.00     0.210 HD
ENDBRANCH  37  41
BRANCH  39  43
HETATM   43  N1  UNL     1     -21.469  -0.376   0.068  1.00  0.00    -0.070 N 
HETATM   44  C1  UNL     1     -21.262  -1.567  -0.699  1.00  0.00     0.267 C 
ATOM     45  H12 UNL     1     -22.458  -0.261   0.292  1.00  0.00     0.277 HD
ATOM     46  H11 UNL     1     -21.092  -0.486   1.010  1.00  0.00     0.277 HD
ENDBRANCH  39  43
BRANCH  40  47
HETATM   47  O6  UNL     1     -19.134   0.632   0.915  1.00  0.00    -0.388 OA
ATOM     48  H6  UNL     1     -18.292   0.942   0.604  1.00  0.00     0.210 HD
ENDBRANCH  40  47
ENDBRANCH  33  34
ENDBRANCH   1  33
BRANCH   2  49
HETATM   49  N2  UNL     1     -20.028  -0.901   3.683  1.00  0.00    -0.072 N 
ATOM     50  H23 UNL     1     -19.862  -0.751   4.678  1.00  0.00     0.274 HD
ATOM     51  H22 UNL     1     -19.887  -1.910   3.641  1.00  0.00     0.274 HD
ATOM     52  H21 UNL     1     -19.334  -0.411   3.119  1.00  0.00     0.274 HD
ENDBRANCH   2  49
TORSDOF 19
ENDMDL
MODEL 5
REMARK VINA RESULT: -7.278709406      1.519      2.520
REMARK  19 active torsions:
REMARK  status: ('A' for Active; 'I' for Inactive)
REMARK    1  A    between atoms: N1_2  and  C2_5 
REMARK    2  A    between atoms: C3_6  and  O1_7 
REMARK    3  A    between atoms: C6_12  and  O3_13 
REMARK    4  A    between atoms: O3_13  and  C7_14 
REMARK    5  A    between atoms: C8_15  and  N2_16 
REMARK    6  A    between atoms: C10_21  and  C11_22 
REMARK    7  A    between atoms: C11_22  and  N3_23 
REMARK    8  A    between atoms: C12_27  and  O4_28 
REMARK    9  A    between atoms: O4_28  and  C13_29 
REMARK   10  A    between atoms: C13_29  and  C14_30 
REMARK   11  A    between atoms: C14_30  and  O5_31 
REMARK   12  A    between atoms: C14_30  and  C15_33 
REMARK   13  A    between atoms: C15_33  and  N4_34 
REMARK   14  A    between atoms: N4_34  and  C16_37 
REMARK   15  A    between atoms: C16_37  and  C18_39 
REMARK   16  A    between atoms: C18_39  and  C19_40 
REMARK   17  A    between atoms: C19_40  and  N5_41 
REMARK   18  A    between atoms: C20_45  and  N6_46 
REMARK   19  A    between atoms: C21_50  and  O6_51 
ROOT
HETATM    1  C7  UNL     1     -22.190   0.580   3.279  1.00  0.00     0.188 C 
HETATM    2  C8  UNL     1     -21.826  -0.887   3.276  1.00  0.00     0.215 C 
HETATM    3  C9  UNL     1     -22.674  -1.609   4.254  1.00  0.00     0.044 C 
HETATM    4  C10 UNL     1     -22.524  -1.056   5.656  1.00  0.00     0.044 C 
HETATM    5  C12 UNL     1     -22.899   0.401   5.709  1.00  0.00     0.160 C 
HETATM    6  C20 UNL     1     -22.326   1.228   4.586  1.00  0.00     0.243 C 
ENDROOT
BRANCH   5   7
HETATM    7  O4  UNL     1     -24.299   0.429   5.661  1.00  0.00    -0.381 OA
BRANCH   7   8
HETATM    8  C13 UNL     1     -24.832   1.462   6.413  1.00  0.00     0.201 C 
BRANCH   8   9
HETATM    9  C14 UNL     1     -24.198   1.548   7.786  1.00  0.00     0.167 C 
BRANCH   9  10
HETATM   10  O5  UNL     1     -23.439   2.741   7.887  1.00  0.00    -0.392 OA
ATOM     11  H5  UNL     1     -22.630   2.566   8.352  1.00  0.00     0.210 HD
ENDBRANCH   9  10
BRANCH   9  12
HETATM   12  C15 UNL     1     -25.301   1.705   8.813  1.00  0.00     0.266 C 
BRANCH  12  13
HETATM   13  N4  UNL     1     -25.348   3.023   9.397  1.00  0.00    -0.069 N 
ATOM     14  H42 UNL     1     -25.210   3.023  10.408  1.00  0.00     0.277 HD
ATOM     15  H41 UNL     1     -24.542   3.599   9.159  1.00  0.00     0.277 HD
BRANCH  13  16
HETATM   16  C16 UNL     1     -26.623   3.610   8.986  1.00  0.00     0.183 C 
HETATM   17  C17 UNL     1     -27.219   4.304  10.198  1.00  0.00     0.040 C 
BRANCH  16  18
HETATM   18  C18 UNL     1     -27.555   2.533   8.479  1.00  0.00     0.059 C 
BRANCH  18  19
HETATM   19  C19 UNL     1     -28.289   3.108   7.264  1.00  0.00     0.231 C 
BRANCH  19  20
HETATM   20  N5  UNL     1     -27.392   3.993   6.550  1.00  0.00    -0.079 N 
ATOM     21  H53 UNL     1     -27.360   4.927   6.958  1.00  0.00     0.274 HD
ATOM     22  H52 UNL     1     -26.412   3.745   6.685  1.00  0.00     0.274 HD
ATOM     23  H51 UNL     1     -27.658   4.007   5.565  1.00  0.00     0.274 HD
ENDBRANCH  19  20
ENDBRANCH  18  19
ENDBRANCH  16  18
ENDBRANCH  13  16
ENDBRANCH  12  13
ENDBRANCH   9  12
ENDBRANCH   8   9
ENDBRANCH   7   8
ENDBRANCH   5   7
BRANCH   4  24
HETATM   24  C11 UNL     1     -23.322  -1.879   6.639  1.00  0.00     0.236 C 
BRANCH  24  25
HETATM   25  N3  UNL     1     -23.691  -3.126   5.953  1.00  0.00    -0.079 N 
ATOM     26  H33 UNL     1     -22.898  -3.749   5.800  1.00  0.00     0.274 HD
ATOM     27  H32 UNL     1     -24.241  -3.757   6.535  1.00  0.00     0.274 HD
ATOM     28  H31 UNL     1     -24.166  -2.860   5.090  1.00  0.00     0.274 HD
ENDBRANCH  24  25
ENDBRANCH   4  24
BRANCH   6  29
HETATM   29  N6  UNL     1     -23.271   2.371   4.502  1.00  0.00    -0.070 N 
ATOM     30  H63 UNL     1     -23.569   2.547   3.542  1.00  0.00     0.274 HD
ATOM     31  H62 UNL     1     -24.181   2.142   4.902  1.00  0.00     0.274 HD
ATOM     32  H61 UNL     1     -22.865   3.202   4.933  1.00  0.00     0.274 HD
ENDBRANCH   6  29
BRANCH   1  33
HETATM   33  O3  UNL     1     -21.354   1.166   2.364  1.00  0.00    -0.349 OA
BRANCH  33  34
HETATM   34  C6  UNL     1     -21.855   1.641   1.201  1.00  0.00     0.291 C 
HETATM   35  O2  UNL     1     -21.101   1.016   0.187  1.00  0.00    -0.351 OA
HETATM   36  C4  UNL     1     -21.386   1.512  -1.063  1.00  0.00     0.151 C 
HETATM   37  C3  UNL     1     -21.113   2.984  -1.204  1.00  0.00     0.180 C 
HETATM   38  C5  UNL     1     -20.517   0.791  -2.067  1.00  0.00     0.042 C 
HETATM   39  C2  UNL     1     -20.660   3.545   0.097  1.00  0.00     0.249 C 
HETATM   40  C21 UNL     1     -21.674   3.137   1.162  1.00  0.00     0.206 C 
BRANCH  37  41
HETATM   41  O1  UNL     1     -20.187   3.253  -2.210  1.00  0.00    -0.391 OA
ATOM     42  H1  UNL     1     -20.234   4.162  -2.479  1.00  0.00     0.210 HD
ENDBRANCH  37  41
BRANCH  39  43
HETATM   43  N1  UNL     1     -19.356   3.148   0.508  1.00  0.00    -0.070 N 
HETATM   44  C1  UNL     1     -18.373   4.185   0.413  1.00  0.00     0.267 C 
ATOM     45  H12 UNL     1     -19.054   2.320  -0.007  1.00  0.00     0.277 HD
ATOM     46  H11 UNL     1     -19.380   2.763   1.452  1.00  0.00     0.277 HD
ENDBRANCH  39  43
BRANCH  40  47
HETATM   47  O6  UNL     1     -21.215   3.678   2.363  1.00  0.00    -0.388 OA
ATOM     48  H6  UNL     1     -20.989   2.940   2.917  1.00  0.00     0.210 HD
ENDBRANCH  40  47
ENDBRANCH  33  34
ENDBRANCH   1  33
BRANCH   2  49
HETATM   49  N2  UNL     1     -20.415  -1.115   3.421  1.00  0.00    -0.072 N 
ATOM     50  H23 UNL     1     -20.215  -1.632   4.277  1.00  0.00     0.274 HD
ATOM     51  H22 UNL     1     -20.083  -1.793   2.735  1.00  0.00     0.274 HD
ATOM     52  H21 UNL     1     -19.867  -0.255   3.377  1.00  0.00     0.274 HD
ENDBRANCH   2  49
TORSDOF 19
ENDMDL
