MODEL 1
REMARK VINA RESULT: -7.712394303      0.000      0.000
REMARK  18 active torsions:
REMARK  status: ('A' for Active; 'I' for Inactive)
REMARK    1  A    between atoms: C1_4  and  C2_5 
REMARK    2  A    between atoms: C2_5  and  O1_6 
REMARK    3  A    between atoms: O1_6  and  N2_7 
REMARK    4  A    between atoms: N2_7  and  C3_8 
REMARK    5  A    between atoms: C3_8  and  C4_9 
REMARK    6  A    between atoms: C4_9  and  C5_10 
REMARK    7  A    between atoms: C5_10  and  C6_11 
REMARK       I    between atoms: C6_11  and  N3_13 
REMARK    8  A    between atoms: N3_13  and  C7_15 
REMARK    9  A    between atoms: C8_16  and  O3_17 
REMARK   10  A    between atoms: C9_19  and  O4_20 
REMARK   11  A    between atoms: C10_22  and  N4_23 
REMARK   12  A    between atoms: C11_27  and  O5_28 
REMARK   13  A    between atoms: O5_28  and  C12_29 
REMARK   14  A    between atoms: C13_31  and  C14_32 
REMARK   15  A    between atoms: C14_32  and  N5_33 
REMARK   16  A    between atoms: C17_39  and  N6_40 
REMARK   17  A    between atoms: C18_44  and  O7_45 
REMARK   18  A    between atoms: C19_47  and  O8_48 
ROOT
HETATM    1  C7  UNL     1     -22.065   0.082   4.457  1.00  0.00     0.147 C 
HETATM    2  C8  UNL     1     -22.158  -0.690   3.160  1.00  0.00     0.174 C 
HETATM    3  C9  UNL     1     -20.830  -0.679   2.408  1.00  0.00     0.182 C 
HETATM    4  C10 UNL     1     -20.548   0.684   1.878  1.00  0.00     0.246 C 
HETATM    5  C11 UNL     1     -19.625   1.498   2.769  1.00  0.00     0.189 C 
HETATM    6  C18 UNL     1     -20.218   1.757   4.133  1.00  0.00     0.180 C 
HETATM    7  C19 UNL     1     -21.684   1.522   4.250  1.00  0.00     0.174 C 
ENDROOT
BRANCH   5   8
HETATM    8  O5  UNL     1     -19.364   2.740   2.227  1.00  0.00    -0.349 OA
BRANCH   8   9
HETATM    9  C12 UNL     1     -20.220   3.741   2.558  1.00  0.00     0.291 C 
HETATM   10  O6  UNL     1     -19.530   4.953   2.485  1.00  0.00    -0.352 OA
HETATM   11  C13 UNL     1     -20.218   5.995   3.097  1.00  0.00     0.150 C 
HETATM   12  C15 UNL     1     -21.581   6.170   2.506  1.00  0.00     0.036 C 
HETATM   13  C16 UNL     1     -22.348   4.891   2.393  1.00  0.00     0.040 C 
HETATM   14  C17 UNL     1     -21.445   3.872   1.709  1.00  0.00     0.238 C 
BRANCH  11  15
HETATM   15  C14 UNL     1     -19.424   7.264   2.805  1.00  0.00     0.261 C 
BRANCH  15  16
HETATM   16  N5  UNL     1     -18.367   7.422   3.774  1.00  0.00    -0.077 N 
ATOM     17  H53 UNL     1     -17.865   8.300   3.650  1.00  0.00     0.274 HD
ATOM     18  H52 UNL     1     -18.732   7.588   4.711  1.00  0.00     0.274 HD
ATOM     19  H51 UNL     1     -17.741   6.617   3.744  1.00  0.00     0.274 HD
ENDBRANCH  15  16
ENDBRANCH  11  15
BRANCH  14  20
HETATM   20  N6  UNL     1     -21.155   4.399   0.388  1.00  0.00    -0.070 N 
ATOM     21  H63 UNL     1     -20.435   5.121   0.431  1.00  0.00     0.274 HD
ATOM     22  H62 UNL     1     -20.663   3.710  -0.182  1.00  0.00     0.274 HD
ATOM     23  H61 UNL     1     -21.988   4.741  -0.090  1.00  0.00     0.274 HD
ENDBRANCH  14  20
ENDBRANCH   8   9
ENDBRANCH   5   8
BRANCH   4  24
HETATM   24  N4  UNL     1     -19.975   0.525   0.546  1.00  0.00    -0.070 N 
ATOM     25  H43 UNL     1     -19.676  -0.430   0.353  1.00  0.00     0.274 HD
ATOM     26  H42 UNL     1     -20.670   0.599  -0.197  1.00  0.00     0.274 HD
ATOM     27  H41 UNL     1     -19.220   1.205   0.456  1.00  0.00     0.274 HD
ENDBRANCH   4  24
BRANCH   6  28
HETATM   28  O7  UNL     1     -19.567   0.982   5.112  1.00  0.00    -0.390 OA
ATOM     29  H7  UNL     1     -19.949   1.135   5.967  1.00  0.00     0.210 HD
ENDBRANCH   6  28
BRANCH   3  30
HETATM   30  O4  UNL     1     -19.877  -1.197   3.246  1.00  0.00    -0.391 OA
ATOM     31  H4  UNL     1     -19.162  -1.511   2.706  1.00  0.00     0.210 HD
ENDBRANCH   3  30
BRANCH   7  32
HETATM   32  O8  UNL     1     -22.089   2.191   5.433  1.00  0.00    -0.391 OA
ATOM     33  H8  UNL     1     -21.450   1.945   6.092  1.00  0.00     0.210 HD
ENDBRANCH   7  32
BRANCH   2  34
HETATM   34  O3  UNL     1     -22.441  -2.014   3.443  1.00  0.00    -0.391 OA
ATOM     35  H3  UNL     1     -22.541  -2.490   2.627  1.00  0.00     0.210 HD
ENDBRANCH   2  34
BRANCH   1  36
HETATM   36  N3  UNL     1     -23.381   0.061   5.057  1.00  0.00    -0.351 N 
HETATM   37  C6  UNL     1     -23.751  -0.867   6.081  1.00  0.00     0.218 C 
HETATM   38  O2  UNL     1     -22.876  -1.677   6.448  1.00  0.00    -0.274 OA
ATOM     39  H3  UNL     1     -24.074   0.737   4.736  1.00  0.00     0.163 HD
BRANCH  37  40
HETATM   40  C5  UNL     1     -25.076  -0.900   6.696  1.00  0.00     0.104 C 
BRANCH  40  41
HETATM   41  C4  UNL     1     -25.564   0.427   7.127  1.00  0.00     0.027 C 
BRANCH  41  42
HETATM   42  C3  UNL     1     -24.702   1.081   8.165  1.00  0.00     0.143 C 
BRANCH  42  43
HETATM   43  N2  UNL     1     -24.419   2.471   7.784  1.00  0.00    -0.101 NA
BRANCH  43  44
HETATM   44  O1  UNL     1     -24.572   3.341   8.765  1.00  0.00    -0.281 OA
BRANCH  44  45
HETATM   45  C2  UNL     1     -25.578   2.993   9.650  1.00  0.00     0.239 C 
BRANCH  45  46
HETATM   46  C1  UNL     1     -26.806   3.822   9.436  1.00  0.00     0.081 C 
HETATM   47  N1  UNL     1     -26.819   4.645   8.465  1.00  0.00    -0.409 N 
ATOM     48  H12 UNL     1     -26.005   4.726   7.856  1.00  0.00     0.155 HD
ATOM     49  H11 UNL     1     -27.656   5.210   8.319  1.00  0.00     0.155 HD
ENDBRANCH  45  46
ENDBRANCH  44  45
ENDBRANCH  43  44
ENDBRANCH  42  43
ENDBRANCH  41  42
ENDBRANCH  40  41
ENDBRANCH  37  40
ENDBRANCH   1  36
TORSDOF 18
ENDMDL
MODEL 2
REMARK VINA RESULT: -7.431495037      3.353      4.754
REMARK  18 active torsions:
REMARK  status: ('A' for Active; 'I' for Inactive)
REMARK    1  A    between atoms: C1_4  and  C2_5 
REMARK    2  A    between atoms: C2_5  and  O1_6 
REMARK    3  A    between atoms: O1_6  and  N2_7 
REMARK    4  A    between atoms: N2_7  and  C3_8 
REMARK    5  A    between atoms: C3_8  and  C4_9 
REMARK    6  A    between atoms: C4_9  and  C5_10 
REMARK    7  A    between atoms: C5_10  and  C6_11 
REMARK       I    between atoms: C6_11  and  N3_13 
REMARK    8  A    between atoms: N3_13  and  C7_15 
REMARK    9  A    between atoms: C8_16  and  O3_17 
REMARK   10  A    between atoms: C9_19  and  O4_20 
REMARK   11  A    between atoms: C10_22  and  N4_23 
REMARK   12  A    between atoms: C11_27  and  O5_28 
REMARK   13  A    between atoms: O5_28  and  C12_29 
REMARK   14  A    between atoms: C13_31  and  C14_32 
REMARK   15  A    between atoms: C14_32  and  N5_33 
REMARK   16  A    between atoms: C17_39  and  N6_40 
REMARK   17  A    between atoms: C18_44  and  O7_45 
REMARK   18  A    between atoms: C19_47  and  O8_48 
ROOT
HETATM    1  C7  UNL     1     -21.037   1.031   2.387  1.00  0.00     0.147 C 
HETATM    2  C8  UNL     1     -19.784   1.492   3.096  1.00  0.00     0.174 C 
HETATM    3  C9  UNL     1     -19.360   2.883   2.630  1.00  0.00     0.182 C 
HETATM    4  C10 UNL     1     -18.858   2.827   1.229  1.00  0.00     0.246 C 
HETATM    5  C11 UNL     1     -19.908   3.207   0.198  1.00  0.00     0.189 C 
HETATM    6  C18 UNL     1     -21.086   2.264   0.196  1.00  0.00     0.180 C 
HETATM    7  C19 UNL     1     -20.870   0.965   0.894  1.00  0.00     0.174 C 
ENDROOT
BRANCH   5   8
HETATM    8  O5  UNL     1     -19.394   3.173  -1.083  1.00  0.00    -0.349 OA
BRANCH   8   9
HETATM    9  C12 UNL     1     -20.291   3.072  -2.096  1.00  0.00     0.291 C 
HETATM   10  O6  UNL     1     -20.440   4.332  -2.681  1.00  0.00    -0.352 OA
HETATM   11  C13 UNL     1     -21.551   4.405  -3.513  1.00  0.00     0.150 C 
HETATM   12  C15 UNL     1     -21.494   3.368  -4.590  1.00  0.00     0.036 C 
HETATM   13  C16 UNL     1     -21.181   1.998  -4.080  1.00  0.00     0.040 C 
HETATM   14  C17 UNL     1     -19.948   2.110  -3.190  1.00  0.00     0.238 C 
BRANCH  11  15
HETATM   15  C14 UNL     1     -21.494   5.771  -4.188  1.00  0.00     0.261 C 
BRANCH  15  16
HETATM   16  N5  UNL     1     -22.023   6.782  -3.306  1.00  0.00    -0.077 N 
ATOM     17  H53 UNL     1     -21.530   6.807  -2.414  1.00  0.00     0.274 HD
ATOM     18  H52 UNL     1     -21.798   7.724  -3.627  1.00  0.00     0.274 HD
ATOM     19  H51 UNL     1     -23.027   6.649  -3.184  1.00  0.00     0.274 HD
ENDBRANCH  15  16
ENDBRANCH  11  15
BRANCH  14  20
HETATM   20  N6  UNL     1     -18.870   2.587  -4.036  1.00  0.00    -0.070 N 
ATOM     21  H63 UNL     1     -19.233   3.119  -4.827  1.00  0.00     0.274 HD
ATOM     22  H62 UNL     1     -18.338   3.325  -3.572  1.00  0.00     0.274 HD
ATOM     23  H61 UNL     1     -18.256   1.836  -4.351  1.00  0.00     0.274 HD
ENDBRANCH  14  20
ENDBRANCH   8   9
ENDBRANCH   5   8
BRANCH   4  24
HETATM   24  N4  UNL     1     -17.702   3.712   1.143  1.00  0.00    -0.070 N 
ATOM     25  H43 UNL     1     -17.326   3.965   2.056  1.00  0.00     0.274 HD
ATOM     26  H42 UNL     1     -16.871   3.246   0.782  1.00  0.00     0.274 HD
ATOM     27  H41 UNL     1     -17.979   4.522   0.588  1.00  0.00     0.274 HD
ENDBRANCH   4  24
BRANCH   6  28
HETATM   28  O7  UNL     1     -22.217   2.884   0.760  1.00  0.00    -0.390 OA
ATOM     29  H7  UNL     1     -22.878   2.238   0.979  1.00  0.00     0.210 HD
ENDBRANCH   6  28
BRANCH   3  30
HETATM   30  O4  UNL     1     -20.415   3.730   2.848  1.00  0.00    -0.391 OA
ATOM     31  H4  UNL     1     -20.866   3.844   2.020  1.00  0.00     0.210 HD
ENDBRANCH   3  30
BRANCH   7  32
HETATM   32  O8  UNL     1     -21.901   0.106   0.438  1.00  0.00    -0.391 OA
ATOM     33  H8  UNL     1     -22.408   0.625  -0.175  1.00  0.00     0.210 HD
ENDBRANCH   7  32
BRANCH   2  34
HETATM   34  O3  UNL     1     -20.043   1.592   4.451  1.00  0.00    -0.391 OA
ATOM     35  H3  UNL     1     -19.345   1.163   4.932  1.00  0.00     0.210 HD
ENDBRANCH   2  34
BRANCH   1  36
HETATM   36  N3  UNL     1     -21.316  -0.310   2.853  1.00  0.00    -0.351 N 
HETATM   37  C6  UNL     1     -22.275  -0.590   3.878  1.00  0.00     0.218 C 
HETATM   38  O2  UNL     1     -22.875   0.387   4.367  1.00  0.00    -0.274 OA
ATOM     39  H3  UNL     1     -20.809  -1.088   2.432  1.00  0.00     0.163 HD
BRANCH  37  40
HETATM   40  C5  UNL     1     -22.567  -1.940   4.358  1.00  0.00     0.104 C 
BRANCH  40  41
HETATM   41  C4  UNL     1     -22.803  -2.014   5.815  1.00  0.00     0.027 C 
BRANCH  41  42
HETATM   42  C3  UNL     1     -24.147  -2.566   6.184  1.00  0.00     0.143 C 
BRANCH  42  43
HETATM   43  N2  UNL     1     -24.923  -1.561   6.919  1.00  0.00    -0.101 NA
BRANCH  43  44
HETATM   44  O1  UNL     1     -24.296  -1.052   7.963  1.00  0.00    -0.281 OA
BRANCH  44  45
HETATM   45  C2  UNL     1     -24.719   0.225   8.284  1.00  0.00     0.239 C 
BRANCH  45  46
HETATM   46  C1  UNL     1     -25.482   0.849   7.158  1.00  0.00     0.081 C 
HETATM   47  N1  UNL     1     -24.828   1.423   6.228  1.00  0.00    -0.409 N 
ATOM     48  H12 UNL     1     -23.809   1.448   6.265  1.00  0.00     0.155 HD
ATOM     49  H11 UNL     1     -25.348   1.848   5.461  1.00  0.00     0.155 HD
ENDBRANCH  45  46
ENDBRANCH  44  45
ENDBRANCH  43  44
ENDBRANCH  42  43
ENDBRANCH  41  42
ENDBRANCH  40  41
ENDBRANCH  37  40
ENDBRANCH   1  36
TORSDOF 18
ENDMDL
MODEL 3
REMARK VINA RESULT: -7.264773692      1.699      2.188
REMARK  18 active torsions:
REMARK  status: ('A' for Active; 'I' for Inactive)
REMARK    1  A    between atoms: C1_4  and  C2_5 
REMARK    2  A    between atoms: C2_5  and  O1_6 
REMARK    3  A    between atoms: O1_6  and  N2_7 
REMARK    4  A    between atoms: N2_7  and  C3_8 
REMARK    5  A    between atoms: C3_8  and  C4_9 
REMARK    6  A    between atoms: C4_9  and  C5_10 
REMARK    7  A    between atoms: C5_10  and  C6_11 
REMARK       I    between atoms: C6_11  and  N3_13 
REMARK    8  A    between atoms: N3_13  and  C7_15 
REMARK    9  A    between atoms: C8_16  and  O3_17 
REMARK   10  A    between atoms: C9_19  and  O4_20 
REMARK   11  A    between atoms: C10_22  and  N4_23 
REMARK   12  A    between atoms: C11_27  and  O5_28 
REMARK   13  A    between atoms: O5_28  and  C12_29 
REMARK   14  A    between atoms: C13_31  and  C14_32 
REMARK   15  A    between atoms: C14_32  and  N5_33 
REMARK   16  A    between atoms: C17_39  and  N6_40 
REMARK   17  A    between atoms: C18_44  and  O7_45 
REMARK   18  A    between atoms: C19_47  and  O8_48 
ROOT
HETATM    1  C7  UNL     1     -21.194   0.011   2.661  1.00  0.00     0.147 C 
HETATM    2  C8  UNL     1     -22.004   0.032   1.384  1.00  0.00     0.174 C 
HETATM    3  C9  UNL     1     -21.168   0.518   0.202  1.00  0.00     0.182 C 
HETATM    4  C10 UNL     1     -20.870   1.970   0.343  1.00  0.00     0.246 C 
HETATM    5  C11 UNL     1     -19.503   2.249   0.946  1.00  0.00     0.189 C 
HETATM    6  C18 UNL     1     -19.371   1.716   2.352  1.00  0.00     0.180 C 
HETATM    7  C19 UNL     1     -20.652   1.365   3.028  1.00  0.00     0.174 C 
ENDROOT
BRANCH   5   8
HETATM    8  O5  UNL     1     -19.254   3.604   1.030  1.00  0.00    -0.349 OA
BRANCH   8   9
HETATM    9  C12 UNL     1     -19.867   4.275   2.038  1.00  0.00     0.291 C 
HETATM   10  O6  UNL     1     -19.355   5.573   2.079  1.00  0.00    -0.352 OA
HETATM   11  C13 UNL     1     -19.684   6.238   3.255  1.00  0.00     0.150 C 
HETATM   12  C15 UNL     1     -21.166   6.290   3.456  1.00  0.00     0.036 C 
HETATM   13  C16 UNL     1     -21.836   4.965   3.275  1.00  0.00     0.040 C 
HETATM   14  C17 UNL     1     -21.357   4.385   1.949  1.00  0.00     0.238 C 
BRANCH  11  15
HETATM   15  C14 UNL     1     -19.194   7.673   3.089  1.00  0.00     0.261 C 
BRANCH  15  16
HETATM   16  N5  UNL     1     -17.849   7.799   3.595  1.00  0.00    -0.077 N 
ATOM     17  H53 UNL     1     -17.820   8.309   4.477  1.00  0.00     0.274 HD
ATOM     18  H52 UNL     1     -17.481   6.908   3.925  1.00  0.00     0.274 HD
ATOM     19  H51 UNL     1     -17.247   8.223   2.888  1.00  0.00     0.274 HD
ENDBRANCH  15  16
ENDBRANCH  11  15
BRANCH  14  20
HETATM   20  N6  UNL     1     -21.788   5.308   0.915  1.00  0.00    -0.070 N 
ATOM     21  H63 UNL     1     -21.176   6.123   0.873  1.00  0.00     0.274 HD
ATOM     22  H62 UNL     1     -21.614   4.924  -0.014  1.00  0.00     0.274 HD
ATOM     23  H61 UNL     1     -22.763   5.588   1.020  1.00  0.00     0.274 HD
ENDBRANCH  14  20
ENDBRANCH   8   9
ENDBRANCH   5   8
BRANCH   4  24
HETATM   24  N4  UNL     1     -20.984   2.570  -0.981  1.00  0.00    -0.070 N 
ATOM     25  H43 UNL     1     -21.685   3.310  -1.024  1.00  0.00     0.274 HD
ATOM     26  H42 UNL     1     -20.176   3.139  -1.230  1.00  0.00     0.274 HD
ATOM     27  H41 UNL     1     -21.161   1.815  -1.644  1.00  0.00     0.274 HD
ENDBRANCH   4  24
BRANCH   6  28
HETATM   28  O7  UNL     1     -18.535   0.583   2.377  1.00  0.00    -0.390 OA
ATOM     29  H7  UNL     1     -18.932  -0.115   2.883  1.00  0.00     0.210 HD
ENDBRANCH   6  28
BRANCH   3  30
HETATM   30  O4  UNL     1     -20.076  -0.304   0.104  1.00  0.00    -0.391 OA
ATOM     31  H4  UNL     1     -20.380  -1.197   0.217  1.00  0.00     0.210 HD
ENDBRANCH   3  30
BRANCH   7  32
HETATM   32  O8  UNL     1     -20.349   1.286   4.411  1.00  0.00    -0.391 OA
ATOM     33  H8  UNL     1     -20.083   0.386   4.559  1.00  0.00     0.210 HD
ENDBRANCH   7  32
BRANCH   2  34
HETATM   34  O3  UNL     1     -22.403  -1.257   1.082  1.00  0.00    -0.391 OA
ATOM     35  H3  UNL     1     -22.433  -1.359   0.138  1.00  0.00     0.210 HD
ENDBRANCH   2  34
BRANCH   1  36
HETATM   36  N3  UNL     1     -22.087  -0.403   3.721  1.00  0.00    -0.351 N 
HETATM   37  C6  UNL     1     -22.337  -1.777   4.032  1.00  0.00     0.218 C 
HETATM   38  O2  UNL     1     -21.741  -2.626   3.339  1.00  0.00    -0.274 OA
ATOM     39  H3  UNL     1     -22.558   0.316   4.270  1.00  0.00     0.163 HD
BRANCH  37  40
HETATM   40  C5  UNL     1     -23.237  -2.209   5.100  1.00  0.00     0.104 C 
BRANCH  40  41
HETATM   41  C4  UNL     1     -23.099  -1.427   6.345  1.00  0.00     0.027 C 
BRANCH  41  42
HETATM   42  C3  UNL     1     -24.406  -1.088   6.995  1.00  0.00     0.143 C 
BRANCH  42  43
HETATM   43  N2  UNL     1     -24.198  -0.764   8.412  1.00  0.00    -0.101 NA
BRANCH  43  44
HETATM   44  O1  UNL     1     -25.144  -0.009   8.938  1.00  0.00    -0.281 OA
BRANCH  44  45
HETATM   45  C2  UNL     1     -24.955   1.342   8.706  1.00  0.00     0.239 C 
BRANCH  45  46
HETATM   46  C1  UNL     1     -26.223   2.114   8.895  1.00  0.00     0.081 C 
HETATM   47  N1  UNL     1     -26.411   2.706  10.006  1.00  0.00    -0.409 N 
ATOM     48  H12 UNL     1     -25.704   2.647  10.739  1.00  0.00     0.155 HD
ATOM     49  H11 UNL     1     -27.275   3.232  10.135  1.00  0.00     0.155 HD
ENDBRANCH  45  46
ENDBRANCH  44  45
ENDBRANCH  43  44
ENDBRANCH  42  43
ENDBRANCH  41  42
ENDBRANCH  40  41
ENDBRANCH  37  40
ENDBRANCH   1  36
TORSDOF 18
ENDMDL
MODEL 4
REMARK VINA RESULT: -7.178515446      2.639      4.347
REMARK  18 active torsions:
REMARK  status: ('A' for Active; 'I' for Inactive)
REMARK    1  A    between atoms: C1_4  and  C2_5 
REMARK    2  A    between atoms: C2_5  and  O1_6 
REMARK    3  A    between atoms: O1_6  and  N2_7 
REMARK    4  A    between atoms: N2_7  and  C3_8 
REMARK    5  A    between atoms: C3_8  and  C4_9 
REMARK    6  A    between atoms: C4_9  and  C5_10 
REMARK    7  A    between atoms: C5_10  and  C6_11 
REMARK       I    between atoms: C6_11  and  N3_13 
REMARK    8  A    between atoms: N3_13  and  C7_15 
REMARK    9  A    between atoms: C8_16  and  O3_17 
REMARK   10  A    between atoms: C9_19  and  O4_20 
REMARK   11  A    between atoms: C10_22  and  N4_23 
REMARK   12  A    between atoms: C11_27  and  O5_28 
REMARK   13  A    between atoms: O5_28  and  C12_29 
REMARK   14  A    between atoms: C13_31  and  C14_32 
REMARK   15  A    between atoms: C14_32  and  N5_33 
REMARK   16  A    between atoms: C17_39  and  N6_40 
REMARK   17  A    between atoms: C18_44  and  O7_45 
REMARK   18  A    between atoms: C19_47  and  O8_48 
ROOT
HETATM    1  C7  UNL     1     -22.784   1.939   4.027  1.00  0.00     0.147 C 
HETATM    2  C8  UNL     1     -23.030   3.431   4.045  1.00  0.00     0.174 C 
HETATM    3  C9  UNL     1     -22.960   4.024   2.640  1.00  0.00     0.182 C 
HETATM    4  C10 UNL     1     -21.558   4.000   2.139  1.00  0.00     0.246 C 
HETATM    5  C11 UNL     1     -21.257   2.807   1.248  1.00  0.00     0.189 C 
HETATM    6  C18 UNL     1     -21.403   1.491   1.974  1.00  0.00     0.180 C 
HETATM    7  C19 UNL     1     -21.438   1.579   3.461  1.00  0.00     0.174 C 
ENDROOT
BRANCH   5   8
HETATM    8  O5  UNL     1     -19.959   2.839   0.780  1.00  0.00    -0.349 OA
BRANCH   8   9
HETATM    9  C12 UNL     1     -19.763   2.436  -0.501  1.00  0.00     0.291 C 
HETATM   10  O6  UNL     1     -20.829   1.614  -0.872  1.00  0.00    -0.352 OA
HETATM   11  C13 UNL     1     -20.573   0.906  -2.041  1.00  0.00     0.150 C 
HETATM   12  C15 UNL     1     -20.245   1.826  -3.175  1.00  0.00     0.036 C 
HETATM   13  C16 UNL     1     -19.217   2.855  -2.826  1.00  0.00     0.040 C 
HETATM   14  C17 UNL     1     -19.656   3.520  -1.526  1.00  0.00     0.238 C 
BRANCH  11  15
HETATM   15  C14 UNL     1     -21.867   0.182  -2.398  1.00  0.00     0.261 C 
BRANCH  15  16
HETATM   16  N5  UNL     1     -22.927   0.598  -1.512  1.00  0.00    -0.077 N 
ATOM     17  H53 UNL     1     -22.573   0.881  -0.599  1.00  0.00     0.274 HD
ATOM     18  H52 UNL     1     -23.335   1.488  -1.797  1.00  0.00     0.274 HD
ATOM     19  H51 UNL     1     -23.630  -0.138  -1.437  1.00  0.00     0.274 HD
ENDBRANCH  15  16
ENDBRANCH  11  15
BRANCH  14  20
HETATM   20  N6  UNL     1     -20.931   4.158  -1.799  1.00  0.00    -0.070 N 
ATOM     21  H63 UNL     1     -21.100   4.929  -1.152  1.00  0.00     0.274 HD
ATOM     22  H62 UNL     1     -20.898   4.683  -2.674  1.00  0.00     0.274 HD
ATOM     23  H61 UNL     1     -21.709   3.499  -1.795  1.00  0.00     0.274 HD
ENDBRANCH  14  20
ENDBRANCH   8   9
ENDBRANCH   5   8
BRANCH   4  24
HETATM   24  N4  UNL     1     -21.327   5.251   1.426  1.00  0.00    -0.070 N 
ATOM     25  H43 UNL     1     -21.675   5.232   0.467  1.00  0.00     0.274 HD
ATOM     26  H42 UNL     1     -21.912   6.015   1.764  1.00  0.00     0.274 HD
ATOM     27  H41 UNL     1     -20.329   5.456   1.483  1.00  0.00     0.274 HD
ENDBRANCH   4  24
BRANCH   6  28
HETATM   28  O7  UNL     1     -22.560   0.814   1.545  1.00  0.00    -0.390 OA
ATOM     29  H7  UNL     1     -22.779   0.113   2.147  1.00  0.00     0.210 HD
ENDBRANCH   6  28
BRANCH   3  30
HETATM   30  O4  UNL     1     -23.877   3.361   1.867  1.00  0.00    -0.391 OA
ATOM     31  H4  UNL     1     -23.442   2.604   1.495  1.00  0.00     0.210 HD
ENDBRANCH   3  30
BRANCH   7  32
HETATM   32  O8  UNL     1     -21.171   0.268   3.932  1.00  0.00    -0.391 OA
ATOM     33  H8  UNL     1     -20.521   0.374   4.616  1.00  0.00     0.210 HD
ENDBRANCH   7  32
BRANCH   2  34
HETATM   34  O3  UNL     1     -24.310   3.670   4.512  1.00  0.00    -0.391 OA
ATOM     35  H3  UNL     1     -24.365   4.568   4.819  1.00  0.00     0.210 HD
ENDBRANCH   2  34
BRANCH   1  36
HETATM   36  N3  UNL     1     -22.812   1.490   5.402  1.00  0.00    -0.351 N 
HETATM   37  C6  UNL     1     -23.383   0.238   5.796  1.00  0.00     0.218 C 
HETATM   38  O2  UNL     1     -23.866  -0.468   4.890  1.00  0.00    -0.274 OA
ATOM     39  H3  UNL     1     -22.408   2.090   6.120  1.00  0.00     0.163 HD
BRANCH  37  40
HETATM   40  C5  UNL     1     -23.418  -0.228   7.181  1.00  0.00     0.104 C 
BRANCH  40  41
HETATM   41  C4  UNL     1     -24.192   0.649   8.084  1.00  0.00     0.027 C 
BRANCH  41  42
HETATM   42  C3  UNL     1     -25.414   1.242   7.450  1.00  0.00     0.143 C 
BRANCH  42  43
HETATM   43  N2  UNL     1     -25.282   2.702   7.365  1.00  0.00    -0.101 NA
BRANCH  43  44
HETATM   44  O1  UNL     1     -26.207   3.286   6.626  1.00  0.00    -0.281 OA
BRANCH  44  45
HETATM   45  C2  UNL     1     -27.407   3.459   7.292  1.00  0.00     0.239 C 
BRANCH  45  46
HETATM   46  C1  UNL     1     -27.196   4.015   8.665  1.00  0.00     0.081 C 
HETATM   47  N1  UNL     1     -27.405   3.255   9.665  1.00  0.00    -0.409 N 
ATOM     48  H12 UNL     1     -27.708   2.293   9.516  1.00  0.00     0.155 HD
ATOM     49  H11 UNL     1     -27.261   3.634  10.601  1.00  0.00     0.155 HD
ENDBRANCH  45  46
ENDBRANCH  44  45
ENDBRANCH  43  44
ENDBRANCH  42  43
ENDBRANCH  41  42
ENDBRANCH  40  41
ENDBRANCH  37  40
ENDBRANCH   1  36
TORSDOF 18
ENDMDL
MODEL 5
REMARK VINA RESULT: -7.080232763      2.556      7.866
REMARK  18 active torsions:
REMARK  status: ('A' for Active; 'I' for Inactive)
REMARK    1  A    between atoms: C1_4  and  C2_5 
REMARK    2  A    between atoms: C2_5  and  O1_6 
REMARK    3  A    between atoms: O1_6  and  N2_7 
REMARK    4  A    between atoms: N2_7  and  C3_8 
REMARK    5  A    between atoms: C3_8  and  C4_9 
REMARK    6  A    between atoms: C4_9  and  C5_10 
REMARK    7  A    between atoms: C5_10  and  C6_11 
REMARK       I    between atoms: C6_11  and  N3_13 
REMARK    8  A    between atoms: N3_13  and  C7_15 
REMARK    9  A    between atoms: C8_16  and  O3_17 
REMARK   10  A    between atoms: C9_19  and  O4_20 
REMARK   11  A    between atoms: C10_22  and  N4_23 
REMARK   12  A    between atoms: C11_27  and  O5_28 
REMARK   13  A    between atoms: O5_28  and  C12_29 
REMARK   14  A    between atoms: C13_31  and  C14_32 
REMARK   15  A    between atoms: C14_32  and  N5_33 
REMARK   16  A    between atoms: C17_39  and  N6_40 
REMARK   17  A    between atoms: C18_44  and  O7_45 
REMARK   18  A    between atoms: C19_47  and  O8_48 
ROOT
HETATM    1  C7  UNL     1     -20.520   0.174   1.082  1.00  0.00     0.147 C 
HETATM    2  C8  UNL     1     -19.874   1.157   2.031  1.00  0.00     0.174 C 
HETATM    3  C9  UNL     1     -19.934   0.661   3.474  1.00  0.00     0.182 C 
HETATM    4  C10 UNL     1     -21.336   0.700   3.975  1.00  0.00     0.246 C 
HETATM    5  C11 UNL     1     -22.049  -0.639   3.876  1.00  0.00     0.189 C 
HETATM    6  C18 UNL     1     -22.190  -1.115   2.451  1.00  0.00     0.180 C 
HETATM    7  C19 UNL     1     -21.968  -0.080   1.403  1.00  0.00     0.174 C 
ENDROOT
BRANCH   5   8
HETATM    8  O5  UNL     1     -23.332  -0.567   4.380  1.00  0.00    -0.349 OA
BRANCH   8   9
HETATM    9  C12 UNL     1     -23.456  -0.207   5.683  1.00  0.00     0.291 C 
HETATM   10  O6  UNL     1     -24.490   0.725   5.787  1.00  0.00    -0.352 OA
HETATM   11  C13 UNL     1     -24.494   1.382   7.012  1.00  0.00     0.150 C 
HETATM   12  C15 UNL     1     -24.590   0.415   8.149  1.00  0.00     0.036 C 
HETATM   13  C16 UNL     1     -23.620  -0.719   8.048  1.00  0.00     0.040 C 
HETATM   14  C17 UNL     1     -23.750  -1.311   6.649  1.00  0.00     0.238 C 
BRANCH  11  15
HETATM   15  C14 UNL     1     -25.753   2.243   7.035  1.00  0.00     0.261 C 
BRANCH  15  16
HETATM   16  N5  UNL     1     -26.831   1.526   7.671  1.00  0.00    -0.077 N 
ATOM     17  H53 UNL     1     -27.733   1.737   7.245  1.00  0.00     0.274 HD
ATOM     18  H52 UNL     1     -26.799   0.528   7.464  1.00  0.00     0.274 HD
ATOM     19  H51 UNL     1     -26.830   1.709   8.674  1.00  0.00     0.274 HD
ENDBRANCH  15  16
ENDBRANCH  11  15
BRANCH  14  20
HETATM   20  N6  UNL     1     -25.110  -1.805   6.535  1.00  0.00    -0.070 N 
ATOM     21  H63 UNL     1     -25.756  -1.050   6.303  1.00  0.00     0.274 HD
ATOM     22  H62 UNL     1     -25.223  -2.380   5.699  1.00  0.00     0.274 HD
ATOM     23  H61 UNL     1     -25.418  -2.306   7.369  1.00  0.00     0.274 HD
ENDBRANCH  14  20
ENDBRANCH   8   9
ENDBRANCH   5   8
BRANCH   4  24
HETATM   24  N4  UNL     1     -21.293   1.163   5.357  1.00  0.00    -0.070 N 
ATOM     25  H43 UNL     1     -20.375   1.515   5.630  1.00  0.00     0.274 HD
ATOM     26  H42 UNL     1     -21.815   2.026   5.504  1.00  0.00     0.274 HD
ATOM     27  H41 UNL     1     -21.616   0.395   5.947  1.00  0.00     0.274 HD
ENDBRANCH   4  24
BRANCH   6  28
HETATM   28  O7  UNL     1     -21.317  -2.191   2.200  1.00  0.00    -0.390 OA
ATOM     29  H7  UNL     1     -20.415  -1.893   2.182  1.00  0.00     0.210 HD
ENDBRANCH   6  28
BRANCH   3  30
HETATM   30  O4  UNL     1     -19.325  -0.567   3.512  1.00  0.00    -0.391 OA
ATOM     31  H4  UNL     1     -19.741  -1.070   4.202  1.00  0.00     0.210 HD
ENDBRANCH   3  30
BRANCH   7  32
HETATM   32  O8  UNL     1     -22.530  -0.608   0.213  1.00  0.00    -0.391 OA
ATOM     33  H8  UNL     1     -23.395  -0.913   0.458  1.00  0.00     0.210 HD
ENDBRANCH   7  32
BRANCH   2  34
HETATM   34  O3  UNL     1     -18.535   1.279   1.711  1.00  0.00    -0.391 OA
ATOM     35  H3  UNL     1     -18.455   1.746   0.887  1.00  0.00     0.210 HD
ENDBRANCH   2  34
BRANCH   1  36
HETATM   36  N3  UNL     1     -20.465   0.763  -0.239  1.00  0.00    -0.351 N 
HETATM   37  C6  UNL     1     -20.141   0.008  -1.411  1.00  0.00     0.218 C 
HETATM   38  O2  UNL     1     -19.904  -1.206  -1.248  1.00  0.00    -0.274 OA
ATOM     39  H3  UNL     1     -20.665   1.758  -0.338  1.00  0.00     0.163 HD
BRANCH  37  40
HETATM   40  C5  UNL     1     -20.081   0.589  -2.750  1.00  0.00     0.104 C 
BRANCH  40  41
HETATM   41  C4  UNL     1     -20.459   2.017  -2.796  1.00  0.00     0.027 C 
BRANCH  41  42
HETATM   42  C3  UNL     1     -19.290   2.952  -2.871  1.00  0.00     0.143 C 
BRANCH  42  43
HETATM   43  N2  UNL     1     -19.001   3.510  -1.544  1.00  0.00    -0.101 NA
BRANCH  43  44
HETATM   44  O1  UNL     1     -19.914   4.356  -1.105  1.00  0.00    -0.281 OA
BRANCH  44  45
HETATM   45  C2  UNL     1     -20.198   4.202   0.240  1.00  0.00     0.239 C 
BRANCH  45  46
HETATM   46  C1  UNL     1     -19.083   4.713   1.098  1.00  0.00     0.081 C 
HETATM   47  N1  UNL     1     -17.989   4.062   1.120  1.00  0.00    -0.409 N 
ATOM     48  H12 UNL     1     -17.891   3.214   0.562  1.00  0.00     0.155 HD
ATOM     49  H11 UNL     1     -17.229   4.410   1.705  1.00  0.00     0.155 HD
ENDBRANCH  45  46
ENDBRANCH  44  45
ENDBRANCH  43  44
ENDBRANCH  42  43
ENDBRANCH  41  42
ENDBRANCH  40  41
ENDBRANCH  37  40
ENDBRANCH   1  36
TORSDOF 18
ENDMDL
