MODEL 1
REMARK VINA RESULT: -6.871111986      0.000      0.000
REMARK  20 active torsions:
REMARK  status: ('A' for Active; 'I' for Inactive)
REMARK    1  A    between atoms: C1_4  and  S1_5 
REMARK    2  A    between atoms: C1_4  and  C7_20 
REMARK    3  A    between atoms: S1_5  and  S2_6 
REMARK    4  A    between atoms: S2_6  and  C2_7 
REMARK    5  A    between atoms: C2_7  and  C3_8 
REMARK    6  A    between atoms: C3_8  and  N2_9 
REMARK    7  A    between atoms: C3_8  and  C4_13 
REMARK    8  A    between atoms: C4_13  and  C5_14 
REMARK    9  A    between atoms: C5_14  and  C6_15 
REMARK   10  A    between atoms: C6_15  and  N3_16 
REMARK   11  A    between atoms: C8_22  and  N4_23 
REMARK       I    between atoms: N4_23  and  C9_25 
REMARK   12  A    between atoms: C9_25  and  C10_27 
REMARK   13  A    between atoms: C10_27  and  N5_28 
REMARK   14  A    between atoms: C10_27  and  C11_32 
REMARK   15  A    between atoms: C11_32  and  N6_33 
REMARK   16  A    between atoms: C12_37  and  O3_38 
REMARK   17  A    between atoms: C13_40  and  O4_41 
REMARK   18  A    between atoms: C14_43  and  N7_44 
REMARK   19  A    between atoms: N7_44  and  C15_46 
REMARK   20  A    between atoms: C16_48  and  N8_49 
ROOT
HETATM    1  C7  UNL     1     -23.130   2.769   4.475  1.00  0.00     0.213 C 
HETATM    2  O1  UNL     1     -24.273   2.578   5.248  1.00  0.00    -0.350 OA
HETATM    3  C8  UNL     1     -24.053   1.774   6.365  1.00  0.00     0.255 C 
HETATM    4  C12 UNL     1     -23.904   0.335   5.951  1.00  0.00     0.197 C 
HETATM    5  C13 UNL     1     -22.479  -0.066   5.716  1.00  0.00     0.176 C 
HETATM    6  C14 UNL     1     -21.783   0.731   4.653  1.00  0.00     0.148 C 
HETATM    7  C16 UNL     1     -22.737   1.528   3.781  1.00  0.00     0.243 C 
ENDROOT
BRANCH   1   8
HETATM    8  C1  UNL     1     -23.273   3.981   3.641  1.00  0.00     0.082 C 
HETATM    9  N1  UNL     1     -24.284   4.272   2.945  1.00  0.00    -0.394 N 
ATOM     10  H12 UNL     1     -24.382   5.108   2.369  1.00  0.00     0.156 HD
ATOM     11  H11 UNL     1     -25.065   3.616   2.961  1.00  0.00     0.156 HD
BRANCH   8  12
HETATM   12  S1  UNL     1     -21.892   5.140   3.612  1.00  0.00    -0.042 SA
BRANCH  12  13
HETATM   13  S2  UNL     1     -20.984   5.236   1.736  1.00  0.00    -0.089 SA
BRANCH  13  14
HETATM   14  C2  UNL     1     -19.197   4.901   1.739  1.00  0.00     0.119 C 
BRANCH  14  15
HETATM   15  C3  UNL     1     -18.854   3.592   1.175  1.00  0.00     0.193 C 
BRANCH  15  16
HETATM   16  N2  UNL     1     -17.617   3.027   1.721  1.00  0.00    -0.074 N 
ATOM     17  H23 UNL     1     -17.042   2.630   0.979  1.00  0.00     0.274 HD
ATOM     18  H22 UNL     1     -16.992   3.768   2.041  1.00  0.00     0.274 HD
ATOM     19  H21 UNL     1     -17.775   2.344   2.461  1.00  0.00     0.274 HD
ENDBRANCH  15  16
BRANCH  15  20
HETATM   20  C4  UNL     1     -19.131   3.210  -0.217  1.00  0.00     0.035 C 
BRANCH  20  21
HETATM   21  C5  UNL     1     -20.375   2.499  -0.580  1.00  0.00     0.029 C 
BRANCH  21  22
HETATM   22  C6  UNL     1     -20.397   1.052  -0.845  1.00  0.00     0.229 C 
BRANCH  22  23
HETATM   23  N3  UNL     1     -19.956   0.239   0.254  1.00  0.00    -0.079 N 
ATOM     24  H33 UNL     1     -19.965   0.778   1.121  1.00  0.00     0.274 HD
ATOM     25  H32 UNL     1     -20.659  -0.465   0.479  1.00  0.00     0.274 HD
ATOM     26  H31 UNL     1     -19.045  -0.198   0.117  1.00  0.00     0.274 HD
ENDBRANCH  22  23
ENDBRANCH  21  22
ENDBRANCH  20  21
ENDBRANCH  15  20
ENDBRANCH  14  15
ENDBRANCH  13  14
ENDBRANCH  12  13
ENDBRANCH   8  12
ENDBRANCH   1   8
BRANCH   7  27
HETATM   27  N8  UNL     1     -22.022   1.751   2.530  1.00  0.00    -0.070 N 
ATOM     28  H83 UNL     1     -21.541   0.900   2.236  1.00  0.00     0.274 HD
ATOM     29  H82 UNL     1     -22.678   1.854   1.755  1.00  0.00     0.274 HD
ATOM     30  H81 UNL     1     -21.373   2.537   2.557  1.00  0.00     0.274 HD
ENDBRANCH   7  27
BRANCH   3  31
HETATM   31  N4  UNL     1     -25.238   1.860   7.195  1.00  0.00    -0.330 N 
HETATM   32  C9  UNL     1     -25.308   2.641   8.368  1.00  0.00     0.252 C 
HETATM   33  O2  UNL     1     -24.330   3.315   8.759  1.00  0.00    -0.271 OA
ATOM     34  H4  UNL     1     -26.063   1.328   6.918  1.00  0.00     0.165 HD
BRANCH  32  35
HETATM   35  C10 UNL     1     -26.547   2.684   9.172  1.00  0.00     0.299 C 
BRANCH  35  36
HETATM   36  N5  UNL     1     -26.253   3.245  10.473  1.00  0.00    -0.065 N 
ATOM     37  H53 UNL     1     -25.698   4.098  10.409  1.00  0.00     0.275 HD
ATOM     38  H52 UNL     1     -27.080   3.643  10.918  1.00  0.00     0.275 HD
ATOM     39  H51 UNL     1     -25.806   2.535  11.052  1.00  0.00     0.275 HD
ENDBRANCH  35  36
BRANCH  35  40
HETATM   40  C11 UNL     1     -27.487   3.657   8.455  1.00  0.00     0.272 C 
BRANCH  40  41
HETATM   41  N6  UNL     1     -26.833   4.911   8.214  1.00  0.00    -0.077 N 
ATOM     42  H63 UNL     1     -27.345   5.482   7.541  1.00  0.00     0.274 HD
ATOM     43  H62 UNL     1     -26.896   5.532   9.021  1.00  0.00     0.274 HD
ATOM     44  H61 UNL     1     -25.866   4.764   7.925  1.00  0.00     0.274 HD
ENDBRANCH  40  41
ENDBRANCH  35  40
ENDBRANCH  32  35
ENDBRANCH   3  31
BRANCH   6  45
HETATM   45  N7  UNL     1     -20.891  -0.077   3.858  1.00  0.00    -0.359 N 
ATOM     46  H7  UNL     1     -21.273  -0.786   3.233  1.00  0.00     0.162 HD
BRANCH  45  47
HETATM   47  C15 UNL     1     -19.492   0.108   3.939  1.00  0.00     0.348 C 
HETATM   48  O5  UNL     1     -19.034   1.272   3.833  1.00  0.00    -0.284 OA
ENDBRANCH  45  47
ENDBRANCH   6  45
BRANCH   4  49
HETATM   49  O3  UNL     1     -24.365  -0.466   7.022  1.00  0.00    -0.389 OA
ATOM     50  H3  UNL     1     -23.946  -1.315   6.945  1.00  0.00     0.210 HD
ENDBRANCH   4  49
BRANCH   5  51
HETATM   51  O4  UNL     1     -22.463  -1.406   5.332  1.00  0.00    -0.391 OA
ATOM     52  H4  UNL     1     -21.559  -1.696   5.311  1.00  0.00     0.210 HD
ENDBRANCH   5  51
TORSDOF 20
ENDMDL
MODEL 2
REMARK VINA RESULT: -6.287414554      1.153      1.649
REMARK  20 active torsions:
REMARK  status: ('A' for Active; 'I' for Inactive)
REMARK    1  A    between atoms: C1_4  and  S1_5 
REMARK    2  A    between atoms: C1_4  and  C7_20 
REMARK    3  A    between atoms: S1_5  and  S2_6 
REMARK    4  A    between atoms: S2_6  and  C2_7 
REMARK    5  A    between atoms: C2_7  and  C3_8 
REMARK    6  A    between atoms: C3_8  and  N2_9 
REMARK    7  A    between atoms: C3_8  and  C4_13 
REMARK    8  A    between atoms: C4_13  and  C5_14 
REMARK    9  A    between atoms: C5_14  and  C6_15 
REMARK   10  A    between atoms: C6_15  and  N3_16 
REMARK   11  A    between atoms: C8_22  and  N4_23 
REMARK       I    between atoms: N4_23  and  C9_25 
REMARK   12  A    between atoms: C9_25  and  C10_27 
REMARK   13  A    between atoms: C10_27  and  N5_28 
REMARK   14  A    between atoms: C10_27  and  C11_32 
REMARK   15  A    between atoms: C11_32  and  N6_33 
REMARK   16  A    between atoms: C12_37  and  O3_38 
REMARK   17  A    between atoms: C13_40  and  O4_41 
REMARK   18  A    between atoms: C14_43  and  N7_44 
REMARK   19  A    between atoms: N7_44  and  C15_46 
REMARK   20  A    between atoms: C16_48  and  N8_49 
ROOT
HETATM    1  C7  UNL     1     -23.174   2.735   4.458  1.00  0.00     0.213 C 
HETATM    2  O1  UNL     1     -24.329   2.608   5.225  1.00  0.00    -0.350 OA
HETATM    3  C8  UNL     1     -24.149   1.827   6.366  1.00  0.00     0.255 C 
HETATM    4  C12 UNL     1     -24.052   0.372   5.991  1.00  0.00     0.197 C 
HETATM    5  C13 UNL     1     -22.643  -0.089   5.779  1.00  0.00     0.176 C 
HETATM    6  C14 UNL     1     -21.908   0.651   4.701  1.00  0.00     0.148 C 
HETATM    7  C16 UNL     1     -22.824   1.461   3.800  1.00  0.00     0.243 C 
ENDROOT
BRANCH   1   8
HETATM    8  C1  UNL     1     -23.265   3.927   3.591  1.00  0.00     0.082 C 
HETATM    9  N1  UNL     1     -24.164   4.140   2.732  1.00  0.00    -0.394 N 
ATOM     10  H12 UNL     1     -24.227   4.964   2.134  1.00  0.00     0.156 HD
ATOM     11  H11 UNL     1     -24.888   3.429   2.631  1.00  0.00     0.156 HD
BRANCH   8  12
HETATM   12  S1  UNL     1     -21.984   5.186   3.769  1.00  0.00    -0.042 SA
BRANCH  12  13
HETATM   13  S2  UNL     1     -20.683   5.221   2.139  1.00  0.00    -0.089 SA
BRANCH  13  14
HETATM   14  C2  UNL     1     -21.263   4.296   0.684  1.00  0.00     0.119 C 
BRANCH  14  15
HETATM   15  C3  UNL     1     -20.227   4.119  -0.338  1.00  0.00     0.193 C 
BRANCH  15  16
HETATM   16  N2  UNL     1     -20.764   3.966  -1.693  1.00  0.00    -0.074 N 
ATOM     17  H23 UNL     1     -21.515   4.636  -1.862  1.00  0.00     0.274 HD
ATOM     18  H22 UNL     1     -20.091   4.289  -2.388  1.00  0.00     0.274 HD
ATOM     19  H21 UNL     1     -21.073   3.017  -1.902  1.00  0.00     0.274 HD
ENDBRANCH  15  16
BRANCH  15  20
HETATM   20  C4  UNL     1     -18.968   3.400  -0.101  1.00  0.00     0.035 C 
BRANCH  20  21
HETATM   21  C5  UNL     1     -18.873   2.347   0.931  1.00  0.00     0.029 C 
BRANCH  21  22
HETATM   22  C6  UNL     1     -18.134   2.550   2.187  1.00  0.00     0.229 C 
BRANCH  22  23
HETATM   23  N3  UNL     1     -16.739   2.847   2.014  1.00  0.00    -0.079 N 
ATOM     24  H33 UNL     1     -16.166   2.082   2.370  1.00  0.00     0.274 HD
ATOM     25  H32 UNL     1     -16.488   2.808   1.026  1.00  0.00     0.274 HD
ATOM     26  H31 UNL     1     -16.442   3.733   2.423  1.00  0.00     0.274 HD
ENDBRANCH  22  23
ENDBRANCH  21  22
ENDBRANCH  20  21
ENDBRANCH  15  20
ENDBRANCH  14  15
ENDBRANCH  13  14
ENDBRANCH  12  13
ENDBRANCH   8  12
ENDBRANCH   1   8
BRANCH   7  27
HETATM   27  N8  UNL     1     -22.092   1.622   2.550  1.00  0.00    -0.070 N 
ATOM     28  H83 UNL     1     -22.395   2.466   2.063  1.00  0.00     0.274 HD
ATOM     29  H82 UNL     1     -21.119   1.869   2.733  1.00  0.00     0.274 HD
ATOM     30  H81 UNL     1     -22.145   0.813   1.931  1.00  0.00     0.274 HD
ENDBRANCH   7  27
BRANCH   3  31
HETATM   31  N4  UNL     1     -25.336   1.980   7.183  1.00  0.00    -0.330 N 
HETATM   32  C9  UNL     1     -25.376   2.770   8.351  1.00  0.00     0.252 C 
HETATM   33  O2  UNL     1     -24.367   3.394   8.749  1.00  0.00    -0.271 OA
ATOM     34  H4  UNL     1     -26.185   1.492   6.900  1.00  0.00     0.165 HD
BRANCH  32  35
HETATM   35  C10 UNL     1     -26.619   2.884   9.143  1.00  0.00     0.299 C 
BRANCH  35  36
HETATM   36  N5  UNL     1     -26.824   4.266   9.513  1.00  0.00    -0.065 N 
ATOM     37  H53 UNL     1     -26.407   4.490  10.416  1.00  0.00     0.275 HD
ATOM     38  H52 UNL     1     -26.276   4.906   8.938  1.00  0.00     0.275 HD
ATOM     39  H51 UNL     1     -27.822   4.478   9.484  1.00  0.00     0.275 HD
ENDBRANCH  35  36
BRANCH  35  40
HETATM   40  C11 UNL     1     -27.761   2.487   8.202  1.00  0.00     0.272 C 
BRANCH  40  41
HETATM   41  N6  UNL     1     -28.298   3.641   7.540  1.00  0.00    -0.077 N 
ATOM     42  H63 UNL     1     -27.568   4.312   7.299  1.00  0.00     0.274 HD
ATOM     43  H62 UNL     1     -28.620   3.419   6.598  1.00  0.00     0.274 HD
ATOM     44  H61 UNL     1     -29.035   4.069   8.100  1.00  0.00     0.274 HD
ENDBRANCH  40  41
ENDBRANCH  35  40
ENDBRANCH  32  35
ENDBRANCH   3  31
BRANCH   6  45
HETATM   45  N7  UNL     1     -21.043  -0.211   3.936  1.00  0.00    -0.359 N 
ATOM     46  H7  UNL     1     -21.446  -0.879   3.279  1.00  0.00     0.162 HD
BRANCH  45  47
HETATM   47  C15 UNL     1     -19.639  -0.137   4.088  1.00  0.00     0.348 C 
HETATM   48  O5  UNL     1     -19.165   0.732   4.859  1.00  0.00    -0.284 OA
ENDBRANCH  45  47
ENDBRANCH   6  45
BRANCH   4  49
HETATM   49  O3  UNL     1     -24.552  -0.381   7.079  1.00  0.00    -0.389 OA
ATOM     50  H3  UNL     1     -25.472  -0.550   6.912  1.00  0.00     0.210 HD
ENDBRANCH   4  49
BRANCH   5  51
HETATM   51  O4  UNL     1     -22.675  -1.439   5.431  1.00  0.00    -0.391 OA
ATOM     52  H4  UNL     1     -23.567  -1.662   5.195  1.00  0.00     0.210 HD
ENDBRANCH   5  51
TORSDOF 20
ENDMDL
MODEL 3
REMARK VINA RESULT: -6.258807809      3.701      5.755
REMARK  20 active torsions:
REMARK  status: ('A' for Active; 'I' for Inactive)
REMARK    1  A    between atoms: C1_4  and  S1_5 
REMARK    2  A    between atoms: C1_4  and  C7_20 
REMARK    3  A    between atoms: S1_5  and  S2_6 
REMARK    4  A    between atoms: S2_6  and  C2_7 
REMARK    5  A    between atoms: C2_7  and  C3_8 
REMARK    6  A    between atoms: C3_8  and  N2_9 
REMARK    7  A    between atoms: C3_8  and  C4_13 
REMARK    8  A    between atoms: C4_13  and  C5_14 
REMARK    9  A    between atoms: C5_14  and  C6_15 
REMARK   10  A    between atoms: C6_15  and  N3_16 
REMARK   11  A    between atoms: C8_22  and  N4_23 
REMARK       I    between atoms: N4_23  and  C9_25 
REMARK   12  A    between atoms: C9_25  and  C10_27 
REMARK   13  A    between atoms: C10_27  and  N5_28 
REMARK   14  A    between atoms: C10_27  and  C11_32 
REMARK   15  A    between atoms: C11_32  and  N6_33 
REMARK   16  A    between atoms: C12_37  and  O3_38 
REMARK   17  A    between atoms: C13_40  and  O4_41 
REMARK   18  A    between atoms: C14_43  and  N7_44 
REMARK   19  A    between atoms: N7_44  and  C15_46 
REMARK   20  A    between atoms: C16_48  and  N8_49 
ROOT
HETATM    1  C7  UNL     1     -22.054   1.322   1.206  1.00  0.00     0.213 C 
HETATM    2  O1  UNL     1     -22.265   0.354   2.184  1.00  0.00    -0.350 OA
HETATM    3  C8  UNL     1     -21.663   0.664   3.403  1.00  0.00     0.255 C 
HETATM    4  C12 UNL     1     -20.173   0.470   3.313  1.00  0.00     0.197 C 
HETATM    5  C13 UNL     1     -19.438   1.721   2.938  1.00  0.00     0.176 C 
HETATM    6  C14 UNL     1     -19.846   2.302   1.617  1.00  0.00     0.148 C 
HETATM    7  C16 UNL     1     -20.647   1.338   0.760  1.00  0.00     0.243 C 
ENDROOT
BRANCH   1   8
HETATM    8  C1  UNL     1     -23.083   1.217   0.151  1.00  0.00     0.082 C 
HETATM    9  N1  UNL     1     -23.864   2.142  -0.203  1.00  0.00    -0.394 N 
ATOM     10  H12 UNL     1     -24.575   2.069  -0.930  1.00  0.00     0.156 HD
ATOM     11  H11 UNL     1     -23.774   3.036   0.280  1.00  0.00     0.156 HD
BRANCH   8  12
HETATM   12  S1  UNL     1     -23.242  -0.365  -0.702  1.00  0.00    -0.042 SA
BRANCH  12  13
HETATM   13  S2  UNL     1     -22.824  -0.204  -2.740  1.00  0.00    -0.089 SA
BRANCH  13  14
HETATM   14  C2  UNL     1     -21.136  -0.692  -3.210  1.00  0.00     0.119 C 
BRANCH  14  15
HETATM   15  C3  UNL     1     -20.690  -1.926  -2.555  1.00  0.00     0.193 C 
BRANCH  15  16
HETATM   16  N2  UNL     1     -19.676  -1.702  -1.521  1.00  0.00    -0.074 N 
ATOM     17  H23 UNL     1     -18.958  -2.426  -1.555  1.00  0.00     0.274 HD
ATOM     18  H22 UNL     1     -19.104  -0.888  -1.745  1.00  0.00     0.274 HD
ATOM     19  H21 UNL     1     -20.065  -1.624  -0.581  1.00  0.00     0.274 HD
ENDBRANCH  15  16
BRANCH  15  20
HETATM   20  C4  UNL     1     -20.573  -3.216  -3.248  1.00  0.00     0.035 C 
BRANCH  20  21
HETATM   21  C5  UNL     1     -21.691  -4.183  -3.255  1.00  0.00     0.029 C 
BRANCH  21  22
HETATM   22  C6  UNL     1     -22.745  -4.150  -4.281  1.00  0.00     0.229 C 
BRANCH  22  23
HETATM   23  N3  UNL     1     -23.952  -4.838  -3.917  1.00  0.00    -0.079 N 
ATOM     24  H33 UNL     1     -23.995  -5.748  -4.374  1.00  0.00     0.274 HD
ATOM     25  H32 UNL     1     -23.911  -5.134  -2.941  1.00  0.00     0.274 HD
ATOM     26  H31 UNL     1     -24.807  -4.311  -4.093  1.00  0.00     0.274 HD
ENDBRANCH  22  23
ENDBRANCH  21  22
ENDBRANCH  20  21
ENDBRANCH  15  20
ENDBRANCH  14  15
ENDBRANCH  13  14
ENDBRANCH  12  13
ENDBRANCH   8  12
ENDBRANCH   1   8
BRANCH   7  27
HETATM   27  N8  UNL     1     -20.465   1.798  -0.611  1.00  0.00    -0.070 N 
ATOM     28  H83 UNL     1     -20.106   2.752  -0.624  1.00  0.00     0.274 HD
ATOM     29  H82 UNL     1     -19.682   1.314  -1.051  1.00  0.00     0.274 HD
ATOM     30  H81 UNL     1     -21.302   1.723  -1.189  1.00  0.00     0.274 HD
ENDBRANCH   7  27
BRANCH   3  31
HETATM   31  N4  UNL     1     -22.159  -0.284   4.380  1.00  0.00    -0.330 N 
HETATM   32  C9  UNL     1     -23.199   0.010   5.287  1.00  0.00     0.252 C 
HETATM   33  O2  UNL     1     -23.759   1.129   5.293  1.00  0.00    -0.271 OA
ATOM     34  H4  UNL     1     -21.736  -1.211   4.414  1.00  0.00     0.165 HD
BRANCH  32  35
HETATM   35  C10 UNL     1     -23.659  -1.002   6.261  1.00  0.00     0.299 C 
BRANCH  35  36
HETATM   36  N5  UNL     1     -25.076  -0.830   6.495  1.00  0.00    -0.065 N 
ATOM     37  H53 UNL     1     -25.365  -1.199   7.400  1.00  0.00     0.275 HD
ATOM     38  H52 UNL     1     -25.327   0.146   6.649  1.00  0.00     0.275 HD
ATOM     39  H51 UNL     1     -25.598  -1.246   5.723  1.00  0.00     0.275 HD
ENDBRANCH  35  36
BRANCH  35  40
HETATM   40  C11 UNL     1     -23.468  -2.363   5.585  1.00  0.00     0.272 C 
BRANCH  40  41
HETATM   41  N6  UNL     1     -24.185  -3.386   6.292  1.00  0.00    -0.077 N 
ATOM     42  H63 UNL     1     -24.473  -3.073   7.219  1.00  0.00     0.274 HD
ATOM     43  H62 UNL     1     -25.108  -3.546   5.889  1.00  0.00     0.274 HD
ATOM     44  H61 UNL     1     -23.638  -4.245   6.336  1.00  0.00     0.274 HD
ENDBRANCH  40  41
ENDBRANCH  35  40
ENDBRANCH  32  35
ENDBRANCH   3  31
BRANCH   6  45
HETATM   45  N7  UNL     1     -18.728   2.851   0.891  1.00  0.00    -0.359 N 
ATOM     46  H7  UNL     1     -18.052   2.225   0.454  1.00  0.00     0.162 HD
BRANCH  45  47
HETATM   47  C15 UNL     1     -18.563   4.251   0.778  1.00  0.00     0.348 C 
HETATM   48  O5  UNL     1     -17.780   4.692  -0.099  1.00  0.00    -0.284 OA
ENDBRANCH  45  47
ENDBRANCH   6  45
BRANCH   4  49
HETATM   49  O3  UNL     1     -19.712   0.116   4.603  1.00  0.00    -0.389 OA
ATOM     50  H3  UNL     1     -19.238   0.862   4.952  1.00  0.00     0.210 HD
ENDBRANCH   4  49
BRANCH   5  51
HETATM   51  O4  UNL     1     -18.077   1.423   2.877  1.00  0.00    -0.391 OA
ATOM     52  H4  UNL     1     -17.593   2.233   2.982  1.00  0.00     0.210 HD
ENDBRANCH   5  51
TORSDOF 20
ENDMDL
MODEL 4
REMARK VINA RESULT: -6.252568662      3.646      5.700
REMARK  20 active torsions:
REMARK  status: ('A' for Active; 'I' for Inactive)
REMARK    1  A    between atoms: C1_4  and  S1_5 
REMARK    2  A    between atoms: C1_4  and  C7_20 
REMARK    3  A    between atoms: S1_5  and  S2_6 
REMARK    4  A    between atoms: S2_6  and  C2_7 
REMARK    5  A    between atoms: C2_7  and  C3_8 
REMARK    6  A    between atoms: C3_8  and  N2_9 
REMARK    7  A    between atoms: C3_8  and  C4_13 
REMARK    8  A    between atoms: C4_13  and  C5_14 
REMARK    9  A    between atoms: C5_14  and  C6_15 
REMARK   10  A    between atoms: C6_15  and  N3_16 
REMARK   11  A    between atoms: C8_22  and  N4_23 
REMARK       I    between atoms: N4_23  and  C9_25 
REMARK   12  A    between atoms: C9_25  and  C10_27 
REMARK   13  A    between atoms: C10_27  and  N5_28 
REMARK   14  A    between atoms: C10_27  and  C11_32 
REMARK   15  A    between atoms: C11_32  and  N6_33 
REMARK   16  A    between atoms: C12_37  and  O3_38 
REMARK   17  A    between atoms: C13_40  and  O4_41 
REMARK   18  A    between atoms: C14_43  and  N7_44 
REMARK   19  A    between atoms: N7_44  and  C15_46 
REMARK   20  A    between atoms: C16_48  and  N8_49 
ROOT
HETATM    1  C7  UNL     1     -22.063   1.404   1.265  1.00  0.00     0.213 C 
HETATM    2  O1  UNL     1     -22.287   0.421   2.225  1.00  0.00    -0.350 OA
HETATM    3  C8  UNL     1     -21.674   0.696   3.447  1.00  0.00     0.255 C 
HETATM    4  C12 UNL     1     -20.188   0.476   3.346  1.00  0.00     0.197 C 
HETATM    5  C13 UNL     1     -19.432   1.720   2.991  1.00  0.00     0.176 C 
HETATM    6  C14 UNL     1     -19.835   2.335   1.684  1.00  0.00     0.148 C 
HETATM    7  C16 UNL     1     -20.658   1.402   0.812  1.00  0.00     0.243 C 
ENDROOT
BRANCH   1   8
HETATM    8  C1  UNL     1     -23.099   1.338   0.214  1.00  0.00     0.082 C 
HETATM    9  N1  UNL     1     -23.783   2.314  -0.200  1.00  0.00    -0.394 N 
ATOM     10  H12 UNL     1     -24.498   2.268  -0.925  1.00  0.00     0.156 HD
ATOM     11  H11 UNL     1     -23.602   3.222   0.228  1.00  0.00     0.156 HD
BRANCH   8  12
HETATM   12  S1  UNL     1     -23.418  -0.269  -0.541  1.00  0.00    -0.042 SA
BRANCH  12  13
HETATM   13  S2  UNL     1     -22.355  -0.528  -2.318  1.00  0.00    -0.089 SA
BRANCH  13  14
HETATM   14  C2  UNL     1     -21.696  -2.204  -2.571  1.00  0.00     0.119 C 
BRANCH  14  15
HETATM   15  C3  UNL     1     -20.235  -2.270  -2.468  1.00  0.00     0.193 C 
BRANCH  15  16
HETATM   16  N2  UNL     1     -19.692  -1.479  -1.360  1.00  0.00    -0.074 N 
ATOM     17  H23 UNL     1     -19.309  -2.086  -0.636  1.00  0.00     0.274 HD
ATOM     18  H22 UNL     1     -18.839  -0.997  -1.644  1.00  0.00     0.274 HD
ATOM     19  H21 UNL     1     -20.364  -0.822  -0.964  1.00  0.00     0.274 HD
ENDBRANCH  15  16
BRANCH  15  20
HETATM   20  C4  UNL     1     -19.343  -2.375  -3.631  1.00  0.00     0.035 C 
BRANCH  20  21
HETATM   21  C5  UNL     1     -18.991  -3.690  -4.207  1.00  0.00     0.029 C 
BRANCH  21  22
HETATM   22  C6  UNL     1     -17.621  -4.014  -4.634  1.00  0.00     0.229 C 
BRANCH  22  23
HETATM   23  N3  UNL     1     -16.607  -3.696  -3.668  1.00  0.00    -0.079 N 
ATOM     24  H33 UNL     1     -16.575  -4.409  -2.938  1.00  0.00     0.274 HD
ATOM     25  H32 UNL     1     -15.679  -3.820  -4.073  1.00  0.00     0.274 HD
ATOM     26  H31 UNL     1     -16.694  -2.768  -3.254  1.00  0.00     0.274 HD
ENDBRANCH  22  23
ENDBRANCH  21  22
ENDBRANCH  20  21
ENDBRANCH  15  20
ENDBRANCH  14  15
ENDBRANCH  13  14
ENDBRANCH  12  13
ENDBRANCH   8  12
ENDBRANCH   1   8
BRANCH   7  27
HETATM   27  N8  UNL     1     -20.474   1.886  -0.551  1.00  0.00    -0.070 N 
ATOM     28  H83 UNL     1     -21.263   2.468  -0.833  1.00  0.00     0.274 HD
ATOM     29  H82 UNL     1     -19.727   2.579  -0.587  1.00  0.00     0.274 HD
ATOM     30  H81 UNL     1     -20.311   1.147  -1.235  1.00  0.00     0.274 HD
ENDBRANCH   7  27
BRANCH   3  31
HETATM   31  N4  UNL     1     -22.183  -0.262   4.408  1.00  0.00    -0.330 N 
HETATM   32  C9  UNL     1     -23.225   0.028   5.314  1.00  0.00     0.252 C 
HETATM   33  O2  UNL     1     -23.775   1.151   5.334  1.00  0.00    -0.271 OA
ATOM     34  H4  UNL     1     -21.767  -1.193   4.431  1.00  0.00     0.165 HD
BRANCH  32  35
HETATM   35  C10 UNL     1     -23.698  -0.994   6.271  1.00  0.00     0.299 C 
BRANCH  35  36
HETATM   36  N5  UNL     1     -25.119  -0.829   6.482  1.00  0.00    -0.065 N 
ATOM     37  H53 UNL     1     -25.442   0.104   6.226  1.00  0.00     0.275 HD
ATOM     38  H52 UNL     1     -25.674  -1.362   5.814  1.00  0.00     0.275 HD
ATOM     39  H51 UNL     1     -25.346  -1.065   7.449  1.00  0.00     0.275 HD
ENDBRANCH  35  36
BRANCH  35  40
HETATM   40  C11 UNL     1     -23.491  -2.348   5.587  1.00  0.00     0.272 C 
BRANCH  40  41
HETATM   41  N6  UNL     1     -24.121  -3.397   6.336  1.00  0.00    -0.077 N 
ATOM     42  H63 UNL     1     -24.440  -3.071   7.248  1.00  0.00     0.274 HD
ATOM     43  H62 UNL     1     -25.025  -3.654   5.940  1.00  0.00     0.274 HD
ATOM     44  H61 UNL     1     -23.502  -4.204   6.419  1.00  0.00     0.274 HD
ENDBRANCH  40  41
ENDBRANCH  35  40
ENDBRANCH  32  35
ENDBRANCH   3  31
BRANCH   6  45
HETATM   45  N7  UNL     1     -18.711   2.877   0.963  1.00  0.00    -0.359 N 
ATOM     46  H7  UNL     1     -18.003   2.249   0.582  1.00  0.00     0.162 HD
BRANCH  45  47
HETATM   47  C15 UNL     1     -18.582   4.273   0.778  1.00  0.00     0.348 C 
HETATM   48  O5  UNL     1     -17.777   4.690  -0.090  1.00  0.00    -0.284 OA
ENDBRANCH  45  47
ENDBRANCH   6  45
BRANCH   4  49
HETATM   49  O3  UNL     1     -19.727   0.089   4.626  1.00  0.00    -0.389 OA
ATOM     50  H3  UNL     1     -19.035   0.690   4.875  1.00  0.00     0.210 HD
ENDBRANCH   4  49
BRANCH   5  51
HETATM   51  O4  UNL     1     -18.077   1.399   2.917  1.00  0.00    -0.391 OA
ATOM     52  H4  UNL     1     -17.998   0.452   2.911  1.00  0.00     0.210 HD
ENDBRANCH   5  51
TORSDOF 20
ENDMDL
MODEL 5
REMARK VINA RESULT: -6.151533474      3.470      5.247
REMARK  20 active torsions:
REMARK  status: ('A' for Active; 'I' for Inactive)
REMARK    1  A    between atoms: C1_4  and  S1_5 
REMARK    2  A    between atoms: C1_4  and  C7_20 
REMARK    3  A    between atoms: S1_5  and  S2_6 
REMARK    4  A    between atoms: S2_6  and  C2_7 
REMARK    5  A    between atoms: C2_7  and  C3_8 
REMARK    6  A    between atoms: C3_8  and  N2_9 
REMARK    7  A    between atoms: C3_8  and  C4_13 
REMARK    8  A    between atoms: C4_13  and  C5_14 
REMARK    9  A    between atoms: C5_14  and  C6_15 
REMARK   10  A    between atoms: C6_15  and  N3_16 
REMARK   11  A    between atoms: C8_22  and  N4_23 
REMARK       I    between atoms: N4_23  and  C9_25 
REMARK   12  A    between atoms: C9_25  and  C10_27 
REMARK   13  A    between atoms: C10_27  and  N5_28 
REMARK   14  A    between atoms: C10_27  and  C11_32 
REMARK   15  A    between atoms: C11_32  and  N6_33 
REMARK   16  A    between atoms: C12_37  and  O3_38 
REMARK   17  A    between atoms: C13_40  and  O4_41 
REMARK   18  A    between atoms: C14_43  and  N7_44 
REMARK   19  A    between atoms: N7_44  and  C15_46 
REMARK   20  A    between atoms: C16_48  and  N8_49 
ROOT
HETATM    1  C7  UNL     1     -22.191   1.450   1.198  1.00  0.00     0.213 C 
HETATM    2  O1  UNL     1     -22.596   0.532   2.164  1.00  0.00    -0.350 OA
HETATM    3  C8  UNL     1     -22.141   0.844   3.444  1.00  0.00     0.255 C 
HETATM    4  C12 UNL     1     -20.669   0.551   3.560  1.00  0.00     0.197 C 
HETATM    5  C13 UNL     1     -19.806   1.738   3.255  1.00  0.00     0.176 C 
HETATM    6  C14 UNL     1     -19.995   2.299   1.877  1.00  0.00     0.148 C 
HETATM    7  C16 UNL     1     -20.740   1.359   0.945  1.00  0.00     0.243 C 
ENDROOT
BRANCH   1   8
HETATM    8  C1  UNL     1     -23.077   1.375   0.018  1.00  0.00     0.082 C 
HETATM    9  N1  UNL     1     -23.769   2.326  -0.437  1.00  0.00    -0.394 N 
ATOM     10  H12 UNL     1     -24.381   2.274  -1.252  1.00  0.00     0.156 HD
ATOM     11  H11 UNL     1     -23.709   3.220   0.051  1.00  0.00     0.156 HD
BRANCH   8  12
HETATM   12  S1  UNL     1     -23.183  -0.206  -0.845  1.00  0.00    -0.042 SA
BRANCH  12  13
HETATM   13  S2  UNL     1     -22.632  -0.046  -2.851  1.00  0.00    -0.089 SA
BRANCH  13  14
HETATM   14  C2  UNL     1     -20.896  -0.462  -3.197  1.00  0.00     0.119 C 
BRANCH  14  15
HETATM   15  C3  UNL     1     -20.482  -1.741  -2.612  1.00  0.00     0.193 C 
BRANCH  15  16
HETATM   16  N2  UNL     1     -19.647  -1.592  -1.416  1.00  0.00    -0.074 N 
ATOM     17  H23 UNL     1     -19.851  -0.713  -0.940  1.00  0.00     0.274 HD
ATOM     18  H22 UNL     1     -19.935  -2.248  -0.690  1.00  0.00     0.274 HD
ATOM     19  H21 UNL     1     -18.649  -1.678  -1.605  1.00  0.00     0.274 HD
ENDBRANCH  15  16
BRANCH  15  20
HETATM   20  C4  UNL     1     -20.191  -2.941  -3.407  1.00  0.00     0.035 C 
BRANCH  20  21
HETATM   21  C5  UNL     1     -19.077  -2.962  -4.378  1.00  0.00     0.029 C 
BRANCH  21  22
HETATM   22  C6  UNL     1     -18.066  -4.030  -4.383  1.00  0.00     0.229 C 
BRANCH  22  23
HETATM   23  N3  UNL     1     -16.850  -3.701  -3.694  1.00  0.00    -0.079 N 
ATOM     24  H33 UNL     1     -16.630  -2.712  -3.811  1.00  0.00     0.274 HD
ATOM     25  H32 UNL     1     -16.995  -3.729  -2.684  1.00  0.00     0.274 HD
ATOM     26  H31 UNL     1     -16.048  -4.276  -3.954  1.00  0.00     0.274 HD
ENDBRANCH  22  23
ENDBRANCH  21  22
ENDBRANCH  20  21
ENDBRANCH  15  20
ENDBRANCH  14  15
ENDBRANCH  13  14
ENDBRANCH  12  13
ENDBRANCH   8  12
ENDBRANCH   1   8
BRANCH   7  27
HETATM   27  N8  UNL     1     -20.348   1.759  -0.401  1.00  0.00    -0.070 N 
ATOM     28  H83 UNL     1     -21.170   1.964  -0.968  1.00  0.00     0.274 HD
ATOM     29  H82 UNL     1     -19.913   2.682  -0.388  1.00  0.00     0.274 HD
ATOM     30  H81 UNL     1     -19.745   1.086  -0.875  1.00  0.00     0.274 HD
ENDBRANCH   7  27
BRANCH   3  31
HETATM   31  N4  UNL     1     -22.826  -0.036   4.369  1.00  0.00    -0.330 N 
HETATM   32  C9  UNL     1     -23.759   0.419   5.325  1.00  0.00     0.252 C 
HETATM   33  O2  UNL     1     -24.050   1.631   5.423  1.00  0.00    -0.271 OA
ATOM     34  H4  UNL     1     -22.623  -1.035   4.328  1.00  0.00     0.165 HD
BRANCH  32  35
HETATM   35  C10 UNL     1     -24.423  -0.531   6.242  1.00  0.00     0.299 C 
BRANCH  35  36
HETATM   36  N5  UNL     1     -23.839  -1.843   6.076  1.00  0.00    -0.065 N 
ATOM     37  H53 UNL     1     -24.428  -2.580   6.462  1.00  0.00     0.275 HD
ATOM     38  H52 UNL     1     -23.844  -2.148   5.103  1.00  0.00     0.275 HD
ATOM     39  H51 UNL     1     -22.901  -1.847   6.478  1.00  0.00     0.275 HD
ENDBRANCH  35  36
BRANCH  35  40
HETATM   40  C11 UNL     1     -24.091  -0.057   7.660  1.00  0.00     0.272 C 
BRANCH  40  41
HETATM   41  N6  UNL     1     -25.175   0.707   8.208  1.00  0.00    -0.077 N 
ATOM     42  H63 UNL     1     -25.425   1.492   7.607  1.00  0.00     0.274 HD
ATOM     43  H62 UNL     1     -26.057   0.195   8.166  1.00  0.00     0.274 HD
ATOM     44  H61 UNL     1     -24.960   1.011   9.157  1.00  0.00     0.274 HD
ENDBRANCH  40  41
ENDBRANCH  35  40
ENDBRANCH  32  35
ENDBRANCH   3  31
BRANCH   6  45
HETATM   45  N7  UNL     1     -18.756   2.748   1.293  1.00  0.00    -0.359 N 
ATOM     46  H7  UNL     1     -18.018   2.074   1.091  1.00  0.00     0.162 HD
BRANCH  45  47
HETATM   47  C15 UNL     1     -18.557   4.117   0.998  1.00  0.00     0.348 C 
HETATM   48  O5  UNL     1     -17.811   4.419   0.035  1.00  0.00    -0.284 OA
ENDBRANCH  45  47
ENDBRANCH   6  45
BRANCH   4  49
HETATM   49  O3  UNL     1     -20.407   0.212   4.908  1.00  0.00    -0.389 OA
ATOM     50  H3  UNL     1     -20.962  -0.526   5.130  1.00  0.00     0.210 HD
ENDBRANCH   4  49
BRANCH   5  51
HETATM   51  O4  UNL     1     -18.473   1.350   3.384  1.00  0.00    -0.391 OA
ATOM     52  H4  UNL     1     -17.942   1.940   2.863  1.00  0.00     0.210 HD
ENDBRANCH   5  51
TORSDOF 20
ENDMDL
