MODEL 1
REMARK VINA RESULT: -8.541575247      0.000      0.000
REMARK  16 active torsions:
REMARK  status: ('A' for Active; 'I' for Inactive)
REMARK    1  A    between atoms: N1_2  and  C2_5 
REMARK    2  A    between atoms: C7_12  and  C8_13 
REMARK    3  A    between atoms: C8_13  and  N2_14 
REMARK    4  A    between atoms: N2_14  and  C9_17 
REMARK    5  A    between atoms: C9_17  and  C10_18 
REMARK    6  A    between atoms: C10_18  and  N3_19 
REMARK    7  A    between atoms: N3_19  and  C11_21 
REMARK    8  A    between atoms: C11_21  and  C12_22 
REMARK    9  A    between atoms: C13_24  and  O2_25 
REMARK   10  A    between atoms: O2_25  and  C14_26 
REMARK   11  A    between atoms: C15_27  and  O3_28 
REMARK   12  A    between atoms: C16_30  and  N4_31 
REMARK   13  A    between atoms: C18_36  and  N5_37 
REMARK   14  A    between atoms: C19_41  and  O4_42 
REMARK   15  A    between atoms: C20_44  and  O5_45 
REMARK   16  A    between atoms: C21_47  and  O6_48 
ROOT
HETATM    1  C12 UNL     1      42.874  -0.875   4.426  1.00  0.00     0.173 C 
HETATM    2  O1  UNL     1      43.278   0.403   4.122  1.00  0.00    -0.349 OA
HETATM    3  C13 UNL     1      44.470   0.323   3.424  1.00  0.00     0.292 C 
HETATM    4  C20 UNL     1      44.552  -1.059   2.821  1.00  0.00     0.204 C 
HETATM    5  C21 UNL     1      43.278  -1.736   3.247  1.00  0.00     0.182 C 
ENDROOT
BRANCH   1   6
HETATM    6  C11 UNL     1      43.518  -1.424   5.688  1.00  0.00     0.148 C 
BRANCH   6   7
HETATM    7  N3  UNL     1      42.587  -2.186   6.465  1.00  0.00    -0.417 N 
ATOM      8  H3  UNL     1      42.793  -3.131   6.789  1.00  0.00     0.153 HD
BRANCH   7   9
HETATM    9  C10 UNL     1      41.343  -1.529   6.757  1.00  0.00     0.141 C 
BRANCH   9  10
HETATM   10  C9  UNL     1      41.601  -0.518   7.848  1.00  0.00     0.251 C 
BRANCH  10  11
HETATM   11  N2  UNL     1      41.319   0.845   7.479  1.00  0.00    -0.073 N 
ATOM     12  H22 UNL     1      40.573   0.895   6.785  1.00  0.00     0.277 HD
ATOM     13  H21 UNL     1      42.078   1.245   6.926  1.00  0.00     0.277 HD
BRANCH  11  14
HETATM   14  C8  UNL     1      41.020   1.664   8.640  1.00  0.00     0.239 C 
BRANCH  14  15
HETATM   15  C7  UNL     1      40.289   2.931   8.258  1.00  0.00     0.047 C 
HETATM   16  C2  UNL     1      41.072   3.829   7.367  1.00  0.00     0.191 C 
HETATM   17  C3  UNL     1      40.299   5.097   7.090  1.00  0.00     0.039 C 
HETATM   18  C4  UNL     1      38.826   4.905   6.953  1.00  0.00     0.081 C 
HETATM   19  C5  UNL     1      38.440   3.491   6.628  1.00  0.00     0.244 C 
HETATM   20  F1  UNL     1      38.702   3.196   5.296  1.00  0.00    -0.206 F 
HETATM   21  F2  UNL     1      37.047   3.400   6.753  1.00  0.00    -0.206 F 
HETATM   22  C6  UNL     1      39.024   2.489   7.562  1.00  0.00     0.087 C 
BRANCH  16  23
HETATM   23  N1  UNL     1      42.320   4.267   8.006  1.00  0.00    -0.074 N 
HETATM   24  C1  UNL     1      43.399   4.184   7.047  1.00  0.00     0.267 C 
ATOM     25  H12 UNL     1      42.520   3.748   8.861  1.00  0.00     0.277 HD
ATOM     26  H11 UNL     1      42.238   5.196   8.418  1.00  0.00     0.277 HD
ENDBRANCH  16  23
ENDBRANCH  14  15
ENDBRANCH  11  14
ENDBRANCH  10  11
ENDBRANCH   9  10
ENDBRANCH   7   9
ENDBRANCH   6   7
ENDBRANCH   1   6
BRANCH   5  27
HETATM   27  O6  UNL     1      43.614  -3.032   3.619  1.00  0.00    -0.390 OA
ATOM     28  H6  UNL     1      44.398  -3.346   3.183  1.00  0.00     0.210 HD
ENDBRANCH   5  27
BRANCH   3  29
HETATM   29  O2  UNL     1      44.564   1.231   2.413  1.00  0.00    -0.348 OA
BRANCH  29  30
HETATM   30  C14 UNL     1      45.765   1.853   2.245  1.00  0.00     0.186 C 
HETATM   31  C15 UNL     1      46.501   1.549   0.985  1.00  0.00     0.180 C 
HETATM   32  C16 UNL     1      47.517   2.648   0.730  1.00  0.00     0.216 C 
HETATM   33  C17 UNL     1      46.805   3.933   0.419  1.00  0.00     0.071 C 
HETATM   34  C18 UNL     1      45.407   3.893   0.992  1.00  0.00     0.216 C 
HETATM   35  C19 UNL     1      45.545   3.341   2.404  1.00  0.00     0.180 C 
BRANCH  31  36
HETATM   36  O3  UNL     1      47.264   0.382   1.209  1.00  0.00    -0.391 OA
ATOM     37  H3  UNL     1      47.297  -0.099   0.390  1.00  0.00     0.210 HD
ENDBRANCH  31  36
BRANCH  32  38
HETATM   38  N4  UNL     1      48.495   2.759   1.775  1.00  0.00    -0.072 N 
ATOM     39  H43 UNL     1      48.625   3.733   2.049  1.00  0.00     0.274 HD
ATOM     40  H42 UNL     1      48.135   2.386   2.653  1.00  0.00     0.274 HD
ATOM     41  H41 UNL     1      49.386   2.325   1.533  1.00  0.00     0.274 HD
ENDBRANCH  32  38
BRANCH  34  42
HETATM   42  N5  UNL     1      44.738   5.159   0.965  1.00  0.00    -0.072 N 
ATOM     43  H53 UNL     1      45.413   5.923   0.961  1.00  0.00     0.274 HD
ATOM     44  H52 UNL     1      44.299   5.314   0.057  1.00  0.00     0.274 HD
ATOM     45  H51 UNL     1      44.060   5.281   1.717  1.00  0.00     0.274 HD
ENDBRANCH  34  42
BRANCH  35  46
HETATM   46  O4  UNL     1      44.320   3.607   3.049  1.00  0.00    -0.391 OA
ATOM     47  H4  UNL     1      44.373   4.397   3.574  1.00  0.00     0.210 HD
ENDBRANCH  35  46
ENDBRANCH  29  30
ENDBRANCH   3  29
BRANCH   4  48
HETATM   48  O5  UNL     1      45.702  -1.750   3.168  1.00  0.00    -0.388 OA
ATOM     49  H5  UNL     1      46.076  -2.252   2.453  1.00  0.00     0.210 HD
ENDBRANCH   4  48
TORSDOF 16
ENDMDL
MODEL 2
REMARK VINA RESULT: -8.382315763      1.296      2.150
REMARK  16 active torsions:
REMARK  status: ('A' for Active; 'I' for Inactive)
REMARK    1  A    between atoms: N1_2  and  C2_5 
REMARK    2  A    between atoms: C7_12  and  C8_13 
REMARK    3  A    between atoms: C8_13  and  N2_14 
REMARK    4  A    between atoms: N2_14  and  C9_17 
REMARK    5  A    between atoms: C9_17  and  C10_18 
REMARK    6  A    between atoms: C10_18  and  N3_19 
REMARK    7  A    between atoms: N3_19  and  C11_21 
REMARK    8  A    between atoms: C11_21  and  C12_22 
REMARK    9  A    between atoms: C13_24  and  O2_25 
REMARK   10  A    between atoms: O2_25  and  C14_26 
REMARK   11  A    between atoms: C15_27  and  O3_28 
REMARK   12  A    between atoms: C16_30  and  N4_31 
REMARK   13  A    between atoms: C18_36  and  N5_37 
REMARK   14  A    between atoms: C19_41  and  O4_42 
REMARK   15  A    between atoms: C20_44  and  O5_45 
REMARK   16  A    between atoms: C21_47  and  O6_48 
ROOT
HETATM    1  C12 UNL     1      43.217  -0.421   4.414  1.00  0.00     0.173 C 
HETATM    2  O1  UNL     1      44.061   0.631   4.680  1.00  0.00    -0.349 OA
HETATM    3  C13 UNL     1      45.323   0.298   4.223  1.00  0.00     0.292 C 
HETATM    4  C20 UNL     1      45.159  -0.776   3.175  1.00  0.00     0.204 C 
HETATM    5  C21 UNL     1      43.673  -0.999   3.089  1.00  0.00     0.182 C 
ENDROOT
BRANCH   1   6
HETATM    6  C11 UNL     1      43.260  -1.509   5.473  1.00  0.00     0.148 C 
BRANCH   6   7
HETATM    7  N3  UNL     1      41.955  -2.037   5.738  1.00  0.00    -0.417 N 
ATOM      8  H3  UNL     1      41.616  -2.894   5.303  1.00  0.00     0.153 HD
BRANCH   7   9
HETATM    9  C10 UNL     1      41.157  -1.276   6.660  1.00  0.00     0.141 C 
BRANCH   9  10
HETATM   10  C9  UNL     1      42.032  -0.910   7.834  1.00  0.00     0.251 C 
BRANCH  10  11
HETATM   11  N2  UNL     1      41.596   0.250   8.566  1.00  0.00    -0.073 N 
ATOM     12  H22 UNL     1      42.279   1.004   8.509  1.00  0.00     0.277 HD
ATOM     13  H21 UNL     1      41.622   0.087   9.573  1.00  0.00     0.277 HD
BRANCH  11  14
HETATM   14  C8  UNL     1      40.281   0.693   8.135  1.00  0.00     0.239 C 
BRANCH  14  15
HETATM   15  C7  UNL     1      40.204   2.199   8.031  1.00  0.00     0.047 C 
HETATM   16  C2  UNL     1      40.148   2.702   6.633  1.00  0.00     0.191 C 
HETATM   17  C3  UNL     1      40.143   4.213   6.619  1.00  0.00     0.039 C 
HETATM   18  C4  UNL     1      39.376   4.838   7.735  1.00  0.00     0.081 C 
HETATM   19  C5  UNL     1      38.374   3.910   8.359  1.00  0.00     0.244 C 
HETATM   20  F1  UNL     1      37.259   3.762   7.544  1.00  0.00    -0.206 F 
HETATM   21  F2  UNL     1      37.895   4.533   9.520  1.00  0.00    -0.206 F 
HETATM   22  C6  UNL     1      38.956   2.606   8.776  1.00  0.00     0.087 C 
BRANCH  16  23
HETATM   23  N1  UNL     1      41.342   2.311   5.872  1.00  0.00    -0.074 N 
HETATM   24  C1  UNL     1      42.484   3.046   6.369  1.00  0.00     0.267 C 
ATOM     25  H12 UNL     1      41.215   2.426   4.866  1.00  0.00     0.277 HD
ATOM     26  H11 UNL     1      41.495   1.303   5.882  1.00  0.00     0.277 HD
ENDBRANCH  16  23
ENDBRANCH  14  15
ENDBRANCH  11  14
ENDBRANCH  10  11
ENDBRANCH   9  10
ENDBRANCH   7   9
ENDBRANCH   6   7
ENDBRANCH   1   6
BRANCH   5  27
HETATM   27  O6  UNL     1      43.475  -2.373   3.007  1.00  0.00    -0.390 OA
ATOM     28  H6  UNL     1      44.187  -2.869   3.393  1.00  0.00     0.210 HD
ENDBRANCH   5  27
BRANCH   3  29
HETATM   29  O2  UNL     1      45.983   1.345   3.654  1.00  0.00    -0.348 OA
BRANCH  29  30
HETATM   30  C14 UNL     1      45.658   1.661   2.368  1.00  0.00     0.186 C 
HETATM   31  C15 UNL     1      44.932   2.946   2.162  1.00  0.00     0.180 C 
HETATM   32  C16 UNL     1      45.087   3.374   0.714  1.00  0.00     0.216 C 
HETATM   33  C17 UNL     1      46.520   3.733   0.443  1.00  0.00     0.071 C 
HETATM   34  C18 UNL     1      47.416   3.048   1.448  1.00  0.00     0.216 C 
HETATM   35  C19 UNL     1      46.924   1.611   1.543  1.00  0.00     0.180 C 
BRANCH  31  36
HETATM   36  O3  UNL     1      43.554   2.686   2.328  1.00  0.00    -0.391 OA
ATOM     37  H3  UNL     1      43.294   3.047   3.168  1.00  0.00     0.210 HD
ENDBRANCH  31  36
BRANCH  32  38
HETATM   38  N4  UNL     1      44.538   2.424  -0.212  1.00  0.00    -0.072 N 
ATOM     39  H43 UNL     1      44.825   2.638  -1.167  1.00  0.00     0.274 HD
ATOM     40  H42 UNL     1      44.981   1.512  -0.105  1.00  0.00     0.274 HD
ATOM     41  H41 UNL     1      43.522   2.345  -0.146  1.00  0.00     0.274 HD
ENDBRANCH  32  38
BRANCH  34  42
HETATM   42  N5  UNL     1      48.809   3.129   1.126  1.00  0.00    -0.072 N 
ATOM     43  H53 UNL     1      48.969   2.866   0.153  1.00  0.00     0.274 HD
ATOM     44  H52 UNL     1      49.115   4.101   1.093  1.00  0.00     0.274 HD
ATOM     45  H51 UNL     1      49.406   2.584   1.749  1.00  0.00     0.274 HD
ENDBRANCH  34  42
BRANCH  35  46
HETATM   46  O4  UNL     1      47.939   0.894   2.210  1.00  0.00    -0.391 OA
ATOM     47  H4  UNL     1      47.725   0.771   3.127  1.00  0.00     0.210 HD
ENDBRANCH  35  46
ENDBRANCH  29  30
ENDBRANCH   3  29
BRANCH   4  48
HETATM   48  O5  UNL     1      45.888  -1.925   3.436  1.00  0.00    -0.388 OA
ATOM     49  H5  UNL     1      45.485  -2.717   3.101  1.00  0.00     0.210 HD
ENDBRANCH   4  48
TORSDOF 16
ENDMDL
MODEL 3
REMARK VINA RESULT: -8.253155265      1.881      2.868
REMARK  16 active torsions:
REMARK  status: ('A' for Active; 'I' for Inactive)
REMARK    1  A    between atoms: N1_2  and  C2_5 
REMARK    2  A    between atoms: C7_12  and  C8_13 
REMARK    3  A    between atoms: C8_13  and  N2_14 
REMARK    4  A    between atoms: N2_14  and  C9_17 
REMARK    5  A    between atoms: C9_17  and  C10_18 
REMARK    6  A    between atoms: C10_18  and  N3_19 
REMARK    7  A    between atoms: N3_19  and  C11_21 
REMARK    8  A    between atoms: C11_21  and  C12_22 
REMARK    9  A    between atoms: C13_24  and  O2_25 
REMARK   10  A    between atoms: O2_25  and  C14_26 
REMARK   11  A    between atoms: C15_27  and  O3_28 
REMARK   12  A    between atoms: C16_30  and  N4_31 
REMARK   13  A    between atoms: C18_36  and  N5_37 
REMARK   14  A    between atoms: C19_41  and  O4_42 
REMARK   15  A    between atoms: C20_44  and  O5_45 
REMARK   16  A    between atoms: C21_47  and  O6_48 
ROOT
HETATM    1  C12 UNL     1      43.335  -0.511   4.186  1.00  0.00     0.173 C 
HETATM    2  O1  UNL     1      44.059   0.631   4.435  1.00  0.00    -0.349 OA
HETATM    3  C13 UNL     1      45.381   0.382   4.113  1.00  0.00     0.292 C 
HETATM    4  C20 UNL     1      45.404  -0.777   3.147  1.00  0.00     0.204 C 
HETATM    5  C21 UNL     1      43.956  -1.141   2.956  1.00  0.00     0.182 C 
ENDROOT
BRANCH   1   6
HETATM    6  C11 UNL     1      43.375  -1.508   5.331  1.00  0.00     0.148 C 
BRANCH   6   7
HETATM    7  N3  UNL     1      42.250  -2.394   5.296  1.00  0.00    -0.417 N 
ATOM      8  H3  UNL     1      42.044  -2.980   4.487  1.00  0.00     0.153 HD
BRANCH   7   9
HETATM    9  C10 UNL     1      41.432  -2.402   6.477  1.00  0.00     0.141 C 
BRANCH   9  10
HETATM   10  C9  UNL     1      41.061  -0.972   6.789  1.00  0.00     0.251 C 
BRANCH  10  11
HETATM   11  N2  UNL     1      41.662  -0.447   7.988  1.00  0.00    -0.073 N 
ATOM     12  H22 UNL     1      42.557  -0.002   7.791  1.00  0.00     0.277 HD
ATOM     13  H21 UNL     1      41.988  -1.196   8.599  1.00  0.00     0.277 HD
BRANCH  11  14
HETATM   14  C8  UNL     1      40.763   0.454   8.687  1.00  0.00     0.239 C 
BRANCH  14  15
HETATM   15  C7  UNL     1      40.648   1.786   7.982  1.00  0.00     0.047 C 
HETATM   16  C2  UNL     1      39.923   2.821   8.767  1.00  0.00     0.191 C 
HETATM   17  C3  UNL     1      39.795   4.094   7.964  1.00  0.00     0.039 C 
HETATM   18  C4  UNL     1      40.977   4.409   7.111  1.00  0.00     0.081 C 
HETATM   19  C5  UNL     1      42.230   3.711   7.554  1.00  0.00     0.244 C 
HETATM   20  F1  UNL     1      42.762   4.315   8.686  1.00  0.00    -0.206 F 
HETATM   21  F2  UNL     1      43.192   3.905   6.553  1.00  0.00    -0.206 F 
HETATM   22  C6  UNL     1      42.063   2.240   7.715  1.00  0.00     0.087 C 
BRANCH  16  23
HETATM   23  N1  UNL     1      38.545   2.406   9.060  1.00  0.00    -0.074 N 
HETATM   24  C1  UNL     1      37.764   2.460   7.843  1.00  0.00     0.267 C 
ATOM     25  H12 UNL     1      38.127   2.952   9.813  1.00  0.00     0.277 HD
ATOM     26  H11 UNL     1      38.503   1.490   9.507  1.00  0.00     0.277 HD
ENDBRANCH  16  23
ENDBRANCH  14  15
ENDBRANCH  11  14
ENDBRANCH  10  11
ENDBRANCH   9  10
ENDBRANCH   7   9
ENDBRANCH   6   7
ENDBRANCH   1   6
BRANCH   5  27
HETATM   27  O6  UNL     1      43.884  -2.529   2.971  1.00  0.00    -0.390 OA
ATOM     28  H6  UNL     1      43.638  -2.892   2.128  1.00  0.00     0.210 HD
ENDBRANCH   5  27
BRANCH   3  29
HETATM   29  O2  UNL     1      45.998   1.440   3.517  1.00  0.00    -0.348 OA
BRANCH  29  30
HETATM   30  C14 UNL     1      45.639   1.729   2.234  1.00  0.00     0.186 C 
HETATM   31  C15 UNL     1      44.867   2.986   2.027  1.00  0.00     0.180 C 
HETATM   32  C16 UNL     1      44.980   3.400   0.571  1.00  0.00     0.216 C 
HETATM   33  C17 UNL     1      46.395   3.804   0.268  1.00  0.00     0.071 C 
HETATM   34  C18 UNL     1      47.332   3.163   1.265  1.00  0.00     0.216 C 
HETATM   35  C19 UNL     1      46.891   1.711   1.386  1.00  0.00     0.180 C 
BRANCH  31  36
HETATM   36  O3  UNL     1      43.501   2.682   2.221  1.00  0.00    -0.391 OA
ATOM     37  H3  UNL     1      43.013   3.097   1.519  1.00  0.00     0.210 HD
ENDBRANCH  31  36
BRANCH  32  38
HETATM   38  N4  UNL     1      44.446   2.421  -0.333  1.00  0.00    -0.072 N 
ATOM     39  H43 UNL     1      43.498   2.667  -0.618  1.00  0.00     0.274 HD
ATOM     40  H42 UNL     1      44.911   2.470  -1.240  1.00  0.00     0.274 HD
ATOM     41  H41 UNL     1      44.480   1.472   0.043  1.00  0.00     0.274 HD
ENDBRANCH  32  38
BRANCH  34  42
HETATM   42  N5  UNL     1      48.715   3.286   0.915  1.00  0.00    -0.072 N 
ATOM     43  H53 UNL     1      48.830   3.298  -0.099  1.00  0.00     0.274 HD
ATOM     44  H52 UNL     1      49.060   4.219   1.137  1.00  0.00     0.274 HD
ATOM     45  H51 UNL     1      49.309   2.572   1.337  1.00  0.00     0.274 HD
ENDBRANCH  34  42
BRANCH  35  46
HETATM   46  O4  UNL     1      47.941   1.037   2.043  1.00  0.00    -0.391 OA
ATOM     47  H4  UNL     1      48.725   1.020   1.507  1.00  0.00     0.210 HD
ENDBRANCH  35  46
ENDBRANCH  29  30
ENDBRANCH   3  29
BRANCH   4  48
HETATM   48  O5  UNL     1      46.201  -1.832   3.561  1.00  0.00    -0.388 OA
ATOM     49  H5  UNL     1      47.119  -1.603   3.654  1.00  0.00     0.210 HD
ENDBRANCH   4  48
TORSDOF 16
ENDMDL
MODEL 4
REMARK VINA RESULT: -8.179660651      1.445      2.194
REMARK  16 active torsions:
REMARK  status: ('A' for Active; 'I' for Inactive)
REMARK    1  A    between atoms: N1_2  and  C2_5 
REMARK    2  A    between atoms: C7_12  and  C8_13 
REMARK    3  A    between atoms: C8_13  and  N2_14 
REMARK    4  A    between atoms: N2_14  and  C9_17 
REMARK    5  A    between atoms: C9_17  and  C10_18 
REMARK    6  A    between atoms: C10_18  and  N3_19 
REMARK    7  A    between atoms: N3_19  and  C11_21 
REMARK    8  A    between atoms: C11_21  and  C12_22 
REMARK    9  A    between atoms: C13_24  and  O2_25 
REMARK   10  A    between atoms: O2_25  and  C14_26 
REMARK   11  A    between atoms: C15_27  and  O3_28 
REMARK   12  A    between atoms: C16_30  and  N4_31 
REMARK   13  A    between atoms: C18_36  and  N5_37 
REMARK   14  A    between atoms: C19_41  and  O4_42 
REMARK   15  A    between atoms: C20_44  and  O5_45 
REMARK   16  A    between atoms: C21_47  and  O6_48 
ROOT
HETATM    1  C12 UNL     1      42.829  -0.451   4.477  1.00  0.00     0.173 C 
HETATM    2  O1  UNL     1      43.309   0.755   4.024  1.00  0.00    -0.349 OA
HETATM    3  C13 UNL     1      44.502   0.522   3.365  1.00  0.00     0.292 C 
HETATM    4  C20 UNL     1      44.513  -0.927   2.939  1.00  0.00     0.204 C 
HETATM    5  C21 UNL     1      43.197  -1.474   3.421  1.00  0.00     0.182 C 
ENDROOT
BRANCH   1   6
HETATM    6  C11 UNL     1      43.426  -0.874   5.809  1.00  0.00     0.148 C 
BRANCH   6   7
HETATM    7  N3  UNL     1      42.443  -1.478   6.658  1.00  0.00    -0.417 N 
ATOM      8  H3  UNL     1      42.578  -2.397   7.079  1.00  0.00     0.153 HD
BRANCH   7   9
HETATM    9  C10 UNL     1      41.253  -0.701   6.876  1.00  0.00     0.141 C 
BRANCH   9  10
HETATM   10  C9  UNL     1      41.536   0.269   7.997  1.00  0.00     0.251 C 
BRANCH  10  11
HETATM   11  N2  UNL     1      40.499   0.351   8.993  1.00  0.00    -0.073 N 
ATOM     12  H22 UNL     1      40.770  -0.128   9.851  1.00  0.00     0.277 HD
ATOM     13  H21 UNL     1      39.694  -0.221   8.738  1.00  0.00     0.277 HD
BRANCH  11  14
HETATM   14  C8  UNL     1      40.113   1.727   9.252  1.00  0.00     0.239 C 
BRANCH  14  15
HETATM   15  C7  UNL     1      39.739   2.451   7.979  1.00  0.00     0.047 C 
HETATM   16  C2  UNL     1      38.283   2.728   7.851  1.00  0.00     0.191 C 
HETATM   17  C3  UNL     1      37.990   3.390   6.525  1.00  0.00     0.039 C 
HETATM   18  C4  UNL     1      39.038   4.347   6.066  1.00  0.00     0.081 C 
HETATM   19  C5  UNL     1      39.916   4.842   7.178  1.00  0.00     0.244 C 
HETATM   20  F1  UNL     1      39.254   5.786   7.952  1.00  0.00    -0.206 F 
HETATM   21  F2  UNL     1      40.982   5.538   6.590  1.00  0.00    -0.206 F 
HETATM   22  C6  UNL     1      40.512   3.748   7.994  1.00  0.00     0.087 C 
BRANCH  16  23
HETATM   23  N1  UNL     1      37.498   1.488   7.848  1.00  0.00    -0.074 N 
HETATM   24  C1  UNL     1      36.312   1.678   7.041  1.00  0.00     0.267 C 
ATOM     25  H12 UNL     1      37.278   1.166   8.791  1.00  0.00     0.277 HD
ATOM     26  H11 UNL     1      38.046   0.683   7.547  1.00  0.00     0.277 HD
ENDBRANCH  16  23
ENDBRANCH  14  15
ENDBRANCH  11  14
ENDBRANCH  10  11
ENDBRANCH   9  10
ENDBRANCH   7   9
ENDBRANCH   6   7
ENDBRANCH   1   6
BRANCH   5  27
HETATM   27  O6  UNL     1      43.455  -2.730   3.958  1.00  0.00    -0.390 OA
ATOM     28  H6  UNL     1      44.085  -3.223   3.447  1.00  0.00     0.210 HD
ENDBRANCH   5  27
BRANCH   3  29
HETATM   29  O2  UNL     1      44.660   1.290   2.251  1.00  0.00    -0.348 OA
BRANCH  29  30
HETATM   30  C14 UNL     1      45.845   1.950   2.113  1.00  0.00     0.186 C 
HETATM   31  C15 UNL     1      46.846   1.335   1.197  1.00  0.00     0.180 C 
HETATM   32  C16 UNL     1      47.851   2.393   0.781  1.00  0.00     0.216 C 
HETATM   33  C17 UNL     1      47.175   3.422  -0.080  1.00  0.00     0.071 C 
HETATM   34  C18 UNL     1      45.689   3.420   0.195  1.00  0.00     0.216 C 
HETATM   35  C19 UNL     1      45.539   3.375   1.709  1.00  0.00     0.180 C 
BRANCH  31  36
HETATM   36  O3  UNL     1      47.586   0.394   1.947  1.00  0.00    -0.391 OA
ATOM     37  H3  UNL     1      48.462   0.361   1.580  1.00  0.00     0.210 HD
ENDBRANCH  31  36
BRANCH  32  38
HETATM   38  N4  UNL     1      48.576   2.944   1.891  1.00  0.00    -0.072 N 
ATOM     39  H43 UNL     1      49.497   3.269   1.599  1.00  0.00     0.274 HD
ATOM     40  H42 UNL     1      48.171   3.833   2.184  1.00  0.00     0.274 HD
ATOM     41  H41 UNL     1      48.648   2.299   2.678  1.00  0.00     0.274 HD
ENDBRANCH  32  38
BRANCH  34  42
HETATM   42  N5  UNL     1      44.994   4.526  -0.390  1.00  0.00    -0.072 N 
ATOM     43  H53 UNL     1      44.540   4.247  -1.260  1.00  0.00     0.274 HD
ATOM     44  H52 UNL     1      44.171   4.766   0.162  1.00  0.00     0.274 HD
ATOM     45  H51 UNL     1      45.581   5.347  -0.538  1.00  0.00     0.274 HD
ENDBRANCH  34  42
BRANCH  35  46
HETATM   46  O4  UNL     1      44.195   3.703   1.978  1.00  0.00    -0.391 OA
ATOM     47  H4  UNL     1      44.062   3.875   2.902  1.00  0.00     0.210 HD
ENDBRANCH  35  46
ENDBRANCH  29  30
ENDBRANCH   3  29
BRANCH   4  48
HETATM   48  O5  UNL     1      45.617  -1.631   3.390  1.00  0.00    -0.388 OA
ATOM     49  H5  UNL     1      45.441  -2.549   3.561  1.00  0.00     0.210 HD
ENDBRANCH   4  48
TORSDOF 16
ENDMDL
MODEL 5
REMARK VINA RESULT: -8.174206470      1.613      2.189
REMARK  16 active torsions:
REMARK  status: ('A' for Active; 'I' for Inactive)
REMARK    1  A    between atoms: N1_2  and  C2_5 
REMARK    2  A    between atoms: C7_12  and  C8_13 
REMARK    3  A    between atoms: C8_13  and  N2_14 
REMARK    4  A    between atoms: N2_14  and  C9_17 
REMARK    5  A    between atoms: C9_17  and  C10_18 
REMARK    6  A    between atoms: C10_18  and  N3_19 
REMARK    7  A    between atoms: N3_19  and  C11_21 
REMARK    8  A    between atoms: C11_21  and  C12_22 
REMARK    9  A    between atoms: C13_24  and  O2_25 
REMARK   10  A    between atoms: O2_25  and  C14_26 
REMARK   11  A    between atoms: C15_27  and  O3_28 
REMARK   12  A    between atoms: C16_30  and  N4_31 
REMARK   13  A    between atoms: C18_36  and  N5_37 
REMARK   14  A    between atoms: C19_41  and  O4_42 
REMARK   15  A    between atoms: C20_44  and  O5_45 
REMARK   16  A    between atoms: C21_47  and  O6_48 
ROOT
HETATM    1  C12 UNL     1      42.916  -0.685   4.311  1.00  0.00     0.173 C 
HETATM    2  O1  UNL     1      43.348   0.567   3.940  1.00  0.00    -0.349 OA
HETATM    3  C13 UNL     1      44.556   0.428   3.282  1.00  0.00     0.292 C 
HETATM    4  C20 UNL     1      44.635  -0.989   2.767  1.00  0.00     0.204 C 
HETATM    5  C21 UNL     1      43.339  -1.622   3.197  1.00  0.00     0.182 C 
ENDROOT
BRANCH   1   6
HETATM    6  C11 UNL     1      43.518  -1.165   5.621  1.00  0.00     0.148 C 
BRANCH   6   7
HETATM    7  N3  UNL     1      42.723  -2.195   6.219  1.00  0.00    -0.417 N 
ATOM      8  H3  UNL     1      42.990  -3.178   6.183  1.00  0.00     0.153 HD
BRANCH   7   9
HETATM    9  C10 UNL     1      41.523  -1.748   6.872  1.00  0.00     0.141 C 
BRANCH   9  10
HETATM   10  C9  UNL     1      41.931  -0.952   8.089  1.00  0.00     0.251 C 
BRANCH  10  11
HETATM   11  N2  UNL     1      41.098   0.190   8.362  1.00  0.00    -0.073 N 
ATOM     12  H22 UNL     1      41.651   0.986   8.680  1.00  0.00     0.277 HD
ATOM     13  H21 UNL     1      40.531   0.046   9.197  1.00  0.00     0.277 HD
BRANCH  11  14
HETATM   14  C8  UNL     1      40.276   0.540   7.217  1.00  0.00     0.239 C 
BRANCH  14  15
HETATM   15  C7  UNL     1      40.193   2.037   7.025  1.00  0.00     0.047 C 
HETATM   16  C2  UNL     1      39.424   2.737   8.089  1.00  0.00     0.191 C 
HETATM   17  C3  UNL     1      39.332   4.214   7.785  1.00  0.00     0.039 C 
HETATM   18  C4  UNL     1      40.556   4.792   7.158  1.00  0.00     0.081 C 
HETATM   19  C5  UNL     1      41.787   3.964   7.387  1.00  0.00     0.244 C 
HETATM   20  F1  UNL     1      42.258   4.120   8.684  1.00  0.00    -0.206 F 
HETATM   21  F2  UNL     1      42.798   4.486   6.568  1.00  0.00    -0.206 F 
HETATM   22  C6  UNL     1      41.618   2.535   7.006  1.00  0.00     0.087 C 
BRANCH  16  23
HETATM   23  N1  UNL     1      38.034   2.266   8.147  1.00  0.00    -0.074 N 
HETATM   24  C1  UNL     1      37.274   2.899   7.091  1.00  0.00     0.267 C 
ATOM     25  H12 UNL     1      37.614   2.408   9.065  1.00  0.00     0.277 HD
ATOM     26  H11 UNL     1      37.968   1.248   8.115  1.00  0.00     0.277 HD
ENDBRANCH  16  23
ENDBRANCH  14  15
ENDBRANCH  11  14
ENDBRANCH  10  11
ENDBRANCH   9  10
ENDBRANCH   7   9
ENDBRANCH   6   7
ENDBRANCH   1   6
BRANCH   5  27
HETATM   27  O6  UNL     1      43.646  -2.897   3.657  1.00  0.00    -0.390 OA
ATOM     28  H6  UNL     1      43.344  -3.049   4.545  1.00  0.00     0.210 HD
ENDBRANCH   5  27
BRANCH   3  29
HETATM   29  O2  UNL     1      44.691   1.271   2.221  1.00  0.00    -0.348 OA
BRANCH  29  30
HETATM   30  C14 UNL     1      45.870   1.947   2.109  1.00  0.00     0.186 C 
HETATM   31  C15 UNL     1      46.862   1.396   1.143  1.00  0.00     0.180 C 
HETATM   32  C16 UNL     1      47.855   2.485   0.780  1.00  0.00     0.216 C 
HETATM   33  C17 UNL     1      47.161   3.561  -0.006  1.00  0.00     0.071 C 
HETATM   34  C18 UNL     1      45.679   3.531   0.288  1.00  0.00     0.216 C 
HETATM   35  C19 UNL     1      45.550   3.392   1.798  1.00  0.00     0.180 C 
BRANCH  31  36
HETATM   36  O3  UNL     1      47.618   0.416   1.824  1.00  0.00    -0.391 OA
ATOM     37  H3  UNL     1      47.572  -0.385   1.315  1.00  0.00     0.210 HD
ENDBRANCH  31  36
BRANCH  32  38
HETATM   38  N4  UNL     1      48.591   2.972   1.913  1.00  0.00    -0.072 N 
ATOM     39  H43 UNL     1      48.033   3.634   2.452  1.00  0.00     0.274 HD
ATOM     40  H42 UNL     1      48.706   2.241   2.614  1.00  0.00     0.274 HD
ATOM     41  H41 UNL     1      49.492   3.377   1.657  1.00  0.00     0.274 HD
ENDBRANCH  32  38
BRANCH  34  42
HETATM   42  N5  UNL     1      44.969   4.667  -0.218  1.00  0.00    -0.072 N 
ATOM     43  H53 UNL     1      43.999   4.655   0.098  1.00  0.00     0.274 HD
ATOM     44  H52 UNL     1      45.287   5.522   0.238  1.00  0.00     0.274 HD
ATOM     45  H51 UNL     1      45.016   4.760  -1.233  1.00  0.00     0.274 HD
ENDBRANCH  34  42
BRANCH  35  46
HETATM   46  O4  UNL     1      44.207   3.693   2.104  1.00  0.00    -0.391 OA
ATOM     47  H4  UNL     1      43.619   3.347   1.444  1.00  0.00     0.210 HD
ENDBRANCH  35  46
ENDBRANCH  29  30
ENDBRANCH   3  29
BRANCH   4  48
HETATM   48  O5  UNL     1      45.764  -1.673   3.187  1.00  0.00    -0.388 OA
ATOM     49  H5  UNL     1      45.980  -1.528   4.100  1.00  0.00     0.210 HD
ENDBRANCH   4  48
TORSDOF 16
ENDMDL
