MODEL 1
REMARK VINA RESULT: -8.053155567      0.000      0.000
REMARK  18 active torsions:
REMARK  status: ('A' for Active; 'I' for Inactive)
REMARK    1  A    between atoms: C2_2  and  N1_3 
REMARK    2  A    between atoms: N1_3  and  C3_5 
REMARK    3  A    between atoms: C3_5  and  C4_6 
REMARK    4  A    between atoms: C4_6  and  O1_7 
REMARK    5  A    between atoms: C4_6  and  C5_9 
REMARK    6  A    between atoms: C5_9  and  C6_10 
REMARK    7  A    between atoms: C5_9  and  O2_21 
REMARK    8  A    between atoms: C6_10  and  N2_11 
REMARK    9  A    between atoms: N2_11  and  C7_14 
REMARK   10  A    between atoms: C7_14  and  C9_16 
REMARK   11  A    between atoms: C9_16  and  N3_17 
REMARK   12  A    between atoms: O2_21  and  C10_22 
REMARK   13  A    between atoms: C11_24  and  O4_25 
REMARK   14  A    between atoms: O4_25  and  C12_26 
REMARK   15  A    between atoms: C14_28  and  N4_29 
REMARK   16  A    between atoms: C17_37  and  O5_38 
REMARK   17  A    between atoms: C18_40  and  N5_41 
REMARK   18  A    between atoms: C20_46  and  N6_47 
ROOT
HETATM    1  C10 UNL     1      41.585   1.178   6.318  1.00  0.00     0.293 C 
HETATM    2  O3  UNL     1      42.456   0.793   5.336  1.00  0.00    -0.327 OA
HETATM    3  C11 UNL     1      43.158  -0.358   5.699  1.00  0.00     0.293 C 
HETATM    4  C18 UNL     1      42.175  -1.493   5.522  1.00  0.00     0.240 C 
HETATM    5  C19 UNL     1      41.046  -1.277   6.489  1.00  0.00     0.075 C 
HETATM    6  C20 UNL     1      40.983   0.063   7.116  1.00  0.00     0.240 C 
ENDROOT
BRANCH   1   7
HETATM    7  O2  UNL     1      40.586   2.020   5.780  1.00  0.00    -0.349 OA
BRANCH   7   8
HETATM    8  C5  UNL     1      40.654   3.316   6.204  1.00  0.00     0.180 C 
BRANCH   8   9
HETATM    9  C4  UNL     1      39.347   4.041   6.319  1.00  0.00     0.166 C 
BRANCH   9  10
HETATM   10  C3  UNL     1      38.638   3.912   7.618  1.00  0.00     0.148 C 
BRANCH  10  11
HETATM   11  N1  UNL     1      37.294   3.475   7.466  1.00  0.00    -0.419 N 
ATOM     12  H1  UNL     1      36.528   4.138   7.584  1.00  0.00     0.153 HD
BRANCH  11  13
HETATM   13  C2  UNL     1      37.017   2.132   7.153  1.00  0.00     0.109 C 
HETATM   14  C1  UNL     1      35.681   2.061   6.396  1.00  0.00     0.026 C 
ENDBRANCH  11  13
ENDBRANCH  10  11
ENDBRANCH   9  10
BRANCH   9  15
HETATM   15  O1  UNL     1      39.473   5.343   5.924  1.00  0.00    -0.391 OA
ATOM     16  H1  UNL     1      39.408   5.442   4.981  1.00  0.00     0.210 HD
ENDBRANCH   9  15
ENDBRANCH   8   9
BRANCH   8  17
HETATM   17  C6  UNL     1      41.478   3.544   7.447  1.00  0.00     0.267 C 
BRANCH  17  18
HETATM   18  N2  UNL     1      41.984   4.868   7.465  1.00  0.00    -0.067 N 
ATOM     19  H22 UNL     1      41.488   5.447   6.786  1.00  0.00     0.277 HD
ATOM     20  H21 UNL     1      41.714   5.339   8.328  1.00  0.00     0.277 HD
BRANCH  18  21
HETATM   21  C7  UNL     1      43.406   4.967   7.262  1.00  0.00     0.207 C 
HETATM   22  C8  UNL     1      43.989   3.775   6.544  1.00  0.00     0.041 C 
BRANCH  21  23
HETATM   23  C9  UNL     1      44.059   5.025   8.639  1.00  0.00     0.262 C 
BRANCH  23  24
HETATM   24  N3  UNL     1      44.489   6.360   8.966  1.00  0.00    -0.077 N 
ATOM     25  H33 UNL     1      44.258   7.018   8.222  1.00  0.00     0.274 HD
ATOM     26  H32 UNL     1      43.923   6.761   9.713  1.00  0.00     0.274 HD
ATOM     27  H31 UNL     1      45.482   6.390   9.195  1.00  0.00     0.274 HD
ENDBRANCH  23  24
ENDBRANCH  21  23
ENDBRANCH  18  21
ENDBRANCH  17  18
ENDBRANCH   8  17
ENDBRANCH   7   8
ENDBRANCH   1   7
BRANCH   6  28
HETATM   28  N6  UNL     1      41.472   0.038   8.503  1.00  0.00    -0.070 N 
ATOM     29  H63 UNL     1      41.392  -0.896   8.905  1.00  0.00     0.274 HD
ATOM     30  H62 UNL     1      42.487   0.143   8.537  1.00  0.00     0.274 HD
ATOM     31  H61 UNL     1      41.011   0.732   9.092  1.00  0.00     0.274 HD
ENDBRANCH   6  28
BRANCH   3  32
HETATM   32  O4  UNL     1      44.325  -0.512   4.971  1.00  0.00    -0.351 OA
BRANCH  32  33
HETATM   33  C12 UNL     1      44.373   0.274   3.835  1.00  0.00     0.161 C 
HETATM   34  C13 UNL     1      45.455   1.293   3.797  1.00  0.00     0.067 C 
HETATM   35  C14 UNL     1      45.224   2.218   2.597  1.00  0.00     0.191 C 
HETATM   36  C15 UNL     1      44.332   1.559   1.578  1.00  0.00     0.114 C 
HETATM   37  C16 UNL     1      44.668   0.107   1.378  1.00  0.00     0.273 C 
HETATM   38  F1  UNL     1      45.936   0.055   0.805  1.00  0.00    -0.203 F 
HETATM   39  F2  UNL     1      43.775  -0.390   0.444  1.00  0.00    -0.203 F 
HETATM   40  C17 UNL     1      44.592  -0.656   2.661  1.00  0.00     0.219 C 
BRANCH  35  41
HETATM   41  N4  UNL     1      44.549   3.399   3.090  1.00  0.00    -0.075 N 
ATOM     42  H43 UNL     1      44.440   3.403   4.104  1.00  0.00     0.274 HD
ATOM     43  H42 UNL     1      45.116   4.243   3.016  1.00  0.00     0.274 HD
ATOM     44  H41 UNL     1      43.661   3.469   2.593  1.00  0.00     0.274 HD
ENDBRANCH  35  41
BRANCH  40  45
HETATM   45  O5  UNL     1      43.662  -1.688   2.632  1.00  0.00    -0.387 OA
ATOM     46  H5  UNL     1      43.705  -2.228   3.413  1.00  0.00     0.210 HD
ENDBRANCH  40  45
ENDBRANCH  32  33
ENDBRANCH   3  32
BRANCH   4  47
HETATM   47  N5  UNL     1      42.748  -2.795   5.635  1.00  0.00    -0.070 N 
ATOM     48  H53 UNL     1      43.557  -2.881   5.020  1.00  0.00     0.274 HD
ATOM     49  H52 UNL     1      43.203  -2.906   6.540  1.00  0.00     0.274 HD
ATOM     50  H51 UNL     1      42.094  -3.561   5.470  1.00  0.00     0.274 HD
ENDBRANCH   4  47
TORSDOF 18
ENDMDL
MODEL 2
REMARK VINA RESULT: -7.976606376      1.163      3.724
REMARK  18 active torsions:
REMARK  status: ('A' for Active; 'I' for Inactive)
REMARK    1  A    between atoms: C2_2  and  N1_3 
REMARK    2  A    between atoms: N1_3  and  C3_5 
REMARK    3  A    between atoms: C3_5  and  C4_6 
REMARK    4  A    between atoms: C4_6  and  O1_7 
REMARK    5  A    between atoms: C4_6  and  C5_9 
REMARK    6  A    between atoms: C5_9  and  C6_10 
REMARK    7  A    between atoms: C5_9  and  O2_21 
REMARK    8  A    between atoms: C6_10  and  N2_11 
REMARK    9  A    between atoms: N2_11  and  C7_14 
REMARK   10  A    between atoms: C7_14  and  C9_16 
REMARK   11  A    between atoms: C9_16  and  N3_17 
REMARK   12  A    between atoms: O2_21  and  C10_22 
REMARK   13  A    between atoms: C11_24  and  O4_25 
REMARK   14  A    between atoms: O4_25  and  C12_26 
REMARK   15  A    between atoms: C14_28  and  N4_29 
REMARK   16  A    between atoms: C17_37  and  O5_38 
REMARK   17  A    between atoms: C18_40  and  N5_41 
REMARK   18  A    between atoms: C20_46  and  N6_47 
ROOT
HETATM    1  C10 UNL     1      42.043   1.367   6.307  1.00  0.00     0.293 C 
HETATM    2  O3  UNL     1      42.812   0.962   5.252  1.00  0.00    -0.327 OA
HETATM    3  C11 UNL     1      43.392  -0.285   5.492  1.00  0.00     0.293 C 
HETATM    4  C18 UNL     1      42.274  -1.285   5.293  1.00  0.00     0.240 C 
HETATM    5  C19 UNL     1      41.229  -1.017   6.337  1.00  0.00     0.075 C 
HETATM    6  C20 UNL     1      41.355   0.269   7.059  1.00  0.00     0.240 C 
ENDROOT
BRANCH   1   7
HETATM    7  O2  UNL     1      41.124   2.356   5.890  1.00  0.00    -0.349 OA
BRANCH   7   8
HETATM    8  C5  UNL     1      40.770   3.243   6.865  1.00  0.00     0.180 C 
BRANCH   8   9
HETATM    9  C4  UNL     1      41.862   3.663   7.802  1.00  0.00     0.166 C 
BRANCH   9  10
HETATM   10  C3  UNL     1      42.853   4.630   7.261  1.00  0.00     0.148 C 
BRANCH  10  11
HETATM   11  N1  UNL     1      44.146   4.461   7.827  1.00  0.00    -0.419 N 
ATOM     12  H1  UNL     1      44.781   3.762   7.442  1.00  0.00     0.153 HD
BRANCH  11  13
HETATM   13  C2  UNL     1      44.552   5.253   8.916  1.00  0.00     0.109 C 
HETATM   14  C1  UNL     1      45.702   4.543   9.648  1.00  0.00     0.026 C 
ENDBRANCH  11  13
ENDBRANCH  10  11
ENDBRANCH   9  10
BRANCH   9  15
HETATM   15  O1  UNL     1      41.350   4.062   9.004  1.00  0.00    -0.391 OA
ATOM     16  H1  UNL     1      40.431   4.293   8.946  1.00  0.00     0.210 HD
ENDBRANCH   9  15
ENDBRANCH   8   9
BRANCH   8  17
HETATM   17  C6  UNL     1      40.009   4.455   6.387  1.00  0.00     0.267 C 
BRANCH  17  18
HETATM   18  N2  UNL     1      38.761   4.545   7.052  1.00  0.00    -0.067 N 
ATOM     19  H22 UNL     1      38.806   5.239   7.799  1.00  0.00     0.277 HD
ATOM     20  H21 UNL     1      38.067   4.983   6.447  1.00  0.00     0.277 HD
BRANCH  18  21
HETATM   21  C7  UNL     1      38.264   3.293   7.562  1.00  0.00     0.207 C 
HETATM   22  C8  UNL     1      37.003   2.830   6.874  1.00  0.00     0.041 C 
BRANCH  21  23
HETATM   23  C9  UNL     1      37.922   3.504   9.033  1.00  0.00     0.262 C 
BRANCH  23  24
HETATM   24  N3  UNL     1      38.912   2.915   9.897  1.00  0.00    -0.077 N 
ATOM     25  H33 UNL     1      39.405   2.153   9.433  1.00  0.00     0.274 HD
ATOM     26  H32 UNL     1      39.699   3.546  10.046  1.00  0.00     0.274 HD
ATOM     27  H31 UNL     1      38.506   2.612  10.782  1.00  0.00     0.274 HD
ENDBRANCH  23  24
ENDBRANCH  21  23
ENDBRANCH  18  21
ENDBRANCH  17  18
ENDBRANCH   8  17
ENDBRANCH   7   8
ENDBRANCH   1   7
BRANCH   6  28
HETATM   28  N6  UNL     1      41.906   0.083   8.410  1.00  0.00    -0.070 N 
ATOM     29  H63 UNL     1      41.729   0.899   8.995  1.00  0.00     0.274 HD
ATOM     30  H62 UNL     1      41.371  -0.611   8.933  1.00  0.00     0.274 HD
ATOM     31  H61 UNL     1      42.899  -0.151   8.397  1.00  0.00     0.274 HD
ENDBRANCH   6  28
BRANCH   3  32
HETATM   32  O4  UNL     1      44.495  -0.515   4.688  1.00  0.00    -0.351 OA
BRANCH  32  33
HETATM   33  C12 UNL     1      44.548   0.307   3.578  1.00  0.00     0.161 C 
HETATM   34  C13 UNL     1      45.658   1.297   3.558  1.00  0.00     0.067 C 
HETATM   35  C14 UNL     1      45.435   2.269   2.393  1.00  0.00     0.191 C 
HETATM   36  C15 UNL     1      44.511   1.670   1.367  1.00  0.00     0.114 C 
HETATM   37  C16 UNL     1      44.802   0.216   1.113  1.00  0.00     0.273 C 
HETATM   38  F1  UNL     1      46.060   0.149   0.519  1.00  0.00    -0.203 F 
HETATM   39  F2  UNL     1      43.882  -0.224   0.177  1.00  0.00    -0.203 F 
HETATM   40  C17 UNL     1      44.724  -0.588   2.370  1.00  0.00     0.219 C 
BRANCH  35  41
HETATM   41  N4  UNL     1      44.801   3.450   2.937  1.00  0.00    -0.075 N 
ATOM     42  H43 UNL     1      44.337   3.280   3.829  1.00  0.00     0.274 HD
ATOM     43  H42 UNL     1      45.469   4.146   3.267  1.00  0.00     0.274 HD
ATOM     44  H41 UNL     1      44.170   3.811   2.221  1.00  0.00     0.274 HD
ENDBRANCH  35  41
BRANCH  40  45
HETATM   45  O5  UNL     1      43.765  -1.592   2.322  1.00  0.00    -0.387 OA
ATOM     46  H5  UNL     1      43.868  -2.147   1.557  1.00  0.00     0.210 HD
ENDBRANCH  40  45
ENDBRANCH  32  33
ENDBRANCH   3  32
BRANCH   4  47
HETATM   47  N5  UNL     1      42.696  -2.649   5.281  1.00  0.00    -0.070 N 
ATOM     48  H53 UNL     1      43.054  -2.901   4.360  1.00  0.00     0.274 HD
ATOM     49  H52 UNL     1      43.543  -2.764   5.836  1.00  0.00     0.274 HD
ATOM     50  H51 UNL     1      41.982  -3.315   5.579  1.00  0.00     0.274 HD
ENDBRANCH   4  47
TORSDOF 18
ENDMDL
MODEL 3
REMARK VINA RESULT: -7.756826272      1.115      3.938
REMARK  18 active torsions:
REMARK  status: ('A' for Active; 'I' for Inactive)
REMARK    1  A    between atoms: C2_2  and  N1_3 
REMARK    2  A    between atoms: N1_3  and  C3_5 
REMARK    3  A    between atoms: C3_5  and  C4_6 
REMARK    4  A    between atoms: C4_6  and  O1_7 
REMARK    5  A    between atoms: C4_6  and  C5_9 
REMARK    6  A    between atoms: C5_9  and  C6_10 
REMARK    7  A    between atoms: C5_9  and  O2_21 
REMARK    8  A    between atoms: C6_10  and  N2_11 
REMARK    9  A    between atoms: N2_11  and  C7_14 
REMARK   10  A    between atoms: C7_14  and  C9_16 
REMARK   11  A    between atoms: C9_16  and  N3_17 
REMARK   12  A    between atoms: O2_21  and  C10_22 
REMARK   13  A    between atoms: C11_24  and  O4_25 
REMARK   14  A    between atoms: O4_25  and  C12_26 
REMARK   15  A    between atoms: C14_28  and  N4_29 
REMARK   16  A    between atoms: C17_37  and  O5_38 
REMARK   17  A    between atoms: C18_40  and  N5_41 
REMARK   18  A    between atoms: C20_46  and  N6_47 
ROOT
HETATM    1  C10 UNL     1      42.181   1.334   6.613  1.00  0.00     0.293 C 
HETATM    2  O3  UNL     1      42.898   0.952   5.514  1.00  0.00    -0.327 OA
HETATM    3  C11 UNL     1      43.345  -0.366   5.628  1.00  0.00     0.293 C 
HETATM    4  C18 UNL     1      42.128  -1.221   5.355  1.00  0.00     0.240 C 
HETATM    5  C19 UNL     1      41.122  -0.945   6.436  1.00  0.00     0.075 C 
HETATM    6  C20 UNL     1      41.386   0.248   7.271  1.00  0.00     0.240 C 
ENDROOT
BRANCH   1   7
HETATM    7  O2  UNL     1      41.368   2.447   6.303  1.00  0.00    -0.349 OA
BRANCH   7   8
HETATM    8  C5  UNL     1      41.492   3.494   7.170  1.00  0.00     0.180 C 
BRANCH   8   9
HETATM    9  C4  UNL     1      42.831   4.168   7.202  1.00  0.00     0.166 C 
BRANCH   9  10
HETATM   10  C3  UNL     1      43.537   4.163   8.510  1.00  0.00     0.148 C 
BRANCH  10  11
HETATM   11  N1  UNL     1      44.029   5.447   8.869  1.00  0.00    -0.419 N 
ATOM     12  H1  UNL     1      43.394   6.244   8.898  1.00  0.00     0.153 HD
BRANCH  11  13
HETATM   13  C2  UNL     1      45.387   5.622   9.186  1.00  0.00     0.109 C 
HETATM   14  C1  UNL     1      45.889   4.378   9.937  1.00  0.00     0.026 C 
ENDBRANCH  11  13
ENDBRANCH  10  11
ENDBRANCH   9  10
BRANCH   9  15
HETATM   15  O1  UNL     1      43.626   3.726   6.182  1.00  0.00    -0.391 OA
ATOM     16  H1  UNL     1      44.170   4.417   5.824  1.00  0.00     0.210 HD
ENDBRANCH   9  15
ENDBRANCH   8   9
BRANCH   8  17
HETATM   17  C6  UNL     1      40.398   4.530   7.091  1.00  0.00     0.267 C 
BRANCH  17  18
HETATM   18  N2  UNL     1      39.236   3.972   6.503  1.00  0.00    -0.067 N 
ATOM     19  H22 UNL     1      38.998   4.470   5.645  1.00  0.00     0.277 HD
ATOM     20  H21 UNL     1      39.441   3.049   6.119  1.00  0.00     0.277 HD
BRANCH  18  21
HETATM   21  C7  UNL     1      38.094   3.908   7.379  1.00  0.00     0.207 C 
HETATM   22  C8  UNL     1      38.431   4.218   8.817  1.00  0.00     0.041 C 
BRANCH  21  23
HETATM   23  C9  UNL     1      37.569   2.477   7.339  1.00  0.00     0.262 C 
BRANCH  23  24
HETATM   24  N3  UNL     1      38.239   1.639   8.299  1.00  0.00    -0.077 N 
ATOM     25  H33 UNL     1      37.607   0.939   8.687  1.00  0.00     0.274 HD
ATOM     26  H32 UNL     1      38.908   1.017   7.848  1.00  0.00     0.274 HD
ATOM     27  H31 UNL     1      38.681   2.190   9.035  1.00  0.00     0.274 HD
ENDBRANCH  23  24
ENDBRANCH  21  23
ENDBRANCH  18  21
ENDBRANCH  17  18
ENDBRANCH   8  17
ENDBRANCH   7   8
ENDBRANCH   1   7
BRANCH   6  28
HETATM   28  N6  UNL     1      41.923  -0.120   8.591  1.00  0.00    -0.070 N 
ATOM     29  H63 UNL     1      41.389   0.320   9.340  1.00  0.00     0.274 HD
ATOM     30  H62 UNL     1      41.731  -1.099   8.806  1.00  0.00     0.274 HD
ATOM     31  H61 UNL     1      42.918   0.088   8.678  1.00  0.00     0.274 HD
ENDBRANCH   6  28
BRANCH   3  32
HETATM   32  O4  UNL     1      44.413  -0.632   4.789  1.00  0.00    -0.351 OA
BRANCH  32  33
HETATM   33  C12 UNL     1      44.493   0.227   3.709  1.00  0.00     0.161 C 
HETATM   34  C13 UNL     1      45.600   1.219   3.751  1.00  0.00     0.067 C 
HETATM   35  C14 UNL     1      45.405   2.228   2.613  1.00  0.00     0.191 C 
HETATM   36  C15 UNL     1      44.508   1.663   1.544  1.00  0.00     0.114 C 
HETATM   37  C16 UNL     1      44.810   0.219   1.250  1.00  0.00     0.273 C 
HETATM   38  F1  UNL     1      46.082   0.174   0.686  1.00  0.00    -0.203 F 
HETATM   39  F2  UNL     1      43.915  -0.191   0.276  1.00  0.00    -0.203 F 
HETATM   40  C17 UNL     1      44.701  -0.627   2.477  1.00  0.00     0.219 C 
BRANCH  35  41
HETATM   41  N4  UNL     1      44.755   3.390   3.180  1.00  0.00    -0.075 N 
ATOM     42  H43 UNL     1      44.051   3.153   3.878  1.00  0.00     0.274 HD
ATOM     43  H42 UNL     1      45.366   3.933   3.789  1.00  0.00     0.274 HD
ATOM     44  H41 UNL     1      44.379   3.934   2.403  1.00  0.00     0.274 HD
ENDBRANCH  35  41
BRANCH  40  45
HETATM   45  O5  UNL     1      43.747  -1.630   2.370  1.00  0.00    -0.387 OA
ATOM     46  H5  UNL     1      43.174  -1.500   1.623  1.00  0.00     0.210 HD
ENDBRANCH  40  45
ENDBRANCH  32  33
ENDBRANCH   3  32
BRANCH   4  47
HETATM   47  N5  UNL     1      42.404  -2.614   5.210  1.00  0.00    -0.070 N 
ATOM     48  H53 UNL     1      43.116  -2.762   4.495  1.00  0.00     0.274 HD
ATOM     49  H52 UNL     1      42.903  -2.964   6.028  1.00  0.00     0.274 HD
ATOM     50  H51 UNL     1      41.584  -3.190   5.020  1.00  0.00     0.274 HD
ENDBRANCH   4  47
TORSDOF 18
ENDMDL
MODEL 4
REMARK VINA RESULT: -7.751019315      2.266      4.278
REMARK  18 active torsions:
REMARK  status: ('A' for Active; 'I' for Inactive)
REMARK    1  A    between atoms: C2_2  and  N1_3 
REMARK    2  A    between atoms: N1_3  and  C3_5 
REMARK    3  A    between atoms: C3_5  and  C4_6 
REMARK    4  A    between atoms: C4_6  and  O1_7 
REMARK    5  A    between atoms: C4_6  and  C5_9 
REMARK    6  A    between atoms: C5_9  and  C6_10 
REMARK    7  A    between atoms: C5_9  and  O2_21 
REMARK    8  A    between atoms: C6_10  and  N2_11 
REMARK    9  A    between atoms: N2_11  and  C7_14 
REMARK   10  A    between atoms: C7_14  and  C9_16 
REMARK   11  A    between atoms: C9_16  and  N3_17 
REMARK   12  A    between atoms: O2_21  and  C10_22 
REMARK   13  A    between atoms: C11_24  and  O4_25 
REMARK   14  A    between atoms: O4_25  and  C12_26 
REMARK   15  A    between atoms: C14_28  and  N4_29 
REMARK   16  A    between atoms: C17_37  and  O5_38 
REMARK   17  A    between atoms: C18_40  and  N5_41 
REMARK   18  A    between atoms: C20_46  and  N6_47 
ROOT
HETATM    1  C10 UNL     1      43.188   1.457   4.867  1.00  0.00     0.293 C 
HETATM    2  O3  UNL     1      44.060   1.820   3.878  1.00  0.00    -0.327 OA
HETATM    3  C11 UNL     1      44.975   0.802   3.605  1.00  0.00     0.293 C 
HETATM    4  C18 UNL     1      44.203  -0.218   2.798  1.00  0.00     0.240 C 
HETATM    5  C19 UNL     1      43.107  -0.759   3.671  1.00  0.00     0.075 C 
HETATM    6  C20 UNL     1      42.839   0.001   4.913  1.00  0.00     0.240 C 
ENDROOT
BRANCH   1   7
HETATM    7  O2  UNL     1      42.027   2.260   4.812  1.00  0.00    -0.349 OA
BRANCH   7   8
HETATM    8  C5  UNL     1      41.393   2.417   6.011  1.00  0.00     0.180 C 
BRANCH   8   9
HETATM    9  C4  UNL     1      42.262   2.809   7.168  1.00  0.00     0.166 C 
BRANCH   9  10
HETATM   10  C3  UNL     1      42.517   4.264   7.332  1.00  0.00     0.148 C 
BRANCH  10  11
HETATM   11  N1  UNL     1      43.088   4.579   8.595  1.00  0.00    -0.419 N 
ATOM     12  H1  UNL     1      42.656   4.228   9.449  1.00  0.00     0.153 HD
BRANCH  11  13
HETATM   13  C2  UNL     1      44.245   5.374   8.671  1.00  0.00     0.109 C 
HETATM   14  C1  UNL     1      45.330   4.604   9.443  1.00  0.00     0.026 C 
ENDBRANCH  11  13
ENDBRANCH  10  11
ENDBRANCH   9  10
BRANCH   9  15
HETATM   15  O1  UNL     1      41.830   2.225   8.326  1.00  0.00    -0.391 OA
ATOM     16  H1  UNL     1      41.865   1.276   8.286  1.00  0.00     0.210 HD
ENDBRANCH   9  15
ENDBRANCH   8   9
BRANCH   8  17
HETATM   17  C6  UNL     1      40.159   3.283   5.979  1.00  0.00     0.267 C 
BRANCH  17  18
HETATM   18  N2  UNL     1      39.293   2.943   7.049  1.00  0.00    -0.067 N 
ATOM     19  H22 UNL     1      38.608   2.252   6.744  1.00  0.00     0.277 HD
ATOM     20  H21 UNL     1      39.793   2.398   7.750  1.00  0.00     0.277 HD
BRANCH  18  21
HETATM   21  C7  UNL     1      38.633   4.067   7.663  1.00  0.00     0.207 C 
HETATM   22  C8  UNL     1      39.165   5.398   7.193  1.00  0.00     0.041 C 
BRANCH  21  23
HETATM   23  C9  UNL     1      38.894   3.983   9.163  1.00  0.00     0.262 C 
BRANCH  23  24
HETATM   24  N3  UNL     1      39.130   2.627   9.586  1.00  0.00    -0.077 N 
ATOM     25  H33 UNL     1      38.255   2.113   9.693  1.00  0.00     0.274 HD
ATOM     26  H32 UNL     1      39.549   2.072   8.840  1.00  0.00     0.274 HD
ATOM     27  H31 UNL     1      39.689   2.590  10.437  1.00  0.00     0.274 HD
ENDBRANCH  23  24
ENDBRANCH  21  23
ENDBRANCH  18  21
ENDBRANCH  17  18
ENDBRANCH   8  17
ENDBRANCH   7   8
ENDBRANCH   1   7
BRANCH   6  28
HETATM   28  N6  UNL     1      43.397  -0.673   6.095  1.00  0.00    -0.070 N 
ATOM     29  H63 UNL     1      43.147  -0.181   6.952  1.00  0.00     0.274 HD
ATOM     30  H62 UNL     1      42.922  -1.559   6.271  1.00  0.00     0.274 HD
ATOM     31  H61 UNL     1      44.407  -0.804   6.028  1.00  0.00     0.274 HD
ENDBRANCH   6  28
BRANCH   3  32
HETATM   32  O4  UNL     1      46.110   1.272   2.969  1.00  0.00    -0.351 OA
BRANCH  32  33
HETATM   33  C12 UNL     1      45.837   2.042   1.854  1.00  0.00     0.161 C 
HETATM   34  C13 UNL     1      45.978   3.512   2.031  1.00  0.00     0.067 C 
HETATM   35  C14 UNL     1      45.420   4.216   0.788  1.00  0.00     0.191 C 
HETATM   36  C15 UNL     1      45.374   3.274  -0.386  1.00  0.00     0.114 C 
HETATM   37  C16 UNL     1      46.604   2.412  -0.475  1.00  0.00     0.273 C 
HETATM   38  F1  UNL     1      47.675   3.256  -0.757  1.00  0.00    -0.203 F 
HETATM   39  F2  UNL     1      46.436   1.582  -1.571  1.00  0.00    -0.203 F 
HETATM   40  C17 UNL     1      46.815   1.624   0.777  1.00  0.00     0.219 C 
BRANCH  35  41
HETATM   41  N4  UNL     1      44.065   4.618   1.097  1.00  0.00    -0.075 N 
ATOM     42  H43 UNL     1      43.691   4.160   1.928  1.00  0.00     0.274 HD
ATOM     43  H42 UNL     1      44.000   5.577   1.436  1.00  0.00     0.274 HD
ATOM     44  H41 UNL     1      43.502   4.450   0.263  1.00  0.00     0.274 HD
ENDBRANCH  35  41
BRANCH  40  45
HETATM   45  O5  UNL     1      46.807   0.251   0.569  1.00  0.00    -0.387 OA
ATOM     46  H5  UNL     1      47.556  -0.038   0.061  1.00  0.00     0.210 HD
ENDBRANCH  40  45
ENDBRANCH  32  33
ENDBRANCH   3  32
BRANCH   4  47
HETATM   47  N5  UNL     1      45.005  -1.251   2.227  1.00  0.00    -0.070 N 
ATOM     48  H53 UNL     1      45.153  -2.000   2.902  1.00  0.00     0.274 HD
ATOM     49  H52 UNL     1      44.478  -1.758   1.516  1.00  0.00     0.274 HD
ATOM     50  H51 UNL     1      45.898  -0.932   1.848  1.00  0.00     0.274 HD
ENDBRANCH   4  47
TORSDOF 18
ENDMDL
MODEL 5
REMARK VINA RESULT: -7.498205163      2.143      2.778
REMARK  18 active torsions:
REMARK  status: ('A' for Active; 'I' for Inactive)
REMARK    1  A    between atoms: C2_2  and  N1_3 
REMARK    2  A    between atoms: N1_3  and  C3_5 
REMARK    3  A    between atoms: C3_5  and  C4_6 
REMARK    4  A    between atoms: C4_6  and  O1_7 
REMARK    5  A    between atoms: C4_6  and  C5_9 
REMARK    6  A    between atoms: C5_9  and  C6_10 
REMARK    7  A    between atoms: C5_9  and  O2_21 
REMARK    8  A    between atoms: C6_10  and  N2_11 
REMARK    9  A    between atoms: N2_11  and  C7_14 
REMARK   10  A    between atoms: C7_14  and  C9_16 
REMARK   11  A    between atoms: C9_16  and  N3_17 
REMARK   12  A    between atoms: O2_21  and  C10_22 
REMARK   13  A    between atoms: C11_24  and  O4_25 
REMARK   14  A    between atoms: O4_25  and  C12_26 
REMARK   15  A    between atoms: C14_28  and  N4_29 
REMARK   16  A    between atoms: C17_37  and  O5_38 
REMARK   17  A    between atoms: C18_40  and  N5_41 
REMARK   18  A    between atoms: C20_46  and  N6_47 
ROOT
HETATM    1  C10 UNL     1      42.659   0.717   5.475  1.00  0.00     0.293 C 
HETATM    2  O3  UNL     1      43.522   1.310   4.596  1.00  0.00    -0.327 OA
HETATM    3  C11 UNL     1      44.602   0.477   4.298  1.00  0.00     0.293 C 
HETATM    4  C18 UNL     1      44.051  -0.557   3.341  1.00  0.00     0.240 C 
HETATM    5  C19 UNL     1      43.003  -1.346   4.072  1.00  0.00     0.075 C 
HETATM    6  C20 UNL     1      42.543  -0.771   5.356  1.00  0.00     0.240 C 
ENDROOT
BRANCH   1   7
HETATM    7  O2  UNL     1      41.392   1.337   5.408  1.00  0.00    -0.349 OA
BRANCH   7   8
HETATM    8  C5  UNL     1      41.010   1.964   6.560  1.00  0.00     0.180 C 
BRANCH   8   9
HETATM    9  C4  UNL     1      40.071   1.201   7.444  1.00  0.00     0.166 C 
BRANCH   9  10
HETATM   10  C3  UNL     1      40.353   1.256   8.902  1.00  0.00     0.148 C 
BRANCH  10  11
HETATM   11  N1  UNL     1      39.403   2.037   9.614  1.00  0.00    -0.419 N 
ATOM     12  H1  UNL     1      38.458   1.680   9.758  1.00  0.00     0.153 HD
BRANCH  11  13
HETATM   13  C2  UNL     1      39.759   3.300  10.119  1.00  0.00     0.109 C 
HETATM   14  C1  UNL     1      38.654   4.309   9.766  1.00  0.00     0.026 C 
ENDBRANCH  11  13
ENDBRANCH  10  11
ENDBRANCH   9  10
BRANCH   9  15
HETATM   15  O1  UNL     1      38.770   1.504   7.156  1.00  0.00    -0.391 OA
ATOM     16  H1  UNL     1      38.466   2.271   7.627  1.00  0.00     0.210 HD
ENDBRANCH   9  15
ENDBRANCH   8   9
BRANCH   8  17
HETATM   17  C6  UNL     1      42.135   2.541   7.382  1.00  0.00     0.267 C 
BRANCH  17  18
HETATM   18  N2  UNL     1      41.987   3.945   7.499  1.00  0.00    -0.067 N 
ATOM     19  H22 UNL     1      41.226   4.273   6.905  1.00  0.00     0.277 HD
ATOM     20  H21 UNL     1      41.611   4.187   8.416  1.00  0.00     0.277 HD
BRANCH  18  21
HETATM   21  C7  UNL     1      43.187   4.697   7.235  1.00  0.00     0.207 C 
HETATM   22  C8  UNL     1      44.166   3.961   6.354  1.00  0.00     0.041 C 
BRANCH  21  23
HETATM   23  C9  UNL     1      43.879   4.935   8.573  1.00  0.00     0.262 C 
BRANCH  23  24
HETATM   24  N3  UNL     1      44.209   6.324   8.759  1.00  0.00    -0.077 N 
ATOM     25  H33 UNL     1      44.634   6.721   7.921  1.00  0.00     0.274 HD
ATOM     26  H32 UNL     1      43.372   6.904   8.802  1.00  0.00     0.274 HD
ATOM     27  H31 UNL     1      44.801   6.463   9.578  1.00  0.00     0.274 HD
ENDBRANCH  23  24
ENDBRANCH  21  23
ENDBRANCH  18  21
ENDBRANCH  17  18
ENDBRANCH   8  17
ENDBRANCH   7   8
ENDBRANCH   1   7
BRANCH   6  28
HETATM   28  N6  UNL     1      43.128  -1.475   6.508  1.00  0.00    -0.070 N 
ATOM     29  H63 UNL     1      42.423  -2.020   7.002  1.00  0.00     0.274 HD
ATOM     30  H62 UNL     1      43.738  -2.234   6.204  1.00  0.00     0.274 HD
ATOM     31  H61 UNL     1      43.616  -0.843   7.143  1.00  0.00     0.274 HD
ENDBRANCH   6  28
BRANCH   3  32
HETATM   32  O4  UNL     1      45.685   1.179   3.798  1.00  0.00    -0.351 OA
BRANCH  32  33
HETATM   33  C12 UNL     1      45.459   1.723   2.548  1.00  0.00     0.161 C 
HETATM   34  C13 UNL     1      45.001   3.137   2.530  1.00  0.00     0.067 C 
HETATM   35  C14 UNL     1      44.578   3.504   1.102  1.00  0.00     0.191 C 
HETATM   36  C15 UNL     1      45.195   2.561   0.103  1.00  0.00     0.114 C 
HETATM   37  C16 UNL     1      46.630   2.245   0.425  1.00  0.00     0.273 C 
HETATM   38  F1  UNL     1      47.352   3.425   0.271  1.00  0.00    -0.203 F 
HETATM   39  F2  UNL     1      47.076   1.360  -0.543  1.00  0.00    -0.203 F 
HETATM   40  C17 UNL     1      46.771   1.666   1.796  1.00  0.00     0.219 C 
BRANCH  35  41
HETATM   41  N4  UNL     1      43.140   3.359   1.031  1.00  0.00    -0.075 N 
ATOM     42  H43 UNL     1      42.658   4.239   0.852  1.00  0.00     0.274 HD
ATOM     43  H42 UNL     1      42.829   2.866   0.195  1.00  0.00     0.274 HD
ATOM     44  H41 UNL     1      42.839   2.908   1.896  1.00  0.00     0.274 HD
ENDBRANCH  35  41
BRANCH  40  45
HETATM   45  O5  UNL     1      47.320   0.391   1.800  1.00  0.00    -0.387 OA
ATOM     46  H5  UNL     1      48.269   0.410   1.756  1.00  0.00     0.210 HD
ENDBRANCH  40  45
ENDBRANCH  32  33
ENDBRANCH   3  32
BRANCH   4  47
HETATM   47  N5  UNL     1      45.040  -1.390   2.737  1.00  0.00    -0.070 N 
ATOM     48  H53 UNL     1      45.920  -0.884   2.641  1.00  0.00     0.274 HD
ATOM     49  H52 UNL     1      45.329  -2.124   3.384  1.00  0.00     0.274 HD
ATOM     50  H51 UNL     1      44.763  -1.794   1.842  1.00  0.00     0.274 HD
ENDBRANCH   4  47
TORSDOF 18
ENDMDL
