MODEL 1
REMARK VINA RESULT: -6.935998632      0.000      0.000
REMARK  8 active torsions:
REMARK  status: ('A' for Active; 'I' for Inactive)
REMARK    1  A    between atoms: N1_1  and  C1_5 
REMARK    2  A    between atoms: C2_6  and  N2_7 
REMARK    3  A    between atoms: N2_7  and  C3_9 
REMARK    4  A    between atoms: C4_11  and  O2_12 
REMARK    5  A    between atoms: C5_14  and  O3_15 
REMARK    6  A    between atoms: C7_19  and  N3_20 
REMARK    7  A    between atoms: N3_20  and  C8_22 
REMARK    8  A    between atoms: C8_22  and  C9_23 
ROOT
HETATM    1  C1  UNL     1     -23.753   0.961   5.731  1.00  0.00     0.233 C 
HETATM    2  C2  UNL     1     -24.722   0.716   6.863  1.00  0.00     0.147 C 
HETATM    3  C4  UNL     1     -24.681  -0.741   7.212  1.00  0.00     0.174 C 
HETATM    4  C5  UNL     1     -24.083  -1.613   6.174  1.00  0.00     0.184 C 
HETATM    5  C6  UNL     1     -22.702  -1.216   5.724  1.00  0.00     0.226 C 
HETATM    6  F1  UNL     1     -22.632  -1.561   4.400  1.00  0.00    -0.244 F 
HETATM    7  C7  UNL     1     -22.448   0.208   6.034  1.00  0.00     0.150 C 
ENDROOT
BRANCH   7   8
HETATM    8  N3  UNL     1     -21.393   0.888   5.483  1.00  0.00    -0.388 N 
ATOM      9  H3  UNL     1     -21.464   1.905   5.454  1.00  0.00     0.159 HD
BRANCH   8  10
HETATM   10  C8  UNL     1     -20.245   0.327   4.965  1.00  0.00     0.095 C 
BRANCH  10  11
HETATM   11  C9  UNL     1     -20.031   0.912   3.569  1.00  0.00    -0.014 A 
HETATM   12  C10 UNL     1     -19.030   1.799   3.342  1.00  0.00     0.020 A 
HETATM   13  C11 UNL     1     -18.900   2.279   2.067  1.00  0.00     0.050 A 
HETATM   14  S1  UNL     1     -20.156   1.499   1.224  1.00  0.00    -0.113 SA
HETATM   15  C12 UNL     1     -20.816   0.585   2.496  1.00  0.00     0.062 A 
ENDBRANCH  10  11
ENDBRANCH   8  10
ENDBRANCH   7   8
BRANCH   1  16
HETATM   16  N1  UNL     1     -23.509   2.366   5.509  1.00  0.00    -0.071 N 
ATOM     17  H13 UNL     1     -22.747   2.703   6.097  1.00  0.00     0.274 HD
ATOM     18  H12 UNL     1     -23.092   2.526   4.592  1.00  0.00     0.274 HD
ATOM     19  H11 UNL     1     -24.349   2.932   5.634  1.00  0.00     0.274 HD
ENDBRANCH   1  16
BRANCH   2  20
HETATM   20  N2  UNL     1     -24.332   1.464   8.057  1.00  0.00    -0.359 N 
ATOM     21  H2  UNL     1     -23.453   1.253   8.530  1.00  0.00     0.162 HD
BRANCH  20  22
HETATM   22  C3  UNL     1     -25.179   2.480   8.552  1.00  0.00     0.348 C 
HETATM   23  O1  UNL     1     -25.530   3.475   7.873  1.00  0.00    -0.284 OA
ENDBRANCH  20  22
ENDBRANCH   2  20
BRANCH   4  24
HETATM   24  O3  UNL     1     -24.027  -2.917   6.694  1.00  0.00    -0.390 OA
ATOM     25  H3  UNL     1     -23.606  -3.468   6.045  1.00  0.00     0.210 HD
ENDBRANCH   4  24
BRANCH   3  26
HETATM   26  O2  UNL     1     -24.087  -0.995   8.446  1.00  0.00    -0.391 OA
ATOM     27  H2  UNL     1     -24.709  -1.257   9.115  1.00  0.00     0.210 HD
ENDBRANCH   3  26
TORSDOF 8
ENDMDL
MODEL 2
REMARK VINA RESULT: -6.923969734      4.279      6.541
REMARK  8 active torsions:
REMARK  status: ('A' for Active; 'I' for Inactive)
REMARK    1  A    between atoms: N1_1  and  C1_5 
REMARK    2  A    between atoms: C2_6  and  N2_7 
REMARK    3  A    between atoms: N2_7  and  C3_9 
REMARK    4  A    between atoms: C4_11  and  O2_12 
REMARK    5  A    between atoms: C5_14  and  O3_15 
REMARK    6  A    between atoms: C7_19  and  N3_20 
REMARK    7  A    between atoms: N3_20  and  C8_22 
REMARK    8  A    between atoms: C8_22  and  C9_23 
ROOT
HETATM    1  C1  UNL     1     -21.191   2.841   3.152  1.00  0.00     0.233 C 
HETATM    2  C2  UNL     1     -20.449   2.970   1.843  1.00  0.00     0.147 C 
HETATM    3  C4  UNL     1     -19.415   1.887   1.778  1.00  0.00     0.174 C 
HETATM    4  C5  UNL     1     -19.085   1.263   3.081  1.00  0.00     0.184 C 
HETATM    5  C6  UNL     1     -20.262   0.720   3.846  1.00  0.00     0.226 C 
HETATM    6  F1  UNL     1     -19.953   0.894   5.170  1.00  0.00    -0.244 F 
HETATM    7  C7  UNL     1     -21.515   1.357   3.386  1.00  0.00     0.150 C 
ENDROOT
BRANCH   7   8
HETATM    8  N3  UNL     1     -22.680   1.254   4.099  1.00  0.00    -0.388 N 
ATOM      9  H3  UNL     1     -23.307   2.058   4.079  1.00  0.00     0.159 HD
BRANCH   8  10
HETATM   10  C8  UNL     1     -23.085   0.166   4.844  1.00  0.00     0.095 C 
BRANCH  10  11
HETATM   11  C9  UNL     1     -23.808   0.694   6.083  1.00  0.00    -0.014 A 
HETATM   12  C10 UNL     1     -24.436  -0.161   6.928  1.00  0.00     0.020 A 
HETATM   13  C11 UNL     1     -25.062   0.385   8.016  1.00  0.00     0.050 A 
HETATM   14  S1  UNL     1     -24.765   2.052   7.843  1.00  0.00    -0.113 SA
HETATM   15  C12 UNL     1     -23.861   2.024   6.404  1.00  0.00     0.062 A 
ENDBRANCH  10  11
ENDBRANCH   8  10
ENDBRANCH   7   8
BRANCH   1  16
HETATM   16  N1  UNL     1     -22.384   3.652   3.192  1.00  0.00    -0.071 N 
ATOM     17  H13 UNL     1     -22.264   4.452   3.813  1.00  0.00     0.274 HD
ATOM     18  H12 UNL     1     -22.521   4.147   2.311  1.00  0.00     0.274 HD
ATOM     19  H11 UNL     1     -23.213   3.113   3.443  1.00  0.00     0.274 HD
ENDBRANCH   1  16
BRANCH   2  20
HETATM   20  N2  UNL     1     -21.353   2.781   0.709  1.00  0.00    -0.359 N 
ATOM     21  H2  UNL     1     -21.994   1.988   0.690  1.00  0.00     0.162 HD
BRANCH  20  22
HETATM   22  C3  UNL     1     -21.333   3.705  -0.360  1.00  0.00     0.348 C 
HETATM   23  O1  UNL     1     -20.724   4.800  -0.313  1.00  0.00    -0.284 OA
ENDBRANCH  20  22
ENDBRANCH   2  20
BRANCH   4  24
HETATM   24  O3  UNL     1     -18.187   0.211   2.833  1.00  0.00    -0.390 OA
ATOM     25  H3  UNL     1     -17.374   0.593   2.524  1.00  0.00     0.210 HD
ENDBRANCH   4  24
BRANCH   3  26
HETATM   26  O2  UNL     1     -19.710   0.901   0.839  1.00  0.00    -0.391 OA
ATOM     27  H2  UNL     1     -18.952   0.386   0.586  1.00  0.00     0.210 HD
ENDBRANCH   3  26
TORSDOF 8
ENDMDL
MODEL 3
REMARK VINA RESULT: -6.794860585      4.032      6.135
REMARK  8 active torsions:
REMARK  status: ('A' for Active; 'I' for Inactive)
REMARK    1  A    between atoms: N1_1  and  C1_5 
REMARK    2  A    between atoms: C2_6  and  N2_7 
REMARK    3  A    between atoms: N2_7  and  C3_9 
REMARK    4  A    between atoms: C4_11  and  O2_12 
REMARK    5  A    between atoms: C5_14  and  O3_15 
REMARK    6  A    between atoms: C7_19  and  N3_20 
REMARK    7  A    between atoms: N3_20  and  C8_22 
REMARK    8  A    between atoms: C8_22  and  C9_23 
ROOT
HETATM    1  C1  UNL     1     -21.722   2.434   3.581  1.00  0.00     0.233 C 
HETATM    2  C2  UNL     1     -21.564   2.248   2.091  1.00  0.00     0.147 C 
HETATM    3  C4  UNL     1     -20.381   1.361   1.848  1.00  0.00     0.174 C 
HETATM    4  C5  UNL     1     -19.453   1.234   2.996  1.00  0.00     0.184 C 
HETATM    5  C6  UNL     1     -20.090   0.797   4.289  1.00  0.00     0.226 C 
HETATM    6  F1  UNL     1     -19.380   1.423   5.280  1.00  0.00    -0.244 F 
HETATM    7  C7  UNL     1     -21.544   1.069   4.265  1.00  0.00     0.150 C 
ENDROOT
BRANCH   7   8
HETATM    8  N3  UNL     1     -22.303   1.030   5.405  1.00  0.00    -0.388 N 
ATOM      9  H3  UNL     1     -22.197   1.808   6.056  1.00  0.00     0.159 HD
BRANCH   8  10
HETATM   10  C8  UNL     1     -23.195   0.039   5.755  1.00  0.00     0.095 C 
BRANCH  10  11
HETATM   11  C9  UNL     1     -24.123   0.608   6.829  1.00  0.00    -0.014 A 
HETATM   12  C10 UNL     1     -24.210   1.948   7.020  1.00  0.00     0.020 A 
HETATM   13  C11 UNL     1     -25.062   2.384   8.000  1.00  0.00     0.050 A 
HETATM   14  S1  UNL     1     -25.714   0.940   8.623  1.00  0.00    -0.113 SA
HETATM   15  C12 UNL     1     -24.898  -0.179   7.637  1.00  0.00     0.062 A 
ENDBRANCH  10  11
ENDBRANCH   8  10
ENDBRANCH   7   8
BRANCH   1  16
HETATM   16  N1  UNL     1     -22.986   3.035   3.930  1.00  0.00    -0.071 N 
ATOM     17  H13 UNL     1     -22.853   3.961   4.336  1.00  0.00     0.274 HD
ATOM     18  H12 UNL     1     -23.512   3.295   3.097  1.00  0.00     0.274 HD
ATOM     19  H11 UNL     1     -23.543   2.441   4.545  1.00  0.00     0.274 HD
ENDBRANCH   1  16
BRANCH   2  20
HETATM   20  N2  UNL     1     -22.735   1.584   1.519  1.00  0.00    -0.359 N 
ATOM     21  H2  UNL     1     -23.009   0.657   1.846  1.00  0.00     0.162 HD
BRANCH  20  22
HETATM   22  C3  UNL     1     -23.484   2.233   0.513  1.00  0.00     0.348 C 
HETATM   23  O1  UNL     1     -24.691   1.980   0.283  1.00  0.00    -0.284 OA
ENDBRANCH  20  22
ENDBRANCH   2  20
BRANCH   4  24
HETATM   24  O3  UNL     1     -18.466   0.298   2.644  1.00  0.00    -0.390 OA
ATOM     25  H3  UNL     1     -17.932   0.686   1.960  1.00  0.00     0.210 HD
ENDBRANCH   4  24
BRANCH   3  26
HETATM   26  O2  UNL     1     -20.729   0.097   1.376  1.00  0.00    -0.391 OA
ATOM     27  H2  UNL     1     -20.071  -0.564   1.556  1.00  0.00     0.210 HD
ENDBRANCH   3  26
TORSDOF 8
ENDMDL
MODEL 4
REMARK VINA RESULT: -6.705933712      4.749      7.188
REMARK  8 active torsions:
REMARK  status: ('A' for Active; 'I' for Inactive)
REMARK    1  A    between atoms: N1_1  and  C1_5 
REMARK    2  A    between atoms: C2_6  and  N2_7 
REMARK    3  A    between atoms: N2_7  and  C3_9 
REMARK    4  A    between atoms: C4_11  and  O2_12 
REMARK    5  A    between atoms: C5_14  and  O3_15 
REMARK    6  A    between atoms: C7_19  and  N3_20 
REMARK    7  A    between atoms: N3_20  and  C8_22 
REMARK    8  A    between atoms: C8_22  and  C9_23 
ROOT
HETATM    1  C1  UNL     1     -22.066   3.230   1.702  1.00  0.00     0.233 C 
HETATM    2  C2  UNL     1     -20.987   4.103   1.107  1.00  0.00     0.147 C 
HETATM    3  C4  UNL     1     -21.033   5.438   1.785  1.00  0.00     0.174 C 
HETATM    4  C5  UNL     1     -22.292   5.725   2.511  1.00  0.00     0.184 C 
HETATM    5  C6  UNL     1     -22.696   4.688   3.525  1.00  0.00     0.226 C 
HETATM    6  F1  UNL     1     -24.066   4.679   3.516  1.00  0.00    -0.244 F 
HETATM    7  C7  UNL     1     -22.039   3.395   3.230  1.00  0.00     0.150 C 
ENDROOT
BRANCH   7   8
HETATM    8  N3  UNL     1     -22.449   2.229   3.820  1.00  0.00    -0.388 N 
ATOM      9  H3  UNL     1     -22.339   1.373   3.277  1.00  0.00     0.159 HD
BRANCH   8  10
HETATM   10  C8  UNL     1     -22.997   2.102   5.080  1.00  0.00     0.095 C 
BRANCH  10  11
HETATM   11  C9  UNL     1     -23.236   0.614   5.335  1.00  0.00    -0.014 A 
HETATM   12  C10 UNL     1     -24.040   0.212   6.350  1.00  0.00     0.020 A 
HETATM   13  C11 UNL     1     -24.207  -1.137   6.517  1.00  0.00     0.050 A 
HETATM   14  S1  UNL     1     -23.255  -1.806   5.274  1.00  0.00    -0.113 SA
HETATM   15  C12 UNL     1     -22.668  -0.372   4.574  1.00  0.00     0.062 A 
ENDBRANCH  10  11
ENDBRANCH   8  10
ENDBRANCH   7   8
BRANCH   1  16
HETATM   16  N1  UNL     1     -21.926   1.845   1.322  1.00  0.00    -0.071 N 
ATOM     17  H13 UNL     1     -22.837   1.390   1.253  1.00  0.00     0.274 HD
ATOM     18  H12 UNL     1     -21.625   1.759   0.352  1.00  0.00     0.274 HD
ATOM     19  H11 UNL     1     -21.305   1.330   1.947  1.00  0.00     0.274 HD
ENDBRANCH   1  16
BRANCH   2  20
HETATM   20  N2  UNL     1     -19.662   3.534   1.348  1.00  0.00    -0.359 N 
ATOM     21  H2  UNL     1     -19.476   3.009   2.203  1.00  0.00     0.162 HD
BRANCH  20  22
HETATM   22  C3  UNL     1     -18.640   3.714   0.388  1.00  0.00     0.348 C 
HETATM   23  O1  UNL     1     -17.874   4.707   0.377  1.00  0.00    -0.284 OA
ENDBRANCH  20  22
ENDBRANCH   2  20
BRANCH   4  24
HETATM   24  O3  UNL     1     -22.133   6.957   3.168  1.00  0.00    -0.390 OA
ATOM     25  H3  UNL     1     -22.750   6.979   3.890  1.00  0.00     0.210 HD
ENDBRANCH   4  24
BRANCH   3  26
HETATM   26  O2  UNL     1     -19.940   5.670   2.619  1.00  0.00    -0.391 OA
ATOM     27  H2  UNL     1     -20.185   5.821   3.524  1.00  0.00     0.210 HD
ENDBRANCH   3  26
TORSDOF 8
ENDMDL
MODEL 5
REMARK VINA RESULT: -6.704302434      3.440      5.861
REMARK  8 active torsions:
REMARK  status: ('A' for Active; 'I' for Inactive)
REMARK    1  A    between atoms: N1_1  and  C1_5 
REMARK    2  A    between atoms: C2_6  and  N2_7 
REMARK    3  A    between atoms: N2_7  and  C3_9 
REMARK    4  A    between atoms: C4_11  and  O2_12 
REMARK    5  A    between atoms: C5_14  and  O3_15 
REMARK    6  A    between atoms: C7_19  and  N3_20 
REMARK    7  A    between atoms: N3_20  and  C8_22 
REMARK    8  A    between atoms: C8_22  and  C9_23 
ROOT
HETATM    1  C1  UNL     1     -20.914   0.063   4.913  1.00  0.00     0.233 C 
HETATM    2  C2  UNL     1     -20.689  -0.374   3.485  1.00  0.00     0.147 C 
HETATM    3  C4  UNL     1     -21.700  -1.428   3.149  1.00  0.00     0.174 C 
HETATM    4  C5  UNL     1     -22.351  -2.062   4.320  1.00  0.00     0.184 C 
HETATM    5  C6  UNL     1     -22.997  -1.106   5.288  1.00  0.00     0.226 C 
HETATM    6  F1  UNL     1     -22.853  -1.680   6.524  1.00  0.00    -0.244 F 
HETATM    7  C7  UNL     1     -22.424   0.249   5.134  1.00  0.00     0.150 C 
ENDROOT
BRANCH   7   8
HETATM    8  N3  UNL     1     -22.628   1.227   6.071  1.00  0.00    -0.388 N 
ATOM      9  H3  UNL     1     -22.001   1.235   6.875  1.00  0.00     0.159 HD
BRANCH   8  10
HETATM   10  C8  UNL     1     -23.603   2.203   6.030  1.00  0.00     0.095 C 
BRANCH  10  11
HETATM   11  C9  UNL     1     -24.552   1.959   7.203  1.00  0.00    -0.014 A 
HETATM   12  C10 UNL     1     -24.654   0.726   7.759  1.00  0.00     0.020 A 
HETATM   13  C11 UNL     1     -25.524   0.584   8.806  1.00  0.00     0.050 A 
HETATM   14  S1  UNL     1     -26.173   2.147   8.991  1.00  0.00    -0.113 SA
HETATM   15  C12 UNL     1     -25.334   2.943   7.746  1.00  0.00     0.062 A 
ENDBRANCH  10  11
ENDBRANCH   8  10
ENDBRANCH   7   8
BRANCH   1  16
HETATM   16  N1  UNL     1     -20.184   1.263   5.243  1.00  0.00    -0.071 N 
ATOM     17  H13 UNL     1     -20.561   2.070   4.747  1.00  0.00     0.274 HD
ATOM     18  H12 UNL     1     -20.374   1.556   6.201  1.00  0.00     0.274 HD
ATOM     19  H11 UNL     1     -19.181   1.166   5.080  1.00  0.00     0.274 HD
ENDBRANCH   1  16
BRANCH   2  20
HETATM   20  N2  UNL     1     -20.892   0.739   2.559  1.00  0.00    -0.359 N 
ATOM     21  H2  UNL     1     -21.822   1.143   2.437  1.00  0.00     0.162 HD
BRANCH  20  22
HETATM   22  C3  UNL     1     -19.794   1.252   1.833  1.00  0.00     0.348 C 
HETATM   23  O1  UNL     1     -18.634   1.329   2.303  1.00  0.00    -0.284 OA
ENDBRANCH  20  22
ENDBRANCH   2  20
BRANCH   4  24
HETATM   24  O3  UNL     1     -23.333  -2.943   3.836  1.00  0.00    -0.390 OA
ATOM     25  H3  UNL     1     -23.957  -2.430   3.336  1.00  0.00     0.210 HD
ENDBRANCH   4  24
BRANCH   3  26
HETATM   26  O2  UNL     1     -22.667  -0.995   2.245  1.00  0.00    -0.391 OA
ATOM     27  H2  UNL     1     -23.520  -1.389   2.390  1.00  0.00     0.210 HD
ENDBRANCH   3  26
TORSDOF 8
ENDMDL
