MODEL 1
REMARK VINA RESULT: -7.161779246      0.000      0.000
REMARK  8 active torsions:
REMARK  status: ('A' for Active; 'I' for Inactive)
REMARK    1  A    between atoms: C2_2  and  S1_5 
REMARK    2  A    between atoms: S1_5  and  C5_6 
REMARK    3  A    between atoms: C7_8  and  C8_9 
REMARK    4  A    between atoms: C8_9  and  N1_10 
REMARK       I    between atoms: N1_10  and  C9_12 
REMARK    5  A    between atoms: C10_15  and  C11_16 
REMARK    6  A    between atoms: C10_15  and  N3_19 
REMARK    7  A    between atoms: C11_16  and  O2_17 
REMARK    8  A    between atoms: C12_21  and  O3_22 
ROOT
HETATM    1  C5  UNL     1     -20.213   1.589   2.827  1.00  0.00     0.079 C 
HETATM    2  C6  UNL     1     -20.807   2.969   3.116  1.00  0.00     0.026 C 
HETATM    3  C7  UNL     1     -19.707   3.881   2.633  1.00  0.00     0.036 C 
HETATM    4  C10 UNL     1     -18.883   3.213   1.632  1.00  0.00     0.115 C 
HETATM    5  C12 UNL     1     -19.517   1.805   1.530  1.00  0.00     0.161 C 
ENDROOT
BRANCH   3   6
HETATM    6  C8  UNL     1     -20.224   5.253   2.361  1.00  0.00     0.131 C 
BRANCH   6   7
HETATM    7  N1  UNL     1     -19.282   6.306   2.583  1.00  0.00    -0.345 N 
HETATM    8  C9  UNL     1     -19.425   7.314   3.571  1.00  0.00     0.328 C 
HETATM    9  N2  UNL     1     -18.504   8.348   3.788  1.00  0.00    -0.040 NA
HETATM   10  O1  UNL     1     -20.467   7.259   4.301  1.00  0.00    -0.251 OA
ATOM     11  H1  UNL     1     -18.451   6.335   1.990  1.00  0.00     0.163 HD
ENDBRANCH   6   7
ENDBRANCH   3   6
BRANCH   4  12
HETATM   12  C11 UNL     1     -18.808   3.733   0.251  1.00  0.00     0.196 C 
BRANCH  12  13
HETATM   13  O2  UNL     1     -17.822   4.693   0.047  1.00  0.00    -0.399 OA
ATOM     14  H2  UNL     1     -17.100   4.655   0.663  1.00  0.00     0.209 HD
ENDBRANCH  12  13
ENDBRANCH   4  12
BRANCH   4  15
HETATM   15  N3  UNL     1     -17.495   3.038   2.097  1.00  0.00    -0.037 NA
HETATM   16  F1  UNL     1     -17.364   1.807   2.585  1.00  0.00    -0.114 F 
ENDBRANCH   4  15
BRANCH   1  17
HETATM   17  S1  UNL     1     -21.586   0.446   2.717  1.00  0.00    -0.153 SA
BRANCH  17  18
HETATM   18  C2  UNL     1     -22.167  -0.237   4.248  1.00  0.00    -0.003 C 
HETATM   19  C1  UNL     1     -22.551  -1.702   4.056  1.00  0.00     0.026 C 
HETATM   20  C3  UNL     1     -21.027  -0.238   5.268  1.00  0.00     0.026 C 
HETATM   21  C4  UNL     1     -23.270   0.590   4.833  1.00  0.00     0.026 C 
ENDBRANCH  17  18
ENDBRANCH   1  17
BRANCH   5  22
HETATM   22  O3  UNL     1     -20.486   1.815   0.514  1.00  0.00    -0.392 OA
ATOM     23  H3  UNL     1     -20.458   0.974   0.073  1.00  0.00     0.210 HD
ENDBRANCH   5  22
TORSDOF 8
ENDMDL
MODEL 2
REMARK VINA RESULT: -6.732959072      2.925      3.905
REMARK  8 active torsions:
REMARK  status: ('A' for Active; 'I' for Inactive)
REMARK    1  A    between atoms: C2_2  and  S1_5 
REMARK    2  A    between atoms: S1_5  and  C5_6 
REMARK    3  A    between atoms: C7_8  and  C8_9 
REMARK    4  A    between atoms: C8_9  and  N1_10 
REMARK       I    between atoms: N1_10  and  C9_12 
REMARK    5  A    between atoms: C10_15  and  C11_16 
REMARK    6  A    between atoms: C10_15  and  N3_19 
REMARK    7  A    between atoms: C11_16  and  O2_17 
REMARK    8  A    between atoms: C12_21  and  O3_22 
ROOT
HETATM    1  C5  UNL     1     -21.298   2.669   2.412  1.00  0.00     0.079 C 
HETATM    2  C6  UNL     1     -21.847   2.885   1.001  1.00  0.00     0.026 C 
HETATM    3  C7  UNL     1     -20.989   4.025   0.512  1.00  0.00     0.036 C 
HETATM    4  C10 UNL     1     -19.720   4.062   1.229  1.00  0.00     0.115 C 
HETATM    5  C12 UNL     1     -19.839   2.885   2.225  1.00  0.00     0.161 C 
ENDROOT
BRANCH   3   6
HETATM    6  C8  UNL     1     -20.993   4.105  -0.977  1.00  0.00     0.131 C 
BRANCH   6   7
HETATM    7  N1  UNL     1     -21.756   5.186  -1.520  1.00  0.00    -0.345 N 
HETATM    8  C9  UNL     1     -21.598   5.696  -2.835  1.00  0.00     0.328 C 
HETATM    9  N2  UNL     1     -22.343   6.757  -3.368  1.00  0.00    -0.040 NA
HETATM   10  O1  UNL     1     -20.716   5.140  -3.565  1.00  0.00    -0.251 OA
ATOM     11  H1  UNL     1     -22.461   5.620  -0.922  1.00  0.00     0.163 HD
ENDBRANCH   6   7
ENDBRANCH   3   6
BRANCH   4  12
HETATM   12  C11 UNL     1     -18.444   3.869   0.511  1.00  0.00     0.196 C 
BRANCH  12  13
HETATM   13  O2  UNL     1     -17.796   5.046   0.153  1.00  0.00    -0.399 OA
ATOM     14  H2  UNL     1     -17.053   4.929  -0.428  1.00  0.00     0.209 HD
ENDBRANCH  12  13
ENDBRANCH   4  12
BRANCH   4  15
HETATM   15  N3  UNL     1     -19.578   5.297   2.023  1.00  0.00    -0.037 NA
HETATM   16  F1  UNL     1     -20.771   5.879   2.118  1.00  0.00    -0.114 F 
ENDBRANCH   4  15
BRANCH   1  17
HETATM   17  S1  UNL     1     -21.717   0.993   2.881  1.00  0.00    -0.153 SA
BRANCH  17  18
HETATM   18  C2  UNL     1     -21.565   0.595   4.603  1.00  0.00    -0.003 C 
HETATM   19  C1  UNL     1     -22.380   1.576   5.442  1.00  0.00     0.026 C 
HETATM   20  C3  UNL     1     -22.181  -0.781   4.862  1.00  0.00     0.026 C 
HETATM   21  C4  UNL     1     -20.130   0.511   5.022  1.00  0.00     0.026 C 
ENDBRANCH  17  18
ENDBRANCH   1  17
BRANCH   5  22
HETATM   22  O3  UNL     1     -19.302   1.731   1.632  1.00  0.00    -0.392 OA
ATOM     23  H3  UNL     1     -19.478   1.771   0.699  1.00  0.00     0.210 HD
ENDBRANCH   5  22
TORSDOF 8
ENDMDL
MODEL 3
REMARK VINA RESULT: -6.672467002      1.630      1.917
REMARK  8 active torsions:
REMARK  status: ('A' for Active; 'I' for Inactive)
REMARK    1  A    between atoms: C2_2  and  S1_5 
REMARK    2  A    between atoms: S1_5  and  C5_6 
REMARK    3  A    between atoms: C7_8  and  C8_9 
REMARK    4  A    between atoms: C8_9  and  N1_10 
REMARK       I    between atoms: N1_10  and  C9_12 
REMARK    5  A    between atoms: C10_15  and  C11_16 
REMARK    6  A    between atoms: C10_15  and  N3_19 
REMARK    7  A    between atoms: C11_16  and  O2_17 
REMARK    8  A    between atoms: C12_21  and  O3_22 
ROOT
HETATM    1  C5  UNL     1     -21.355   2.072   2.833  1.00  0.00     0.079 C 
HETATM    2  C6  UNL     1     -21.735   3.448   3.384  1.00  0.00     0.026 C 
HETATM    3  C7  UNL     1     -20.913   4.362   2.510  1.00  0.00     0.036 C 
HETATM    4  C10 UNL     1     -20.603   3.721   1.237  1.00  0.00     0.115 C 
HETATM    5  C12 UNL     1     -21.261   2.327   1.371  1.00  0.00     0.161 C 
ENDROOT
BRANCH   3   6
HETATM    6  C8  UNL     1     -21.457   5.750   2.519  1.00  0.00     0.131 C 
BRANCH   6   7
HETATM    7  N1  UNL     1     -20.901   6.609   3.519  1.00  0.00    -0.345 N 
HETATM    8  C9  UNL     1     -19.602   7.177   3.454  1.00  0.00     0.328 C 
HETATM    9  N2  UNL     1     -19.055   8.017   4.433  1.00  0.00    -0.040 NA
HETATM   10  O1  UNL     1     -18.901   6.894   2.429  1.00  0.00    -0.251 OA
ATOM     11  H1  UNL     1     -21.476   6.828   4.333  1.00  0.00     0.163 HD
ENDBRANCH   6   7
ENDBRANCH   3   6
BRANCH   4  12
HETATM   12  C11 UNL     1     -21.098   4.291  -0.032  1.00  0.00     0.196 C 
BRANCH  12  13
HETATM   13  O2  UNL     1     -20.101   4.665  -0.927  1.00  0.00    -0.399 OA
ATOM     14  H2  UNL     1     -20.341   4.584  -1.843  1.00  0.00     0.209 HD
ENDBRANCH  12  13
ENDBRANCH   4  12
BRANCH   4  15
HETATM   15  N3  UNL     1     -19.154   3.510   1.072  1.00  0.00    -0.037 NA
HETATM   16  F1  UNL     1     -18.547   3.823   2.214  1.00  0.00    -0.114 F 
ENDBRANCH   4  15
BRANCH   1  17
HETATM   17  S1  UNL     1     -22.680   0.953   3.277  1.00  0.00    -0.153 SA
BRANCH  17  18
HETATM   18  C2  UNL     1     -22.578   0.209   4.884  1.00  0.00    -0.003 C 
HETATM   19  C1  UNL     1     -23.528   0.912   5.849  1.00  0.00     0.026 C 
HETATM   20  C3  UNL     1     -23.066  -1.239   4.805  1.00  0.00     0.026 C 
HETATM   21  C4  UNL     1     -21.164   0.161   5.377  1.00  0.00     0.026 C 
ENDBRANCH  17  18
ENDBRANCH   1  17
BRANCH   5  22
HETATM   22  O3  UNL     1     -22.566   2.388   0.856  1.00  0.00    -0.392 OA
ATOM     23  H3  UNL     1     -22.684   1.651   0.268  1.00  0.00     0.210 HD
ENDBRANCH   5  22
TORSDOF 8
ENDMDL
MODEL 4
REMARK VINA RESULT: -6.614095655      2.592      4.112
REMARK  8 active torsions:
REMARK  status: ('A' for Active; 'I' for Inactive)
REMARK    1  A    between atoms: C2_2  and  S1_5 
REMARK    2  A    between atoms: S1_5  and  C5_6 
REMARK    3  A    between atoms: C7_8  and  C8_9 
REMARK    4  A    between atoms: C8_9  and  N1_10 
REMARK       I    between atoms: N1_10  and  C9_12 
REMARK    5  A    between atoms: C10_15  and  C11_16 
REMARK    6  A    between atoms: C10_15  and  N3_19 
REMARK    7  A    between atoms: C11_16  and  O2_17 
REMARK    8  A    between atoms: C12_21  and  O3_22 
ROOT
HETATM    1  C5  UNL     1     -21.462   2.861   2.573  1.00  0.00     0.079 C 
HETATM    2  C6  UNL     1     -21.976   3.179   1.168  1.00  0.00     0.026 C 
HETATM    3  C7  UNL     1     -21.015   4.256   0.730  1.00  0.00     0.036 C 
HETATM    4  C10 UNL     1     -19.754   4.151   1.455  1.00  0.00     0.115 C 
HETATM    5  C12 UNL     1     -19.987   2.951   2.404  1.00  0.00     0.161 C 
ENDROOT
BRANCH   3   6
HETATM    6  C8  UNL     1     -20.998   4.394  -0.754  1.00  0.00     0.131 C 
BRANCH   6   7
HETATM    7  N1  UNL     1     -20.935   3.158  -1.473  1.00  0.00    -0.345 N 
HETATM    8  C9  UNL     1     -19.893   2.806  -2.370  1.00  0.00     0.328 C 
HETATM    9  N2  UNL     1     -19.831   1.597  -3.076  1.00  0.00    -0.040 NA
HETATM   10  O1  UNL     1     -18.961   3.658  -2.531  1.00  0.00    -0.251 OA
ATOM     11  H1  UNL     1     -21.690   2.486  -1.331  1.00  0.00     0.163 HD
ENDBRANCH   6   7
ENDBRANCH   3   6
BRANCH   4  12
HETATM   12  C11 UNL     1     -18.494   3.872   0.737  1.00  0.00     0.196 C 
BRANCH  12  13
HETATM   13  O2  UNL     1     -17.901   4.986   0.153  1.00  0.00    -0.399 OA
ATOM     14  H2  UNL     1     -17.662   5.674   0.764  1.00  0.00     0.209 HD
ENDBRANCH  12  13
ENDBRANCH   4  12
BRANCH   4  15
HETATM   15  N3  UNL     1     -19.510   5.337   2.298  1.00  0.00    -0.037 NA
HETATM   16  F1  UNL     1     -20.633   6.047   2.366  1.00  0.00    -0.114 F 
ENDBRANCH   4  15
BRANCH   1  17
HETATM   17  S1  UNL     1     -22.033   1.212   2.973  1.00  0.00    -0.153 SA
BRANCH  17  18
HETATM   18  C2  UNL     1     -21.913   0.728   4.676  1.00  0.00    -0.003 C 
HETATM   19  C1  UNL     1     -22.634   1.741   5.561  1.00  0.00     0.026 C 
HETATM   20  C3  UNL     1     -22.651  -0.597   4.879  1.00  0.00     0.026 C 
HETATM   21  C4  UNL     1     -20.491   0.496   5.081  1.00  0.00     0.026 C 
ENDBRANCH  17  18
ENDBRANCH   1  17
BRANCH   5  22
HETATM   22  O3  UNL     1     -19.550   1.778   1.768  1.00  0.00    -0.392 OA
ATOM     23  H3  UNL     1     -19.771   1.843   0.846  1.00  0.00     0.210 HD
ENDBRANCH   5  22
TORSDOF 8
ENDMDL
MODEL 5
REMARK VINA RESULT: -6.541373936      3.318      4.931
REMARK  8 active torsions:
REMARK  status: ('A' for Active; 'I' for Inactive)
REMARK    1  A    between atoms: C2_2  and  S1_5 
REMARK    2  A    between atoms: S1_5  and  C5_6 
REMARK    3  A    between atoms: C7_8  and  C8_9 
REMARK    4  A    between atoms: C8_9  and  N1_10 
REMARK       I    between atoms: N1_10  and  C9_12 
REMARK    5  A    between atoms: C10_15  and  C11_16 
REMARK    6  A    between atoms: C10_15  and  N3_19 
REMARK    7  A    between atoms: C11_16  and  O2_17 
REMARK    8  A    between atoms: C12_21  and  O3_22 
ROOT
HETATM    1  C5  UNL     1     -22.198  -0.077   5.392  1.00  0.00     0.079 C 
HETATM    2  C6  UNL     1     -20.771   0.446   5.220  1.00  0.00     0.026 C 
HETATM    3  C7  UNL     1     -20.333  -0.276   3.970  1.00  0.00     0.036 C 
HETATM    4  C10 UNL     1     -21.484  -0.652   3.158  1.00  0.00     0.115 C 
HETATM    5  C12 UNL     1     -22.687  -0.144   3.989  1.00  0.00     0.161 C 
ENDROOT
BRANCH   3   6
HETATM    6  C8  UNL     1     -19.175   0.411   3.328  1.00  0.00     0.131 C 
BRANCH   6   7
HETATM    7  N1  UNL     1     -19.435   1.748   2.890  1.00  0.00    -0.345 N 
HETATM    8  C9  UNL     1     -18.434   2.660   2.465  1.00  0.00     0.328 C 
HETATM    9  N2  UNL     1     -18.687   3.971   2.038  1.00  0.00    -0.040 NA
HETATM   10  O1  UNL     1     -17.231   2.242   2.480  1.00  0.00    -0.251 OA
ATOM     11  H1  UNL     1     -20.404   2.067   2.883  1.00  0.00     0.163 HD
ENDBRANCH   6   7
ENDBRANCH   3   6
BRANCH   4  12
HETATM   12  C11 UNL     1     -21.659  -0.100   1.799  1.00  0.00     0.196 C 
BRANCH  12  13
HETATM   13  O2  UNL     1     -22.766  -0.589   1.114  1.00  0.00    -0.399 OA
ATOM     14  H2  UNL     1     -23.597  -0.220   1.388  1.00  0.00     0.209 HD
ENDBRANCH  12  13
ENDBRANCH   4  12
BRANCH   4  15
HETATM   15  N3  UNL     1     -21.616  -2.116   3.043  1.00  0.00    -0.037 NA
HETATM   16  F1  UNL     1     -22.684  -2.501   3.737  1.00  0.00    -0.114 F 
ENDBRANCH   4  15
BRANCH   1  17
HETATM   17  S1  UNL     1     -23.071   1.123   6.393  1.00  0.00    -0.153 SA
BRANCH  17  18
HETATM   18  C2  UNL     1     -24.322   0.484   7.477  1.00  0.00    -0.003 C 
HETATM   19  C1  UNL     1     -24.982  -0.742   6.852  1.00  0.00     0.026 C 
HETATM   20  C3  UNL     1     -23.668  -0.012   8.769  1.00  0.00     0.026 C 
HETATM   21  C4  UNL     1     -25.302   1.546   7.869  1.00  0.00     0.026 C 
ENDBRANCH  17  18
ENDBRANCH   1  17
BRANCH   5  22
HETATM   22  O3  UNL     1     -23.006   1.159   3.578  1.00  0.00    -0.392 OA
ATOM     23  H3  UNL     1     -22.229   1.697   3.674  1.00  0.00     0.210 HD
ENDBRANCH   5  22
TORSDOF 8
ENDMDL
