MODEL 1
REMARK VINA RESULT: -7.823738047      0.000      0.000
REMARK  10 active torsions:
REMARK  status: ('A' for Active; 'I' for Inactive)
REMARK    1  A    between atoms: C2_2  and  C3_3 
REMARK    2  A    between atoms: C2_2  and  N1_11 
REMARK    3  A    between atoms: C4_4  and  C5_5 
REMARK    4  A    between atoms: C5_5  and  C7_7 
REMARK    5  A    between atoms: C7_7  and  O1_9 
REMARK    6  A    between atoms: N1_11  and  C9_14 
REMARK    7  A    between atoms: C10_16  and  C11_18 
REMARK    8  A    between atoms: C11_18  and  O3_19 
REMARK    9  A    between atoms: C12_21  and  O4_22 
REMARK   10  A    between atoms: C13_24  and  O5_25 
ROOT
HETATM    1  C9  UNL     1     -21.144   3.050   2.761  1.00  0.00     0.356 C 
HETATM    2  O2  UNL     1     -20.542   2.803   1.518  1.00  0.00    -0.311 OA
HETATM    3  C10 UNL     1     -19.721   3.931   1.408  1.00  0.00     0.256 C 
HETATM    4  F1  UNL     1     -18.797   4.001   2.454  1.00  0.00    -0.206 F 
HETATM    5  C12 UNL     1     -20.733   5.038   1.580  1.00  0.00     0.220 C 
HETATM    6  C13 UNL     1     -21.574   4.496   2.749  1.00  0.00     0.209 C 
ENDROOT
BRANCH   1   7
HETATM    7  N1  UNL     1     -22.160   2.121   3.120  1.00  0.00    -0.039 N 
ATOM      8  H12 UNL     1     -22.239   1.365   2.440  1.00  0.00     0.281 HD
ATOM      9  H11 UNL     1     -23.092   2.521   3.014  1.00  0.00     0.281 HD
BRANCH   7  10
HETATM   10  C2  UNL     1     -21.945   1.627   4.437  1.00  0.00     0.207 C 
HETATM   11  C1  UNL     1     -20.695   0.777   4.602  1.00  0.00     0.044 C 
BRANCH  10  12
HETATM   12  C3  UNL     1     -23.077   0.862   4.999  1.00  0.00     0.002 C 
HETATM   13  C4  UNL     1     -23.405   1.028   6.264  1.00  0.00    -0.022 C 
BRANCH  13  14
HETATM   14  C5  UNL     1     -24.547   0.254   6.824  1.00  0.00     0.032 C 
HETATM   15  C6  UNL     1     -24.252  -1.214   6.606  1.00  0.00     0.017 C 
BRANCH  14  16
HETATM   16  C7  UNL     1     -24.616   0.495   8.333  1.00  0.00     0.121 C 
HETATM   17  C8  UNL     1     -26.005   0.934   8.743  1.00  0.00     0.040 C 
BRANCH  16  18
HETATM   18  O1  UNL     1     -24.234  -0.608   9.057  1.00  0.00    -0.395 OA
ATOM     19  H1  UNL     1     -24.972  -1.151   9.307  1.00  0.00     0.210 HD
ENDBRANCH  16  18
ENDBRANCH  14  16
ENDBRANCH  13  14
ENDBRANCH  10  12
ENDBRANCH   7  10
ENDBRANCH   1   7
BRANCH   6  20
HETATM   20  O5  UNL     1     -22.928   4.639   2.474  1.00  0.00    -0.388 OA
ATOM     21  H5  UNL     1     -23.297   5.414   2.880  1.00  0.00     0.210 HD
ENDBRANCH   6  20
BRANCH   3  22
HETATM   22  C11 UNL     1     -18.976   4.010   0.113  1.00  0.00     0.240 C 
BRANCH  22  23
HETATM   23  O3  UNL     1     -17.774   4.687   0.175  1.00  0.00    -0.395 OA
ATOM     24  H3  UNL     1     -17.632   5.313  -0.525  1.00  0.00     0.209 HD
ENDBRANCH  22  23
ENDBRANCH   3  22
BRANCH   5  25
HETATM   25  O4  UNL     1     -21.528   5.204   0.450  1.00  0.00    -0.387 OA
ATOM     26  H4  UNL     1     -22.454   5.126   0.649  1.00  0.00     0.210 HD
ENDBRANCH   5  25
TORSDOF 10
ENDMDL
MODEL 2
REMARK VINA RESULT: -7.792191002      1.632      2.338
REMARK  10 active torsions:
REMARK  status: ('A' for Active; 'I' for Inactive)
REMARK    1  A    between atoms: C2_2  and  C3_3 
REMARK    2  A    between atoms: C2_2  and  N1_11 
REMARK    3  A    between atoms: C4_4  and  C5_5 
REMARK    4  A    between atoms: C5_5  and  C7_7 
REMARK    5  A    between atoms: C7_7  and  O1_9 
REMARK    6  A    between atoms: N1_11  and  C9_14 
REMARK    7  A    between atoms: C10_16  and  C11_18 
REMARK    8  A    between atoms: C11_18  and  O3_19 
REMARK    9  A    between atoms: C12_21  and  O4_22 
REMARK   10  A    between atoms: C13_24  and  O5_25 
ROOT
HETATM    1  C9  UNL     1     -21.270   1.684   2.440  1.00  0.00     0.356 C 
HETATM    2  O2  UNL     1     -20.900   2.856   3.116  1.00  0.00    -0.311 OA
HETATM    3  C10 UNL     1     -20.671   3.710   2.032  1.00  0.00     0.256 C 
HETATM    4  F1  UNL     1     -21.818   3.872   1.251  1.00  0.00    -0.206 F 
HETATM    5  C12 UNL     1     -19.660   2.909   1.247  1.00  0.00     0.220 C 
HETATM    6  C13 UNL     1     -20.268   1.498   1.327  1.00  0.00     0.209 C 
ENDROOT
BRANCH   1   7
HETATM    7  N1  UNL     1     -21.455   0.550   3.280  1.00  0.00    -0.039 N 
ATOM      8  H12 UNL     1     -20.928  -0.257   2.946  1.00  0.00     0.281 HD
ATOM      9  H11 UNL     1     -22.396   0.165   3.194  1.00  0.00     0.281 HD
BRANCH   7  10
HETATM   10  C2  UNL     1     -21.135   0.867   4.629  1.00  0.00     0.207 C 
HETATM   11  C1  UNL     1     -19.713   0.523   5.045  1.00  0.00     0.044 C 
BRANCH  10  12
HETATM   12  C3  UNL     1     -22.044   0.277   5.631  1.00  0.00     0.002 C 
HETATM   13  C4  UNL     1     -23.316   0.102   5.329  1.00  0.00    -0.022 C 
BRANCH  13  14
HETATM   14  C5  UNL     1     -24.226  -0.494   6.345  1.00  0.00     0.032 C 
HETATM   15  C6  UNL     1     -23.829  -1.945   6.517  1.00  0.00     0.017 C 
BRANCH  14  16
HETATM   16  C7  UNL     1     -24.002   0.210   7.684  1.00  0.00     0.121 C 
HETATM   17  C8  UNL     1     -24.841   1.466   7.777  1.00  0.00     0.040 C 
BRANCH  16  18
HETATM   18  O1  UNL     1     -24.257  -0.610   8.756  1.00  0.00    -0.395 OA
ATOM     19  H1  UNL     1     -25.178  -0.830   8.833  1.00  0.00     0.210 HD
ENDBRANCH  16  18
ENDBRANCH  14  16
ENDBRANCH  13  14
ENDBRANCH  10  12
ENDBRANCH   7  10
ENDBRANCH   1   7
BRANCH   6  20
HETATM   20  O5  UNL     1     -19.289   0.569   1.651  1.00  0.00    -0.388 OA
ATOM     21  H5  UNL     1     -18.971   0.101   0.888  1.00  0.00     0.210 HD
ENDBRANCH   6  20
BRANCH   3  22
HETATM   22  C11 UNL     1     -20.172   5.065   2.427  1.00  0.00     0.240 C 
BRANCH  22  23
HETATM   23  O3  UNL     1     -19.126   5.542   1.664  1.00  0.00    -0.395 OA
ATOM     24  H3  UNL     1     -18.424   4.920   1.514  1.00  0.00     0.209 HD
ENDBRANCH  22  23
ENDBRANCH   3  22
BRANCH   5  25
HETATM   25  O4  UNL     1     -18.401   2.925   1.841  1.00  0.00    -0.387 OA
ATOM     26  H4  UNL     1     -17.703   2.985   1.200  1.00  0.00     0.210 HD
ENDBRANCH   5  25
TORSDOF 10
ENDMDL
MODEL 3
REMARK VINA RESULT: -7.702554287      0.799      1.349
REMARK  10 active torsions:
REMARK  status: ('A' for Active; 'I' for Inactive)
REMARK    1  A    between atoms: C2_2  and  C3_3 
REMARK    2  A    between atoms: C2_2  and  N1_11 
REMARK    3  A    between atoms: C4_4  and  C5_5 
REMARK    4  A    between atoms: C5_5  and  C7_7 
REMARK    5  A    between atoms: C7_7  and  O1_9 
REMARK    6  A    between atoms: N1_11  and  C9_14 
REMARK    7  A    between atoms: C10_16  and  C11_18 
REMARK    8  A    between atoms: C11_18  and  O3_19 
REMARK    9  A    between atoms: C12_21  and  O4_22 
REMARK   10  A    between atoms: C13_24  and  O5_25 
ROOT
HETATM    1  C9  UNL     1     -21.254   2.938   2.657  1.00  0.00     0.356 C 
HETATM    2  O2  UNL     1     -20.639   2.771   1.408  1.00  0.00    -0.311 OA
HETATM    3  C10 UNL     1     -19.782   3.877   1.399  1.00  0.00     0.256 C 
HETATM    4  F1  UNL     1     -18.875   3.837   2.462  1.00  0.00    -0.206 F 
HETATM    5  C12 UNL     1     -20.763   4.999   1.643  1.00  0.00     0.220 C 
HETATM    6  C13 UNL     1     -21.641   4.393   2.753  1.00  0.00     0.209 C 
ENDROOT
BRANCH   1   7
HETATM    7  N1  UNL     1     -22.304   2.016   2.928  1.00  0.00    -0.039 N 
ATOM      8  H12 UNL     1     -22.745   1.684   2.070  1.00  0.00     0.281 HD
ATOM      9  H11 UNL     1     -23.112   2.476   3.347  1.00  0.00     0.281 HD
BRANCH   7  10
HETATM   10  C2  UNL     1     -21.833   0.941   3.731  1.00  0.00     0.207 C 
HETATM   11  C1  UNL     1     -22.284  -0.439   3.275  1.00  0.00     0.044 C 
BRANCH  10  12
HETATM   12  C3  UNL     1     -22.154   1.059   5.167  1.00  0.00     0.002 C 
HETATM   13  C4  UNL     1     -23.357   0.727   5.591  1.00  0.00    -0.022 C 
BRANCH  13  14
HETATM   14  C5  UNL     1     -23.673   0.849   7.041  1.00  0.00     0.032 C 
HETATM   15  C6  UNL     1     -24.436   2.142   7.233  1.00  0.00     0.017 C 
BRANCH  14  16
HETATM   16  C7  UNL     1     -24.598  -0.301   7.444  1.00  0.00     0.121 C 
HETATM   17  C8  UNL     1     -24.265  -1.555   6.665  1.00  0.00     0.040 C 
BRANCH  16  18
HETATM   18  O1  UNL     1     -24.558  -0.556   8.793  1.00  0.00    -0.395 OA
ATOM     19  H1  UNL     1     -24.385  -1.470   8.984  1.00  0.00     0.210 HD
ENDBRANCH  16  18
ENDBRANCH  14  16
ENDBRANCH  13  14
ENDBRANCH  10  12
ENDBRANCH   7  10
ENDBRANCH   1   7
BRANCH   6  20
HETATM   20  O5  UNL     1     -22.985   4.599   2.470  1.00  0.00    -0.388 OA
ATOM     21  H5  UNL     1     -23.428   5.078   3.160  1.00  0.00     0.210 HD
ENDBRANCH   6  20
BRANCH   3  22
HETATM   22  C11 UNL     1     -19.012   4.034   0.126  1.00  0.00     0.240 C 
BRANCH  22  23
HETATM   23  O3  UNL     1     -17.799   4.679   0.257  1.00  0.00    -0.395 OA
ATOM     24  H3  UNL     1     -17.326   4.809  -0.557  1.00  0.00     0.209 HD
ENDBRANCH  22  23
ENDBRANCH   3  22
BRANCH   5  25
HETATM   25  O4  UNL     1     -21.534   5.277   0.518  1.00  0.00    -0.387 OA
ATOM     26  H4  UNL     1     -22.053   4.529   0.245  1.00  0.00     0.210 HD
ENDBRANCH   5  25
TORSDOF 10
ENDMDL
MODEL 4
REMARK VINA RESULT: -7.644929701      3.202      3.730
REMARK  10 active torsions:
REMARK  status: ('A' for Active; 'I' for Inactive)
REMARK    1  A    between atoms: C2_2  and  C3_3 
REMARK    2  A    between atoms: C2_2  and  N1_11 
REMARK    3  A    between atoms: C4_4  and  C5_5 
REMARK    4  A    between atoms: C5_5  and  C7_7 
REMARK    5  A    between atoms: C7_7  and  O1_9 
REMARK    6  A    between atoms: N1_11  and  C9_14 
REMARK    7  A    between atoms: C10_16  and  C11_18 
REMARK    8  A    between atoms: C11_18  and  O3_19 
REMARK    9  A    between atoms: C12_21  and  O4_22 
REMARK   10  A    between atoms: C13_24  and  O5_25 
ROOT
HETATM    1  C9  UNL     1     -21.966  -0.328   3.766  1.00  0.00     0.356 C 
HETATM    2  O2  UNL     1     -20.572  -0.179   3.790  1.00  0.00    -0.311 OA
HETATM    3  C10 UNL     1     -20.440   1.060   3.153  1.00  0.00     0.256 C 
HETATM    4  F1  UNL     1     -21.107   2.072   3.850  1.00  0.00    -0.206 F 
HETATM    5  C12 UNL     1     -21.176   0.796   1.862  1.00  0.00     0.220 C 
HETATM    6  C13 UNL     1     -22.412   0.034   2.370  1.00  0.00     0.209 C 
ENDROOT
BRANCH   1   7
HETATM    7  N1  UNL     1     -22.434  -1.585   4.241  1.00  0.00    -0.039 N 
ATOM      8  H12 UNL     1     -21.773  -2.335   4.041  1.00  0.00     0.281 HD
ATOM      9  H11 UNL     1     -23.223  -1.927   3.691  1.00  0.00     0.281 HD
BRANCH   7  10
HETATM   10  C2  UNL     1     -22.749  -1.512   5.626  1.00  0.00     0.207 C 
HETATM   11  C1  UNL     1     -24.042  -2.207   6.023  1.00  0.00     0.044 C 
BRANCH  10  12
HETATM   12  C3  UNL     1     -22.797  -0.143   6.175  1.00  0.00     0.002 C 
HETATM   13  C4  UNL     1     -23.772   0.192   6.997  1.00  0.00    -0.022 C 
BRANCH  13  14
HETATM   14  C5  UNL     1     -23.813   1.575   7.546  1.00  0.00     0.032 C 
HETATM   15  C6  UNL     1     -23.376   2.516   6.444  1.00  0.00     0.017 C 
BRANCH  14  16
HETATM   16  C7  UNL     1     -25.259   1.921   7.906  1.00  0.00     0.121 C 
HETATM   17  C8  UNL     1     -25.885   0.820   8.734  1.00  0.00     0.040 C 
BRANCH  16  18
HETATM   18  O1  UNL     1     -25.361   3.124   8.562  1.00  0.00    -0.395 OA
ATOM     19  H1  UNL     1     -24.611   3.686   8.407  1.00  0.00     0.210 HD
ENDBRANCH  16  18
ENDBRANCH  14  16
ENDBRANCH  13  14
ENDBRANCH  10  12
ENDBRANCH   7  10
ENDBRANCH   1   7
BRANCH   6  20
HETATM   20  O5  UNL     1     -22.642  -1.088   1.585  1.00  0.00    -0.388 OA
ATOM     21  H5  UNL     1     -23.430  -1.004   1.061  1.00  0.00     0.210 HD
ENDBRANCH   6  20
BRANCH   3  22
HETATM   22  C11 UNL     1     -19.020   1.485   2.947  1.00  0.00     0.240 C 
BRANCH  22  23
HETATM   23  O3  UNL     1     -18.149   0.462   2.629  1.00  0.00    -0.395 OA
ATOM     24  H3  UNL     1     -17.538   0.230   3.318  1.00  0.00     0.209 HD
ENDBRANCH  22  23
ENDBRANCH   3  22
BRANCH   5  25
HETATM   25  O4  UNL     1     -20.441  -0.004   0.992  1.00  0.00    -0.387 OA
ATOM     26  H4  UNL     1     -19.505   0.128   1.088  1.00  0.00     0.210 HD
ENDBRANCH   5  25
TORSDOF 10
ENDMDL
MODEL 5
REMARK VINA RESULT: -7.593421228      1.758      2.440
REMARK  10 active torsions:
REMARK  status: ('A' for Active; 'I' for Inactive)
REMARK    1  A    between atoms: C2_2  and  C3_3 
REMARK    2  A    between atoms: C2_2  and  N1_11 
REMARK    3  A    between atoms: C4_4  and  C5_5 
REMARK    4  A    between atoms: C5_5  and  C7_7 
REMARK    5  A    between atoms: C7_7  and  O1_9 
REMARK    6  A    between atoms: N1_11  and  C9_14 
REMARK    7  A    between atoms: C10_16  and  C11_18 
REMARK    8  A    between atoms: C11_18  and  O3_19 
REMARK    9  A    between atoms: C12_21  and  O4_22 
REMARK   10  A    between atoms: C13_24  and  O5_25 
ROOT
HETATM    1  C9  UNL     1     -21.316   1.824   2.088  1.00  0.00     0.356 C 
HETATM    2  O2  UNL     1     -21.045   2.993   2.815  1.00  0.00    -0.311 OA
HETATM    3  C10 UNL     1     -20.524   3.805   1.801  1.00  0.00     0.256 C 
HETATM    4  F1  UNL     1     -21.449   4.006   0.773  1.00  0.00    -0.206 F 
HETATM    5  C12 UNL     1     -19.407   2.930   1.283  1.00  0.00     0.220 C 
HETATM    6  C13 UNL     1     -20.098   1.556   1.239  1.00  0.00     0.209 C 
ENDROOT
BRANCH   1   7
HETATM    7  N1  UNL     1     -21.754   0.725   2.878  1.00  0.00    -0.039 N 
ATOM      8  H12 UNL     1     -21.216  -0.119   2.684  1.00  0.00     0.281 HD
ATOM      9  H11 UNL     1     -22.673   0.391   2.585  1.00  0.00     0.281 HD
BRANCH   7  10
HETATM   10  C2  UNL     1     -21.731   1.060   4.261  1.00  0.00     0.207 C 
HETATM   11  C1  UNL     1     -20.735   0.266   5.091  1.00  0.00     0.044 C 
BRANCH  10  12
HETATM   12  C3  UNL     1     -23.041   0.971   4.937  1.00  0.00     0.002 C 
HETATM   13  C4  UNL     1     -23.085   0.740   6.234  1.00  0.00    -0.022 C 
BRANCH  13  14
HETATM   14  C5  UNL     1     -24.409   0.652   6.909  1.00  0.00     0.032 C 
HETATM   15  C6  UNL     1     -24.247  -0.250   8.113  1.00  0.00     0.017 C 
BRANCH  14  16
HETATM   16  C7  UNL     1     -24.798   2.041   7.419  1.00  0.00     0.121 C 
HETATM   17  C8  UNL     1     -25.706   1.936   8.624  1.00  0.00     0.040 C 
BRANCH  16  18
HETATM   18  O1  UNL     1     -23.703   2.815   7.716  1.00  0.00    -0.395 OA
ATOM     19  H1  UNL     1     -23.690   3.629   7.225  1.00  0.00     0.210 HD
ENDBRANCH  16  18
ENDBRANCH  14  16
ENDBRANCH  13  14
ENDBRANCH  10  12
ENDBRANCH   7  10
ENDBRANCH   1   7
BRANCH   6  20
HETATM   20  O5  UNL     1     -19.274   0.585   1.795  1.00  0.00    -0.388 OA
ATOM     21  H5  UNL     1     -19.733  -0.234   1.940  1.00  0.00     0.210 HD
ENDBRANCH   6  20
BRANCH   3  22
HETATM   22  C11 UNL     1     -20.052   5.141   2.281  1.00  0.00     0.240 C 
BRANCH  22  23
HETATM   23  O3  UNL     1     -18.969   5.654   1.595  1.00  0.00    -0.395 OA
ATOM     24  H3  UNL     1     -18.247   5.938   2.144  1.00  0.00     0.209 HD
ENDBRANCH  22  23
ENDBRANCH   3  22
BRANCH   5  25
HETATM   25  O4  UNL     1     -18.320   2.895   2.152  1.00  0.00    -0.387 OA
ATOM     26  H4  UNL     1     -17.655   3.534   1.920  1.00  0.00     0.210 HD
ENDBRANCH   5  25
TORSDOF 10
ENDMDL
