MODEL 1
REMARK VINA RESULT: -6.133162444      0.000      0.000
REMARK  10 active torsions:
REMARK  status: ('A' for Active; 'I' for Inactive)
REMARK    1  A    between atoms: N1_2  and  C2_4 
REMARK    2  A    between atoms: C3_5  and  O1_6 
REMARK    3  A    between atoms: C4_8  and  C5_9 
REMARK    4  A    between atoms: C5_9  and  C7_11 
REMARK    5  A    between atoms: C7_11  and  O2_12 
REMARK    6  A    between atoms: C7_11  and  C8_14 
REMARK    7  A    between atoms: C8_14  and  O3_15 
REMARK    8  A    between atoms: C8_14  and  C9_17 
REMARK    9  A    between atoms: C9_17  and  C10_19 
REMARK   10  A    between atoms: C10_19  and  O4_22 
ROOT
HETATM    1  C7  UNL     1     -22.754  -0.950   5.626  1.00  0.00     0.154 C 
ENDROOT
BRANCH   1   2
HETATM    2  C5  UNL     1     -24.005  -0.285   6.197  1.00  0.00     0.021 C 
HETATM    3  C6  UNL     1     -24.909  -1.201   6.913  1.00  0.00     0.013 C 
BRANCH   2   4
HETATM    4  C4  UNL     1     -23.557   0.960   6.860  1.00  0.00     0.047 A 
HETATM    5  C2  UNL     1     -24.441   2.168   6.946  1.00  0.00     0.112 A 
HETATM    6  C3  UNL     1     -23.139   2.222   6.232  1.00  0.00     0.147 A 
BRANCH   5   7
HETATM    7  N1  UNL     1     -24.628   2.743   8.229  1.00  0.00    -0.418 N 
HETATM    8  C1  UNL     1     -25.951   3.115   8.566  1.00  0.00     0.140 C 
ATOM      9  H1  UNL     1     -23.850   2.881   8.874  1.00  0.00     0.153 HD
ENDBRANCH   5   7
BRANCH   6  10
HETATM   10  O1  UNL     1     -23.126   2.411   4.866  1.00  0.00    -0.393 OA
ATOM     11  H1  UNL     1     -22.962   1.669   4.295  1.00  0.00     0.210 HD
ENDBRANCH   6  10
ENDBRANCH   2   4
ENDBRANCH   1   2
BRANCH   1  12
HETATM   12  O2  UNL     1     -22.677  -2.227   6.192  1.00  0.00    -0.393 OA
ATOM     13  H2  UNL     1     -22.130  -2.154   6.966  1.00  0.00     0.210 HD
ENDBRANCH   1  12
BRANCH   1  14
HETATM   14  C8  UNL     1     -22.707  -1.073   4.168  1.00  0.00     0.185 C 
BRANCH  14  15
HETATM   15  O3  UNL     1     -22.767  -2.470   3.868  1.00  0.00    -0.390 OA
ATOM     16  H3  UNL     1     -22.325  -2.592   3.035  1.00  0.00     0.210 HD
ENDBRANCH  14  15
BRANCH  14  17
HETATM   17  C9  UNL     1     -21.533  -0.557   3.426  1.00  0.00     0.246 C 
HETATM   18  F1  UNL     1     -20.647   0.071   4.321  1.00  0.00    -0.242 F 
BRANCH  17  19
HETATM   19  C10 UNL     1     -21.759   0.292   2.219  1.00  0.00     0.147 C 
HETATM   20  C11 UNL     1     -22.025  -0.702   1.044  1.00  0.00     0.062 C 
HETATM   21  S1  UNL     1     -20.273   1.156   1.738  1.00  0.00    -0.053 SA
BRANCH  19  22
HETATM   22  O4  UNL     1     -22.879   1.046   2.330  1.00  0.00    -0.371 OA
HETATM   23  C12 UNL     1     -23.098   2.007   1.411  1.00  0.00     0.204 C 
ENDBRANCH  19  22
ENDBRANCH  17  19
ENDBRANCH  14  17
ENDBRANCH   1  14
TORSDOF 10
ENDMDL
MODEL 2
REMARK VINA RESULT: -6.035128209      1.536      1.736
REMARK  10 active torsions:
REMARK  status: ('A' for Active; 'I' for Inactive)
REMARK    1  A    between atoms: N1_2  and  C2_4 
REMARK    2  A    between atoms: C3_5  and  O1_6 
REMARK    3  A    between atoms: C4_8  and  C5_9 
REMARK    4  A    between atoms: C5_9  and  C7_11 
REMARK    5  A    between atoms: C7_11  and  O2_12 
REMARK    6  A    between atoms: C7_11  and  C8_14 
REMARK    7  A    between atoms: C8_14  and  O3_15 
REMARK    8  A    between atoms: C8_14  and  C9_17 
REMARK    9  A    between atoms: C9_17  and  C10_19 
REMARK   10  A    between atoms: C10_19  and  O4_22 
ROOT
HETATM    1  C7  UNL     1     -22.444  -0.443   5.654  1.00  0.00     0.154 C 
ENDROOT
BRANCH   1   2
HETATM    2  C5  UNL     1     -23.841  -0.163   6.203  1.00  0.00     0.021 C 
HETATM    3  C6  UNL     1     -24.594  -1.367   6.595  1.00  0.00     0.013 C 
BRANCH   2   4
HETATM    4  C4  UNL     1     -23.701   0.952   7.167  1.00  0.00     0.047 A 
HETATM    5  C2  UNL     1     -24.842   1.875   7.475  1.00  0.00     0.112 A 
HETATM    6  C3  UNL     1     -23.582   2.389   6.880  1.00  0.00     0.147 A 
BRANCH   5   7
HETATM    7  N1  UNL     1     -25.170   2.065   8.841  1.00  0.00    -0.418 N 
HETATM    8  C1  UNL     1     -26.323   2.840   9.111  1.00  0.00     0.140 C 
ATOM      9  H1  UNL     1     -24.605   1.665   9.589  1.00  0.00     0.153 HD
ENDBRANCH   5   7
BRANCH   6  10
HETATM   10  O1  UNL     1     -23.599   2.901   5.599  1.00  0.00    -0.393 OA
ATOM     11  H1  UNL     1     -23.237   3.764   5.438  1.00  0.00     0.210 HD
ENDBRANCH   6  10
ENDBRANCH   2   4
ENDBRANCH   1   2
BRANCH   1  12
HETATM   12  O2  UNL     1     -22.362  -1.822   5.432  1.00  0.00    -0.393 OA
ATOM     13  H2  UNL     1     -21.498  -2.097   5.717  1.00  0.00     0.210 HD
ENDBRANCH   1  12
BRANCH   1  14
HETATM   14  C8  UNL     1     -22.093   0.259   4.418  1.00  0.00     0.185 C 
BRANCH  14  15
HETATM   15  O3  UNL     1     -22.717  -0.452   3.346  1.00  0.00    -0.390 OA
ATOM     16  H3  UNL     1     -23.349   0.139   2.954  1.00  0.00     0.210 HD
ENDBRANCH  14  15
BRANCH  14  17
HETATM   17  C9  UNL     1     -20.670   0.395   4.030  1.00  0.00     0.246 C 
HETATM   18  F1  UNL     1     -19.914   0.808   5.142  1.00  0.00    -0.242 F 
BRANCH  17  19
HETATM   19  C10 UNL     1     -20.326   1.204   2.824  1.00  0.00     0.147 C 
HETATM   20  C11 UNL     1     -18.785   1.442   2.895  1.00  0.00     0.062 C 
HETATM   21  S1  UNL     1     -21.030   2.843   2.913  1.00  0.00    -0.053 SA
BRANCH  19  22
HETATM   22  O4  UNL     1     -20.546   0.523   1.674  1.00  0.00    -0.371 OA
HETATM   23  C12 UNL     1     -20.395   1.174   0.503  1.00  0.00     0.204 C 
ENDBRANCH  19  22
ENDBRANCH  17  19
ENDBRANCH  14  17
ENDBRANCH   1  14
TORSDOF 10
ENDMDL
MODEL 3
REMARK VINA RESULT: -5.949453734      2.251      2.804
REMARK  10 active torsions:
REMARK  status: ('A' for Active; 'I' for Inactive)
REMARK    1  A    between atoms: N1_2  and  C2_4 
REMARK    2  A    between atoms: C3_5  and  O1_6 
REMARK    3  A    between atoms: C4_8  and  C5_9 
REMARK    4  A    between atoms: C5_9  and  C7_11 
REMARK    5  A    between atoms: C7_11  and  O2_12 
REMARK    6  A    between atoms: C7_11  and  C8_14 
REMARK    7  A    between atoms: C8_14  and  O3_15 
REMARK    8  A    between atoms: C8_14  and  C9_17 
REMARK    9  A    between atoms: C9_17  and  C10_19 
REMARK   10  A    between atoms: C10_19  and  O4_22 
ROOT
HETATM    1  C7  UNL     1     -21.172  -0.518   3.966  1.00  0.00     0.154 C 
ENDROOT
BRANCH   1   2
HETATM    2  C5  UNL     1     -22.568  -0.575   4.583  1.00  0.00     0.021 C 
HETATM    3  C6  UNL     1     -23.123  -1.933   4.708  1.00  0.00     0.013 C 
BRANCH   2   4
HETATM    4  C4  UNL     1     -22.543   0.311   5.769  1.00  0.00     0.047 A 
HETATM    5  C2  UNL     1     -23.806   0.789   6.422  1.00  0.00     0.112 A 
HETATM    6  C3  UNL     1     -22.839   1.750   5.831  1.00  0.00     0.147 A 
BRANCH   5   7
HETATM    7  N1  UNL     1     -23.924   0.594   7.821  1.00  0.00    -0.418 N 
HETATM    8  C1  UNL     1     -25.237   0.594   8.350  1.00  0.00     0.140 C 
ATOM      9  H1  UNL     1     -23.106   0.460   8.416  1.00  0.00     0.153 HD
ENDBRANCH   5   7
BRANCH   6  10
HETATM   10  O1  UNL     1     -23.210   2.487   4.726  1.00  0.00    -0.393 OA
ATOM     11  H1  UNL     1     -23.397   2.040   3.909  1.00  0.00     0.210 HD
ENDBRANCH   6  10
ENDBRANCH   2   4
ENDBRANCH   1   2
BRANCH   1  12
HETATM   12  O2  UNL     1     -20.920  -1.777   3.411  1.00  0.00    -0.393 OA
ATOM     13  H2  UNL     1     -20.180  -1.677   2.823  1.00  0.00     0.210 HD
ENDBRANCH   1  12
BRANCH   1  14
HETATM   14  C8  UNL     1     -20.973   0.504   2.937  1.00  0.00     0.185 C 
BRANCH  14  15
HETATM   15  O3  UNL     1     -21.019  -0.166   1.674  1.00  0.00    -0.390 OA
ATOM     16  H3  UNL     1     -21.012   0.508   1.004  1.00  0.00     0.210 HD
ENDBRANCH  14  15
BRANCH  14  17
HETATM   17  C9  UNL     1     -19.721   1.296   2.921  1.00  0.00     0.246 C 
HETATM   18  F1  UNL     1     -19.399   1.696   4.231  1.00  0.00    -0.242 F 
BRANCH  17  19
HETATM   19  C10 UNL     1     -19.605   2.442   1.972  1.00  0.00     0.147 C 
HETATM   20  C11 UNL     1     -18.133   2.949   2.094  1.00  0.00     0.062 C 
HETATM   21  S1  UNL     1     -20.595   3.832   2.499  1.00  0.00    -0.053 SA
BRANCH  19  22
HETATM   22  O4  UNL     1     -19.760   2.054   0.684  1.00  0.00    -0.371 OA
HETATM   23  C12 UNL     1     -20.464   2.850  -0.146  1.00  0.00     0.204 C 
ENDBRANCH  19  22
ENDBRANCH  17  19
ENDBRANCH  14  17
ENDBRANCH   1  14
TORSDOF 10
ENDMDL
MODEL 4
REMARK VINA RESULT: -5.923240270      1.898      2.658
REMARK  10 active torsions:
REMARK  status: ('A' for Active; 'I' for Inactive)
REMARK    1  A    between atoms: N1_2  and  C2_4 
REMARK    2  A    between atoms: C3_5  and  O1_6 
REMARK    3  A    between atoms: C4_8  and  C5_9 
REMARK    4  A    between atoms: C5_9  and  C7_11 
REMARK    5  A    between atoms: C7_11  and  O2_12 
REMARK    6  A    between atoms: C7_11  and  C8_14 
REMARK    7  A    between atoms: C8_14  and  O3_15 
REMARK    8  A    between atoms: C8_14  and  C9_17 
REMARK    9  A    between atoms: C9_17  and  C10_19 
REMARK   10  A    between atoms: C10_19  and  O4_22 
ROOT
HETATM    1  C7  UNL     1     -21.431  -0.325   3.844  1.00  0.00     0.154 C 
ENDROOT
BRANCH   1   2
HETATM    2  C5  UNL     1     -22.733  -0.680   4.560  1.00  0.00     0.021 C 
HETATM    3  C6  UNL     1     -23.066  -2.115   4.544  1.00  0.00     0.013 C 
BRANCH   2   4
HETATM    4  C4  UNL     1     -22.718   0.048   5.849  1.00  0.00     0.047 A 
HETATM    5  C2  UNL     1     -23.987   0.431   6.552  1.00  0.00     0.112 A 
HETATM    6  C3  UNL     1     -23.024   1.465   6.093  1.00  0.00     0.147 A 
BRANCH   5   7
HETATM    7  N1  UNL     1     -24.109   0.057   7.914  1.00  0.00    -0.418 N 
HETATM    8  C1  UNL     1     -25.275   0.496   8.586  1.00  0.00     0.140 C 
ATOM      9  H1  UNL     1     -23.395  -0.497   8.385  1.00  0.00     0.153 HD
ENDBRANCH   5   7
BRANCH   6  10
HETATM   10  O1  UNL     1     -23.395   2.335   5.090  1.00  0.00    -0.393 OA
ATOM     11  H1  UNL     1     -22.807   3.040   4.843  1.00  0.00     0.210 HD
ENDBRANCH   6  10
ENDBRANCH   2   4
ENDBRANCH   1   2
BRANCH   1  12
HETATM   12  O2  UNL     1     -20.826  -1.532   3.478  1.00  0.00    -0.393 OA
ATOM     13  H2  UNL     1     -19.918  -1.481   3.755  1.00  0.00     0.210 HD
ENDBRANCH   1  12
BRANCH   1  14
HETATM   14  C8  UNL     1     -21.569   0.517   2.655  1.00  0.00     0.185 C 
BRANCH  14  15
HETATM   15  O3  UNL     1     -21.027  -0.223   1.557  1.00  0.00    -0.390 OA
ATOM     16  H3  UNL     1     -20.681   0.412   0.941  1.00  0.00     0.210 HD
ENDBRANCH  14  15
BRANCH  14  17
HETATM   17  C9  UNL     1     -20.899   1.838   2.611  1.00  0.00     0.246 C 
HETATM   18  F1  UNL     1     -20.244   2.077   3.832  1.00  0.00    -0.242 F 
BRANCH  17  19
HETATM   19  C10 UNL     1     -21.690   3.033   2.190  1.00  0.00     0.147 C 
HETATM   20  C11 UNL     1     -23.058   2.480   1.681  1.00  0.00     0.062 C 
HETATM   21  S1  UNL     1     -20.972   3.822   0.758  1.00  0.00    -0.053 SA
BRANCH  19  22
HETATM   22  O4  UNL     1     -21.981   3.844   3.235  1.00  0.00    -0.371 OA
HETATM   23  C12 UNL     1     -21.995   5.177   3.028  1.00  0.00     0.204 C 
ENDBRANCH  19  22
ENDBRANCH  17  19
ENDBRANCH  14  17
ENDBRANCH   1  14
TORSDOF 10
ENDMDL
MODEL 5
REMARK VINA RESULT: -5.908396290      1.833      2.116
REMARK  10 active torsions:
REMARK  status: ('A' for Active; 'I' for Inactive)
REMARK    1  A    between atoms: N1_2  and  C2_4 
REMARK    2  A    between atoms: C3_5  and  O1_6 
REMARK    3  A    between atoms: C4_8  and  C5_9 
REMARK    4  A    between atoms: C5_9  and  C7_11 
REMARK    5  A    between atoms: C7_11  and  O2_12 
REMARK    6  A    between atoms: C7_11  and  C8_14 
REMARK    7  A    between atoms: C8_14  and  O3_15 
REMARK    8  A    between atoms: C8_14  and  C9_17 
REMARK    9  A    between atoms: C9_17  and  C10_19 
REMARK   10  A    between atoms: C10_19  and  O4_22 
ROOT
HETATM    1  C7  UNL     1     -22.258  -0.029   4.545  1.00  0.00     0.154 C 
ENDROOT
BRANCH   1   2
HETATM    2  C5  UNL     1     -23.457  -0.374   5.427  1.00  0.00     0.021 C 
HETATM    3  C6  UNL     1     -23.660  -1.817   5.640  1.00  0.00     0.013 C 
BRANCH   2   4
HETATM    4  C4  UNL     1     -23.395   0.531   6.596  1.00  0.00     0.047 A 
HETATM    5  C2  UNL     1     -24.623   1.200   7.139  1.00  0.00     0.112 A 
HETATM    6  C3  UNL     1     -23.486   1.998   6.612  1.00  0.00     0.147 A 
BRANCH   5   7
HETATM    7  N1  UNL     1     -24.875   1.061   8.528  1.00  0.00    -0.418 N 
HETATM    8  C1  UNL     1     -26.218   1.223   8.944  1.00  0.00     0.140 C 
ATOM      9  H1  UNL     1     -24.128   0.856   9.191  1.00  0.00     0.153 HD
ENDBRANCH   5   7
BRANCH   6  10
HETATM   10  O1  UNL     1     -23.662   2.751   5.470  1.00  0.00    -0.393 OA
ATOM     11  H1  UNL     1     -22.971   2.777   4.818  1.00  0.00     0.210 HD
ENDBRANCH   6  10
ENDBRANCH   2   4
ENDBRANCH   1   2
BRANCH   1  12
HETATM   12  O2  UNL     1     -21.112  -0.209   5.326  1.00  0.00    -0.393 OA
ATOM     13  H2  UNL     1     -20.518   0.502   5.114  1.00  0.00     0.210 HD
ENDBRANCH   1  12
BRANCH   1  14
HETATM   14  C8  UNL     1     -22.126  -0.813   3.316  1.00  0.00     0.185 C 
BRANCH  14  15
HETATM   15  O3  UNL     1     -20.931  -1.589   3.447  1.00  0.00    -0.390 OA
ATOM     16  H3  UNL     1     -20.753  -1.667   4.377  1.00  0.00     0.210 HD
ENDBRANCH  14  15
BRANCH  14  17
HETATM   17  C9  UNL     1     -22.008  -0.120   2.012  1.00  0.00     0.246 C 
HETATM   18  F1  UNL     1     -21.897  -1.070   0.981  1.00  0.00    -0.242 F 
BRANCH  17  19
HETATM   19  C10 UNL     1     -20.985   0.955   1.858  1.00  0.00     0.147 C 
HETATM   20  C11 UNL     1     -21.717   2.292   2.197  1.00  0.00     0.062 C 
HETATM   21  S1  UNL     1     -20.487   1.145   0.153  1.00  0.00    -0.053 SA
BRANCH  19  22
HETATM   22  O4  UNL     1     -19.983   0.838   2.762  1.00  0.00    -0.371 OA
HETATM   23  C12 UNL     1     -19.310   1.950   3.121  1.00  0.00     0.204 C 
ENDBRANCH  19  22
ENDBRANCH  17  19
ENDBRANCH  14  17
ENDBRANCH   1  14
TORSDOF 10
ENDMDL
