MODEL 1
REMARK VINA RESULT: -6.415197147      0.000      0.000
REMARK  13 active torsions:
REMARK  status: ('A' for Active; 'I' for Inactive)
REMARK    1  A    between atoms: C1_4  and  C2_5 
REMARK    2  A    between atoms: C1_4  and  N3_10 
REMARK    3  A    between atoms: C2_5  and  N2_6 
REMARK    4  A    between atoms: N3_10  and  C3_12 
REMARK    5  A    between atoms: C3_12  and  C4_13 
REMARK    6  A    between atoms: C4_13  and  C5_14 
REMARK    7  A    between atoms: C5_14  and  N4_15 
REMARK    8  A    between atoms: N4_15  and  C6_17 
REMARK    9  A    between atoms: C6_17  and  C7_21 
REMARK   10  A    between atoms: N6_24  and  C10_25 
REMARK   11  A    between atoms: C10_25  and  C11_26 
REMARK   12  A    between atoms: C11_26  and  C12_27 
REMARK   13  A    between atoms: C12_27  and  N7_28 
ROOT
HETATM    1  C6  UNL     1       2.528  11.912  44.039  1.00  0.00     0.122 C 
HETATM    2  N5  UNL     1       1.417  12.334  43.562  1.00  0.00    -0.384 N 
ATOM      3  H51 UNL     1       0.694  11.689  43.244  1.00  0.00     0.157 HD
ATOM      4  H52 UNL     1       1.257  13.340  43.498  1.00  0.00     0.157 HD
ENDROOT
BRANCH   1   5
HETATM    5  N4  UNL     1       3.530  12.806  44.481  1.00  0.00    -0.375 N 
ATOM      6  H4  UNL     1       3.921  12.720  45.419  1.00  0.00     0.161 HD
BRANCH   5   7
HETATM    7  C5  UNL     1       3.992  13.840  43.592  1.00  0.00     0.123 C 
BRANCH   7   8
HETATM    8  C4  UNL     1       5.481  13.997  43.816  1.00  0.00     0.039 C 
BRANCH   8   9
HETATM    9  C3  UNL     1       5.843  15.428  44.102  1.00  0.00     0.122 C 
BRANCH   9  10
HETATM   10  N3  UNL     1       6.394  15.563  45.411  1.00  0.00    -0.379 N 
ATOM     11  H3  UNL     1       7.348  15.916  45.484  1.00  0.00     0.160 HD
BRANCH  10  12
HETATM   12  C1  UNL     1       5.728  15.248  46.609  1.00  0.00     0.096 C 
HETATM   13  N1  UNL     1       4.756  15.981  47.006  1.00  0.00    -0.388 N 
ATOM     14  H12 UNL     1       4.272  15.752  47.874  1.00  0.00     0.157 HD
ATOM     15  H11 UNL     1       4.474  16.787  46.448  1.00  0.00     0.157 HD
BRANCH  12  16
HETATM   16  C2  UNL     1       6.136  14.082  47.415  1.00  0.00     0.304 C 
BRANCH  16  17
HETATM   17  N2  UNL     1       4.961  13.247  47.596  1.00  0.00    -0.073 N 
ATOM     18  H23 UNL     1       4.676  13.166  48.572  1.00  0.00     0.274 HD
ATOM     19  H22 UNL     1       4.107  13.680  47.244  1.00  0.00     0.274 HD
ATOM     20  H21 UNL     1       5.159  12.345  47.163  1.00  0.00     0.274 HD
ENDBRANCH  16  17
ENDBRANCH  12  16
ENDBRANCH  10  12
ENDBRANCH   9  10
ENDBRANCH   8   9
ENDBRANCH   7   8
ENDBRANCH   5   7
ENDBRANCH   1   5
BRANCH   1  21
HETATM   21  C7  UNL     1       2.757  10.477  44.131  1.00  0.00     0.078 A 
HETATM   22  C8  UNL     1       1.733   9.554  43.954  1.00  0.00     0.050 A 
HETATM   23  C9  UNL     1       1.945   8.201  44.041  1.00  0.00     0.094 A 
HETATM   24  N6  UNL     1       3.178   7.747  44.307  1.00  0.00    -0.353 N 
HETATM   25  C13 UNL     1       4.162   8.637  44.477  1.00  0.00     0.183 A 
HETATM   26  N8  UNL     1       3.969   9.956  44.395  1.00  0.00    -0.349 N 
ATOM     27  H8  UNL     1       4.760  10.585  44.535  1.00  0.00     0.166 HD
BRANCH  24  28
HETATM   28  C10 UNL     1       3.412   6.332  44.407  1.00  0.00     0.130 C 
BRANCH  28  29
HETATM   29  C11 UNL     1       2.395   5.711  45.315  1.00  0.00     0.047 C 
BRANCH  29  30
HETATM   30  C12 UNL     1       2.983   5.050  46.522  1.00  0.00     0.231 C 
BRANCH  30  31
HETATM   31  N7  UNL     1       2.516   5.810  47.696  1.00  0.00    -0.079 N 
ATOM     32  H73 UNL     1       2.936   6.737  47.767  1.00  0.00     0.274 HD
ATOM     33  H72 UNL     1       1.545   6.113  47.618  1.00  0.00     0.274 HD
ATOM     34  H71 UNL     1       2.691   5.226  48.514  1.00  0.00     0.274 HD
ENDBRANCH  30  31
ENDBRANCH  29  30
ENDBRANCH  28  29
ENDBRANCH  24  28
ENDBRANCH   1  21
TORSDOF 13
ENDMDL
MODEL 2
REMARK VINA RESULT: -6.412852620      0.611      1.006
REMARK  13 active torsions:
REMARK  status: ('A' for Active; 'I' for Inactive)
REMARK    1  A    between atoms: C1_4  and  C2_5 
REMARK    2  A    between atoms: C1_4  and  N3_10 
REMARK    3  A    between atoms: C2_5  and  N2_6 
REMARK    4  A    between atoms: N3_10  and  C3_12 
REMARK    5  A    between atoms: C3_12  and  C4_13 
REMARK    6  A    between atoms: C4_13  and  C5_14 
REMARK    7  A    between atoms: C5_14  and  N4_15 
REMARK    8  A    between atoms: N4_15  and  C6_17 
REMARK    9  A    between atoms: C6_17  and  C7_21 
REMARK   10  A    between atoms: N6_24  and  C10_25 
REMARK   11  A    between atoms: C10_25  and  C11_26 
REMARK   12  A    between atoms: C11_26  and  C12_27 
REMARK   13  A    between atoms: C12_27  and  N7_28 
ROOT
HETATM    1  C6  UNL     1       2.424  11.935  44.020  1.00  0.00     0.122 C 
HETATM    2  N5  UNL     1       1.317  12.387  43.562  1.00  0.00    -0.384 N 
ATOM      3  H51 UNL     1       0.573  11.761  43.252  1.00  0.00     0.157 HD
ATOM      4  H52 UNL     1       1.181  13.396  43.504  1.00  0.00     0.157 HD
ENDROOT
BRANCH   1   5
HETATM    5  N4  UNL     1       3.454  12.802  44.450  1.00  0.00    -0.375 N 
ATOM      6  H4  UNL     1       3.842  12.716  45.390  1.00  0.00     0.161 HD
BRANCH   5   7
HETATM    7  C5  UNL     1       3.951  13.807  43.548  1.00  0.00     0.123 C 
BRANCH   7   8
HETATM    8  C4  UNL     1       5.436  13.950  43.803  1.00  0.00     0.039 C 
BRANCH   8   9
HETATM    9  C3  UNL     1       5.812  15.383  44.057  1.00  0.00     0.122 C 
BRANCH   9  10
HETATM   10  N3  UNL     1       6.369  15.541  45.362  1.00  0.00    -0.379 N 
ATOM     11  H3  UNL     1       7.308  15.935  45.426  1.00  0.00     0.160 HD
BRANCH  10  12
HETATM   12  C1  UNL     1       5.729  15.197  46.565  1.00  0.00     0.096 C 
HETATM   13  N1  UNL     1       4.778  15.931  47.010  1.00  0.00    -0.388 N 
ATOM     14  H12 UNL     1       4.313  15.681  47.883  1.00  0.00     0.157 HD
ATOM     15  H11 UNL     1       4.495  16.759  46.485  1.00  0.00     0.157 HD
BRANCH  12  16
HETATM   16  C2  UNL     1       6.138  14.000  47.323  1.00  0.00     0.304 C 
BRANCH  16  17
HETATM   17  N2  UNL     1       4.930  13.278  47.679  1.00  0.00    -0.073 N 
ATOM     18  H23 UNL     1       4.249  13.857  48.170  1.00  0.00     0.274 HD
ATOM     19  H22 UNL     1       4.350  13.049  46.872  1.00  0.00     0.274 HD
ATOM     20  H21 UNL     1       5.212  12.456  48.213  1.00  0.00     0.274 HD
ENDBRANCH  16  17
ENDBRANCH  12  16
ENDBRANCH  10  12
ENDBRANCH   9  10
ENDBRANCH   8   9
ENDBRANCH   7   8
ENDBRANCH   5   7
ENDBRANCH   1   5
BRANCH   1  21
HETATM   21  C7  UNL     1       2.619  10.495  44.103  1.00  0.00     0.078 A 
HETATM   22  C8  UNL     1       3.884   9.920  44.089  1.00  0.00     0.050 A 
HETATM   23  C9  UNL     1       4.071   8.562  44.166  1.00  0.00     0.094 A 
HETATM   24  N6  UNL     1       3.004   7.757  44.255  1.00  0.00    -0.353 N 
HETATM   25  C13 UNL     1       1.787   8.313  44.267  1.00  0.00     0.183 A 
HETATM   26  N8  UNL     1       1.590   9.632  44.194  1.00  0.00    -0.349 N 
ATOM     27  H8  UNL     1       0.637   9.995  44.208  1.00  0.00     0.166 HD
BRANCH  24  28
HETATM   28  C10 UNL     1       3.186   6.333  44.329  1.00  0.00     0.130 C 
BRANCH  28  29
HETATM   29  C11 UNL     1       2.258   5.755  45.353  1.00  0.00     0.047 C 
BRANCH  29  30
HETATM   30  C12 UNL     1       2.957   5.087  46.496  1.00  0.00     0.231 C 
BRANCH  30  31
HETATM   31  N7  UNL     1       2.603   5.840  47.713  1.00  0.00    -0.079 N 
ATOM     32  H73 UNL     1       3.377   6.392  48.083  1.00  0.00     0.274 HD
ATOM     33  H72 UNL     1       1.965   6.616  47.534  1.00  0.00     0.274 HD
ATOM     34  H71 UNL     1       2.236   5.164  48.383  1.00  0.00     0.274 HD
ENDBRANCH  30  31
ENDBRANCH  29  30
ENDBRANCH  28  29
ENDBRANCH  24  28
ENDBRANCH   1  21
TORSDOF 13
ENDMDL
MODEL 3
REMARK VINA RESULT: -6.294305791      1.491      8.065
REMARK  13 active torsions:
REMARK  status: ('A' for Active; 'I' for Inactive)
REMARK    1  A    between atoms: C1_4  and  C2_5 
REMARK    2  A    between atoms: C1_4  and  N3_10 
REMARK    3  A    between atoms: C2_5  and  N2_6 
REMARK    4  A    between atoms: N3_10  and  C3_12 
REMARK    5  A    between atoms: C3_12  and  C4_13 
REMARK    6  A    between atoms: C4_13  and  C5_14 
REMARK    7  A    between atoms: C5_14  and  N4_15 
REMARK    8  A    between atoms: N4_15  and  C6_17 
REMARK    9  A    between atoms: C6_17  and  C7_21 
REMARK   10  A    between atoms: N6_24  and  C10_25 
REMARK   11  A    between atoms: C10_25  and  C11_26 
REMARK   12  A    between atoms: C11_26  and  C12_27 
REMARK   13  A    between atoms: C12_27  and  N7_28 
ROOT
HETATM    1  C6  UNL     1       2.272  11.105  44.399  1.00  0.00     0.122 C 
HETATM    2  N5  UNL     1       1.016  11.355  44.420  1.00  0.00    -0.384 N 
ATOM      3  H51 UNL     1       0.664  12.311  44.456  1.00  0.00     0.157 HD
ATOM      4  H52 UNL     1       0.357  10.576  44.405  1.00  0.00     0.157 HD
ENDROOT
BRANCH   1   5
HETATM    5  N4  UNL     1       2.761   9.779  44.349  1.00  0.00    -0.375 N 
ATOM      6  H4  UNL     1       3.737   9.581  44.575  1.00  0.00     0.161 HD
BRANCH   5   7
HETATM    7  C5  UNL     1       1.869   8.713  43.977  1.00  0.00     0.123 C 
BRANCH   7   8
HETATM    8  C4  UNL     1       2.721   7.544  43.534  1.00  0.00     0.039 C 
BRANCH   8   9
HETATM    9  C3  UNL     1       3.262   6.784  44.712  1.00  0.00     0.122 C 
BRANCH   9  10
HETATM   10  N3  UNL     1       2.204   6.318  45.549  1.00  0.00    -0.379 N 
ATOM     11  H3  UNL     1       1.266   6.669  45.358  1.00  0.00     0.160 HD
BRANCH  10  12
HETATM   12  C1  UNL     1       2.351   5.414  46.615  1.00  0.00     0.096 C 
HETATM   13  N1  UNL     1       2.709   5.844  47.767  1.00  0.00    -0.388 N 
ATOM     14  H12 UNL     1       2.816   5.187  48.541  1.00  0.00     0.157 HD
ATOM     15  H11 UNL     1       2.884   6.840  47.899  1.00  0.00     0.157 HD
BRANCH  12  16
HETATM   16  C2  UNL     1       2.097   3.973  46.424  1.00  0.00     0.304 C 
BRANCH  16  17
HETATM   17  N2  UNL     1       2.796   3.265  47.482  1.00  0.00    -0.073 N 
ATOM     18  H23 UNL     1       2.333   3.344  48.388  1.00  0.00     0.274 HD
ATOM     19  H22 UNL     1       2.735   2.251  47.391  1.00  0.00     0.274 HD
ATOM     20  H21 UNL     1       3.757   3.608  47.495  1.00  0.00     0.274 HD
ENDBRANCH  16  17
ENDBRANCH  12  16
ENDBRANCH  10  12
ENDBRANCH   9  10
ENDBRANCH   8   9
ENDBRANCH   7   8
ENDBRANCH   5   7
ENDBRANCH   1   5
BRANCH   1  21
HETATM   21  C7  UNL     1       3.214  12.216  44.421  1.00  0.00     0.078 A 
HETATM   22  C8  UNL     1       3.263  13.160  43.403  1.00  0.00     0.050 A 
HETATM   23  C9  UNL     1       4.150  14.208  43.421  1.00  0.00     0.094 A 
HETATM   24  N6  UNL     1       5.000  14.330  44.450  1.00  0.00    -0.353 N 
HETATM   25  C13 UNL     1       4.951  13.419  45.428  1.00  0.00     0.183 A 
HETATM   26  N8  UNL     1       4.093  12.395  45.424  1.00  0.00    -0.349 N 
ATOM     27  H8  UNL     1       4.104  11.733  46.199  1.00  0.00     0.166 HD
BRANCH  24  28
HETATM   28  C10 UNL     1       5.939  15.419  44.477  1.00  0.00     0.130 C 
BRANCH  28  29
HETATM   29  C11 UNL     1       6.282  15.757  45.895  1.00  0.00     0.047 C 
BRANCH  29  30
HETATM   30  C12 UNL     1       7.567  16.512  46.045  1.00  0.00     0.231 C 
BRANCH  30  31
HETATM   31  N7  UNL     1       7.578  17.070  47.409  1.00  0.00    -0.079 N 
ATOM     32  H73 UNL     1       7.114  16.471  48.092  1.00  0.00     0.274 HD
ATOM     33  H72 UNL     1       8.504  17.063  47.838  1.00  0.00     0.274 HD
ATOM     34  H71 UNL     1       7.170  18.003  47.350  1.00  0.00     0.274 HD
ENDBRANCH  30  31
ENDBRANCH  29  30
ENDBRANCH  28  29
ENDBRANCH  24  28
ENDBRANCH   1  21
TORSDOF 13
ENDMDL
MODEL 4
REMARK VINA RESULT: -6.265709878      2.237      3.067
REMARK  13 active torsions:
REMARK  status: ('A' for Active; 'I' for Inactive)
REMARK    1  A    between atoms: C1_4  and  C2_5 
REMARK    2  A    between atoms: C1_4  and  N3_10 
REMARK    3  A    between atoms: C2_5  and  N2_6 
REMARK    4  A    between atoms: N3_10  and  C3_12 
REMARK    5  A    between atoms: C3_12  and  C4_13 
REMARK    6  A    between atoms: C4_13  and  C5_14 
REMARK    7  A    between atoms: C5_14  and  N4_15 
REMARK    8  A    between atoms: N4_15  and  C6_17 
REMARK    9  A    between atoms: C6_17  and  C7_21 
REMARK   10  A    between atoms: N6_24  and  C10_25 
REMARK   11  A    between atoms: C10_25  and  C11_26 
REMARK   12  A    between atoms: C11_26  and  C12_27 
REMARK   13  A    between atoms: C12_27  and  N7_28 
ROOT
HETATM    1  C6  UNL     1       2.287  11.021  44.577  1.00  0.00     0.122 C 
HETATM    2  N5  UNL     1       1.123  10.900  45.097  1.00  0.00    -0.384 N 
ATOM      3  H51 UNL     1       0.585  10.038  45.004  1.00  0.00     0.157 HD
ATOM      4  H52 UNL     1       0.727  11.687  45.612  1.00  0.00     0.157 HD
ENDROOT
BRANCH   1   5
HETATM    5  N4  UNL     1       3.033  12.216  44.706  1.00  0.00    -0.375 N 
ATOM      6  H4  UNL     1       3.629  12.367  45.520  1.00  0.00     0.161 HD
BRANCH   5   7
HETATM    7  C5  UNL     1       2.942  13.218  43.676  1.00  0.00     0.123 C 
BRANCH   7   8
HETATM    8  C4  UNL     1       4.230  14.012  43.702  1.00  0.00     0.039 C 
BRANCH   8   9
HETATM    9  C3  UNL     1       5.262  13.351  44.572  1.00  0.00     0.122 C 
BRANCH   9  10
HETATM   10  N3  UNL     1       5.930  14.310  45.391  1.00  0.00    -0.379 N 
ATOM     11  H3  UNL     1       6.672  14.861  44.958  1.00  0.00     0.160 HD
BRANCH  10  12
HETATM   12  C1  UNL     1       5.649  14.557  46.746  1.00  0.00     0.096 C 
HETATM   13  N1  UNL     1       5.217  15.708  47.104  1.00  0.00    -0.388 N 
ATOM     14  H12 UNL     1       5.012  15.888  48.088  1.00  0.00     0.157 HD
ATOM     15  H11 UNL     1       5.082  16.435  46.402  1.00  0.00     0.157 HD
BRANCH  12  16
HETATM   16  C2  UNL     1       5.845  13.506  47.761  1.00  0.00     0.304 C 
BRANCH  16  17
HETATM   17  N2  UNL     1       4.531  13.003  48.124  1.00  0.00    -0.073 N 
ATOM     18  H23 UNL     1       3.890  13.739  48.417  1.00  0.00     0.274 HD
ATOM     19  H22 UNL     1       3.995  12.673  47.322  1.00  0.00     0.274 HD
ATOM     20  H21 UNL     1       4.666  12.286  48.837  1.00  0.00     0.274 HD
ENDBRANCH  16  17
ENDBRANCH  12  16
ENDBRANCH  10  12
ENDBRANCH   9  10
ENDBRANCH   8   9
ENDBRANCH   7   8
ENDBRANCH   5   7
ENDBRANCH   1   5
BRANCH   1  21
HETATM   21  C7  UNL     1       2.853   9.900  43.842  1.00  0.00     0.078 A 
HETATM   22  C8  UNL     1       2.203   8.674  43.752  1.00  0.00     0.050 A 
HETATM   23  C9  UNL     1       2.735   7.614  43.061  1.00  0.00     0.094 A 
HETATM   24  N6  UNL     1       3.919   7.757  42.451  1.00  0.00    -0.353 N 
HETATM   25  C13 UNL     1       4.543   8.937  42.539  1.00  0.00     0.183 A 
HETATM   26  N8  UNL     1       4.037   9.977  43.208  1.00  0.00    -0.349 N 
ATOM     27  H8  UNL     1       4.561  10.852  43.239  1.00  0.00     0.166 HD
BRANCH  24  28
HETATM   28  C10 UNL     1       4.490   6.653  41.729  1.00  0.00     0.130 C 
BRANCH  28  29
HETATM   29  C11 UNL     1       3.499   6.130  40.734  1.00  0.00     0.047 C 
BRANCH  29  30
HETATM   30  C12 UNL     1       3.679   6.679  39.353  1.00  0.00     0.231 C 
BRANCH  30  31
HETATM   31  N7  UNL     1       2.351   6.666  38.712  1.00  0.00    -0.079 N 
ATOM     32  H73 UNL     1       1.788   5.856  38.969  1.00  0.00     0.274 HD
ATOM     33  H72 UNL     1       1.722   7.382  39.077  1.00  0.00     0.274 HD
ATOM     34  H71 UNL     1       2.507   6.743  37.707  1.00  0.00     0.274 HD
ENDBRANCH  30  31
ENDBRANCH  29  30
ENDBRANCH  28  29
ENDBRANCH  24  28
ENDBRANCH   1  21
TORSDOF 13
ENDMDL
MODEL 5
REMARK VINA RESULT: -6.247573483      2.239      3.202
REMARK  13 active torsions:
REMARK  status: ('A' for Active; 'I' for Inactive)
REMARK    1  A    between atoms: C1_4  and  C2_5 
REMARK    2  A    between atoms: C1_4  and  N3_10 
REMARK    3  A    between atoms: C2_5  and  N2_6 
REMARK    4  A    between atoms: N3_10  and  C3_12 
REMARK    5  A    between atoms: C3_12  and  C4_13 
REMARK    6  A    between atoms: C4_13  and  C5_14 
REMARK    7  A    between atoms: C5_14  and  N4_15 
REMARK    8  A    between atoms: N4_15  and  C6_17 
REMARK    9  A    between atoms: C6_17  and  C7_21 
REMARK   10  A    between atoms: N6_24  and  C10_25 
REMARK   11  A    between atoms: C10_25  and  C11_26 
REMARK   12  A    between atoms: C11_26  and  C12_27 
REMARK   13  A    between atoms: C12_27  and  N7_28 
ROOT
HETATM    1  C6  UNL     1       2.224  11.054  44.635  1.00  0.00     0.122 C 
HETATM    2  N5  UNL     1       1.058  11.003  45.163  1.00  0.00    -0.384 N 
ATOM      3  H51 UNL     1       0.486  10.160  45.110  1.00  0.00     0.157 HD
ATOM      4  H52 UNL     1       0.696  11.826  45.644  1.00  0.00     0.157 HD
ENDROOT
BRANCH   1   5
HETATM    5  N4  UNL     1       3.017  12.223  44.709  1.00  0.00    -0.375 N 
ATOM      6  H4  UNL     1       3.657  12.362  45.491  1.00  0.00     0.161 HD
BRANCH   5   7
HETATM    7  C5  UNL     1       2.912  13.212  43.669  1.00  0.00     0.123 C 
BRANCH   7   8
HETATM    8  C4  UNL     1       4.205  13.999  43.661  1.00  0.00     0.039 C 
BRANCH   8   9
HETATM    9  C3  UNL     1       5.242  13.356  44.539  1.00  0.00     0.122 C 
BRANCH   9  10
HETATM   10  N3  UNL     1       5.900  14.329  45.350  1.00  0.00    -0.379 N 
ATOM     11  H3  UNL     1       6.610  14.909  44.904  1.00  0.00     0.160 HD
BRANCH  10  12
HETATM   12  C1  UNL     1       5.647  14.551  46.715  1.00  0.00     0.096 C 
HETATM   13  N1  UNL     1       5.240  15.701  47.106  1.00  0.00    -0.388 N 
ATOM     14  H12 UNL     1       5.057  15.862  48.096  1.00  0.00     0.157 HD
ATOM     15  H11 UNL     1       5.104  16.444  46.421  1.00  0.00     0.157 HD
BRANCH  12  16
HETATM   16  C2  UNL     1       5.845  13.475  47.704  1.00  0.00     0.304 C 
BRANCH  16  17
HETATM   17  N2  UNL     1       4.529  13.006  48.104  1.00  0.00    -0.073 N 
ATOM     18  H23 UNL     1       4.241  13.357  49.016  1.00  0.00     0.274 HD
ATOM     19  H22 UNL     1       3.775  13.422  47.557  1.00  0.00     0.274 HD
ATOM     20  H21 UNL     1       4.542  11.987  48.055  1.00  0.00     0.274 HD
ENDBRANCH  16  17
ENDBRANCH  12  16
ENDBRANCH  10  12
ENDBRANCH   9  10
ENDBRANCH   8   9
ENDBRANCH   7   8
ENDBRANCH   5   7
ENDBRANCH   1   5
BRANCH   1  21
HETATM   21  C7  UNL     1       2.741   9.879  43.949  1.00  0.00     0.078 A 
HETATM   22  C8  UNL     1       3.969   9.887  43.297  1.00  0.00     0.050 A 
HETATM   23  C9  UNL     1       4.459   8.781  42.648  1.00  0.00     0.094 A 
HETATM   24  N6  UNL     1       3.735   7.654  42.637  1.00  0.00    -0.353 N 
HETATM   25  C13 UNL     1       2.553   7.649  43.264  1.00  0.00     0.183 A 
HETATM   26  N8  UNL     1       2.065   8.717  43.900  1.00  0.00    -0.349 N 
ATOM     27  H8  UNL     1       1.157   8.651  44.360  1.00  0.00     0.166 HD
BRANCH  24  28
HETATM   28  C10 UNL     1       4.234   6.490  41.955  1.00  0.00     0.130 C 
BRANCH  28  29
HETATM   29  C11 UNL     1       3.421   6.236  40.723  1.00  0.00     0.047 C 
BRANCH  29  30
HETATM   30  C12 UNL     1       4.021   6.801  39.473  1.00  0.00     0.231 C 
BRANCH  30  31
HETATM   31  N7  UNL     1       2.933   6.894  38.481  1.00  0.00    -0.079 N 
ATOM     32  H73 UNL     1       2.923   6.115  37.823  1.00  0.00     0.274 HD
ATOM     33  H72 UNL     1       2.009   6.736  38.883  1.00  0.00     0.274 HD
ATOM     34  H71 UNL     1       3.024   7.803  38.027  1.00  0.00     0.274 HD
ENDBRANCH  30  31
ENDBRANCH  29  30
ENDBRANCH  28  29
ENDBRANCH  24  28
ENDBRANCH   1  21
TORSDOF 13
ENDMDL
