MODEL 1
REMARK VINA RESULT: -7.939166641      0.000      0.000
REMARK  7 active torsions:
REMARK  status: ('A' for Active; 'I' for Inactive)
REMARK    1  A    between atoms: N1_1  and  C1_4 
REMARK    2  A    between atoms: C5_14  and  N5_15 
REMARK    3  A    between atoms: N6_18  and  C6_19 
REMARK    4  A    between atoms: C6_19  and  C7_20 
REMARK    5  A    between atoms: C7_20  and  N7_21 
REMARK    6  A    between atoms: C10_26  and  N9_27 
REMARK    7  A    between atoms: N9_27  and  C11_29 
ROOT
HETATM    1  C6  UNL     1      28.786  41.271  18.378  1.00  0.00     0.169 C 
ENDROOT
BRANCH   1   2
HETATM    2  N6  UNL     1      28.434  42.643  18.130  1.00  0.00    -0.165 N 
HETATM    3  C3  UNL     1      27.386  43.347  18.560  1.00  0.00     0.155 A 
HETATM    4  N3  UNL     1      26.370  42.982  19.343  1.00  0.00    -0.336 N 
HETATM    5  C4  UNL     1      27.487  44.628  18.052  1.00  0.00     0.137 A 
HETATM    6  C2  UNL     1      25.423  43.892  19.638  1.00  0.00     0.183 A 
ATOM      7  H3  UNL     1      26.311  42.032  19.711  1.00  0.00     0.168 HD
HETATM    8  N2  UNL     1      25.510  45.149  19.146  1.00  0.00    -0.337 N 
HETATM    9  C1  UNL     1      26.518  45.554  18.355  1.00  0.00     0.131 A 
ATOM     10  H2  UNL     1      24.778  45.818  19.386  1.00  0.00     0.168 HD
HETATM   11  N4  UNL     1      28.605  44.672  17.316  1.00  0.00    -0.184 N 
HETATM   12  C5  UNL     1      29.180  43.461  17.364  1.00  0.00     0.680 A 
ATOM     13  H4  UNL     1      28.957  45.484  16.807  1.00  0.00     0.184 HD
BRANCH   9  14
HETATM   14  N1  UNL     1      26.595  46.746  17.893  1.00  0.00    -0.383 N 
ATOM     15  H12 UNL     1      26.183  46.976  16.988  1.00  0.00     0.157 HD
ATOM     16  H11 UNL     1      27.062  47.501  18.396  1.00  0.00     0.157 HD
ENDBRANCH   9  14
BRANCH  12  17
HETATM   17  N5  UNL     1      30.274  43.164  16.763  1.00  0.00    -0.234 N 
ATOM     18  H52 UNL     1      30.373  42.841  15.801  1.00  0.00     0.174 HD
ATOM     19  H51 UNL     1      31.195  43.220  17.198  1.00  0.00     0.174 HD
ENDBRANCH  12  17
ENDBRANCH   1   2
BRANCH   1  20
HETATM   20  C7  UNL     1      28.981  40.977  19.841  1.00  0.00     0.152 C 
BRANCH  20  21
HETATM   21  N7  UNL     1      30.357  41.245  20.211  1.00  0.00    -0.326 N 
HETATM   22  C8  UNL     1      31.448  40.900  19.507  1.00  0.00     0.185 A 
HETATM   23  N8  UNL     1      32.563  41.298  20.134  1.00  0.00    -0.346 N 
HETATM   24  C9  UNL     1      32.201  41.921  21.277  1.00  0.00     0.122 A 
ATOM     25  H8  UNL     1      33.519  41.157  19.805  1.00  0.00     0.167 HD
HETATM   26  C10 UNL     1      32.914  42.516  22.287  1.00  0.00     0.133 A 
HETATM   27  C15 UNL     1      30.818  41.876  21.307  1.00  0.00     0.140 A 
HETATM   28  N10 UNL     1      32.254  43.059  23.313  1.00  0.00    -0.337 N 
HETATM   29  C14 UNL     1      30.895  43.024  23.359  1.00  0.00     0.183 A 
ATOM     30  H10 UNL     1      32.774  43.504  24.070  1.00  0.00     0.168 HD
HETATM   31  N11 UNL     1      30.207  42.432  22.354  1.00  0.00    -0.336 N 
ATOM     32  H11 UNL     1      29.188  42.410  22.399  1.00  0.00     0.168 HD
BRANCH  26  33
HETATM   33  N9  UNL     1      34.172  42.541  22.233  1.00  0.00    -0.370 N 
ATOM     34  H9  UNL     1      34.616  43.386  22.594  1.00  0.00     0.161 HD
BRANCH  33  35
HETATM   35  C11 UNL     1      35.053  41.542  21.734  1.00  0.00     0.083 A 
HETATM   36  C12 UNL     1      35.306  40.380  22.693  1.00  0.00     0.027 A 
HETATM   37  C13 UNL     1      36.400  41.303  22.294  1.00  0.00     0.027 A 
ENDBRANCH  33  35
ENDBRANCH  26  33
ENDBRANCH  20  21
ENDBRANCH   1  20
TORSDOF 7
ENDMDL
MODEL 2
REMARK VINA RESULT: -7.863864249      2.389      3.480
REMARK  7 active torsions:
REMARK  status: ('A' for Active; 'I' for Inactive)
REMARK    1  A    between atoms: N1_1  and  C1_4 
REMARK    2  A    between atoms: C5_14  and  N5_15 
REMARK    3  A    between atoms: N6_18  and  C6_19 
REMARK    4  A    between atoms: C6_19  and  C7_20 
REMARK    5  A    between atoms: C7_20  and  N7_21 
REMARK    6  A    between atoms: C10_26  and  N9_27 
REMARK    7  A    between atoms: N9_27  and  C11_29 
ROOT
HETATM    1  C6  UNL     1      27.106  42.578  19.095  1.00  0.00     0.169 C 
ENDROOT
BRANCH   1   2
HETATM    2  N6  UNL     1      25.671  42.657  19.047  1.00  0.00    -0.165 N 
HETATM    3  C3  UNL     1      24.804  41.990  18.284  1.00  0.00     0.155 A 
HETATM    4  N3  UNL     1      25.019  41.061  17.351  1.00  0.00    -0.336 N 
HETATM    5  C4  UNL     1      23.528  42.415  18.604  1.00  0.00     0.137 A 
HETATM    6  C2  UNL     1      23.960  40.532  16.712  1.00  0.00     0.183 A 
ATOM      7  H3  UNL     1      25.967  40.758  17.127  1.00  0.00     0.168 HD
HETATM    8  N2  UNL     1      22.707  40.939  17.016  1.00  0.00    -0.337 N 
HETATM    9  C1  UNL     1      22.450  41.872  17.948  1.00  0.00     0.131 A 
ATOM     10  H2  UNL     1      21.923  40.520  16.515  1.00  0.00     0.168 HD
HETATM   11  N4  UNL     1      23.652  43.341  19.565  1.00  0.00    -0.184 N 
HETATM   12  C5  UNL     1      24.959  43.487  19.832  1.00  0.00     0.680 A 
ATOM     13  H4  UNL     1      22.887  43.846  20.013  1.00  0.00     0.184 HD
BRANCH   9  14
HETATM   14  N1  UNL     1      21.261  42.254  18.232  1.00  0.00    -0.383 N 
ATOM     15  H12 UNL     1      20.469  41.931  17.676  1.00  0.00     0.157 HD
ATOM     16  H11 UNL     1      21.057  42.883  19.009  1.00  0.00     0.157 HD
ENDBRANCH   9  14
BRANCH  12  17
HETATM   17  N5  UNL     1      25.423  44.300  20.709  1.00  0.00    -0.234 N 
ATOM     18  H52 UNL     1      25.030  44.493  21.630  1.00  0.00     0.174 HD
ATOM     19  H51 UNL     1      26.264  44.861  20.575  1.00  0.00     0.174 HD
ENDBRANCH  12  17
ENDBRANCH   1   2
BRANCH   1  20
HETATM   20  C7  UNL     1      27.596  41.312  19.746  1.00  0.00     0.152 C 
BRANCH  20  21
HETATM   21  N7  UNL     1      29.027  41.400  19.962  1.00  0.00    -0.326 N 
HETATM   22  C8  UNL     1      29.957  41.641  19.022  1.00  0.00     0.185 A 
HETATM   23  N8  UNL     1      31.183  41.655  19.560  1.00  0.00    -0.346 N 
HETATM   24  C9  UNL     1      31.061  41.418  20.885  1.00  0.00     0.122 A 
ATOM     25  H8  UNL     1      32.056  41.816  19.058  1.00  0.00     0.167 HD
HETATM   26  C10 UNL     1      31.971  41.323  21.908  1.00  0.00     0.133 A 
HETATM   27  C15 UNL     1      29.706  41.262  21.116  1.00  0.00     0.140 A 
HETATM   28  N10 UNL     1      31.533  41.073  23.144  1.00  0.00    -0.337 N 
HETATM   29  C14 UNL     1      30.204  40.916  23.389  1.00  0.00     0.183 A 
ATOM     30  H10 UNL     1      32.201  41.000  23.912  1.00  0.00     0.168 HD
HETATM   31  N11 UNL     1      29.319  41.013  22.368  1.00  0.00    -0.336 N 
ATOM     32  H11 UNL     1      28.326  40.892  22.563  1.00  0.00     0.168 HD
BRANCH  26  33
HETATM   33  N9  UNL     1      33.199  41.470  21.668  1.00  0.00    -0.370 N 
ATOM     34  H9  UNL     1      33.441  41.667  20.697  1.00  0.00     0.161 HD
BRANCH  33  35
HETATM   35  C11 UNL     1      34.290  41.396  22.577  1.00  0.00     0.083 A 
HETATM   36  C12 UNL     1      35.669  41.518  21.929  1.00  0.00     0.027 A 
HETATM   37  C13 UNL     1      35.242  40.264  22.603  1.00  0.00     0.027 A 
ENDBRANCH  33  35
ENDBRANCH  26  33
ENDBRANCH  20  21
ENDBRANCH   1  20
TORSDOF 7
ENDMDL
MODEL 3
REMARK VINA RESULT: -7.782798898      1.848      7.901
REMARK  7 active torsions:
REMARK  status: ('A' for Active; 'I' for Inactive)
REMARK    1  A    between atoms: N1_1  and  C1_4 
REMARK    2  A    between atoms: C5_14  and  N5_15 
REMARK    3  A    between atoms: N6_18  and  C6_19 
REMARK    4  A    between atoms: C6_19  and  C7_20 
REMARK    5  A    between atoms: C7_20  and  N7_21 
REMARK    6  A    between atoms: C10_26  and  N9_27 
REMARK    7  A    between atoms: N9_27  and  C11_29 
ROOT
HETATM    1  C6  UNL     1      28.949  41.263  19.076  1.00  0.00     0.169 C 
ENDROOT
BRANCH   1   2
HETATM    2  N6  UNL     1      30.230  41.224  19.730  1.00  0.00    -0.165 N 
HETATM    3  C3  UNL     1      30.527  41.269  21.029  1.00  0.00     0.155 A 
HETATM    4  N3  UNL     1      29.724  41.361  22.091  1.00  0.00    -0.336 N 
HETATM    5  C4  UNL     1      31.901  41.199  21.162  1.00  0.00     0.137 A 
HETATM    6  C2  UNL     1      30.278  41.389  23.317  1.00  0.00     0.183 A 
ATOM      7  H3  UNL     1      28.712  41.411  21.975  1.00  0.00     0.168 HD
HETATM    8  N2  UNL     1      31.621  41.322  23.460  1.00  0.00    -0.337 N 
HETATM    9  C1  UNL     1      32.462  41.228  22.415  1.00  0.00     0.131 A 
ATOM     10  H2  UNL     1      32.013  41.345  24.402  1.00  0.00     0.168 HD
HETATM   11  N4  UNL     1      32.411  41.114  19.926  1.00  0.00    -0.184 N 
HETATM   12  C5  UNL     1      31.391  41.129  19.055  1.00  0.00     0.680 A 
ATOM     13  H4  UNL     1      33.402  41.049  19.689  1.00  0.00     0.184 HD
BRANCH   9  14
HETATM   14  N1  UNL     1      33.732  41.165  22.557  1.00  0.00    -0.383 N 
ATOM     15  H12 UNL     1      34.191  41.657  23.324  1.00  0.00     0.157 HD
ATOM     16  H11 UNL     1      34.330  40.634  21.924  1.00  0.00     0.157 HD
ENDBRANCH   9  14
BRANCH  12  17
HETATM   17  N5  UNL     1      31.535  41.061  17.782  1.00  0.00    -0.234 N 
ATOM     18  H52 UNL     1      30.849  40.726  17.107  1.00  0.00     0.174 HD
ATOM     19  H51 UNL     1      32.383  41.343  17.291  1.00  0.00     0.174 HD
ENDBRANCH  12  17
ENDBRANCH   1   2
BRANCH   1  20
HETATM   20  C7  UNL     1      28.610  42.628  18.542  1.00  0.00     0.152 C 
BRANCH  20  21
HETATM   21  N7  UNL     1      27.385  43.101  19.158  1.00  0.00    -0.326 N 
HETATM   22  C8  UNL     1      26.630  42.424  20.039  1.00  0.00     0.185 A 
HETATM   23  N8  UNL     1      25.567  43.150  20.408  1.00  0.00    -0.346 N 
HETATM   24  C9  UNL     1      25.621  44.333  19.757  1.00  0.00     0.122 A 
ATOM     25  H8  UNL     1      24.843  42.861  21.066  1.00  0.00     0.167 HD
HETATM   26  C10 UNL     1      24.810  45.440  19.754  1.00  0.00     0.133 A 
HETATM   27  C15 UNL     1      26.765  44.282  18.981  1.00  0.00     0.140 A 
HETATM   28  N10 UNL     1      25.136  46.480  18.985  1.00  0.00    -0.337 N 
HETATM   29  C14 UNL     1      26.257  46.447  18.214  1.00  0.00     0.183 A 
ATOM     30  H10 UNL     1      24.540  47.308  18.974  1.00  0.00     0.168 HD
HETATM   31  N11 UNL     1      27.047  45.347  18.229  1.00  0.00    -0.336 N 
ATOM     32  H11 UNL     1      27.884  45.333  17.647  1.00  0.00     0.168 HD
BRANCH  26  33
HETATM   33  N9  UNL     1      23.774  45.457  20.471  1.00  0.00    -0.370 N 
ATOM     34  H9  UNL     1      23.903  45.180  21.444  1.00  0.00     0.161 HD
BRANCH  33  35
HETATM   35  C11 UNL     1      22.449  45.814  20.097  1.00  0.00     0.083 A 
HETATM   36  C12 UNL     1      21.453  44.656  20.099  1.00  0.00     0.027 A 
HETATM   37  C13 UNL     1      21.816  45.359  18.841  1.00  0.00     0.027 A 
ENDBRANCH  33  35
ENDBRANCH  26  33
ENDBRANCH  20  21
ENDBRANCH   1  20
TORSDOF 7
ENDMDL
MODEL 4
REMARK VINA RESULT: -7.749930022      3.810      6.855
REMARK  7 active torsions:
REMARK  status: ('A' for Active; 'I' for Inactive)
REMARK    1  A    between atoms: N1_1  and  C1_4 
REMARK    2  A    between atoms: C5_14  and  N5_15 
REMARK    3  A    between atoms: N6_18  and  C6_19 
REMARK    4  A    between atoms: C6_19  and  C7_20 
REMARK    5  A    between atoms: C7_20  and  N7_21 
REMARK    6  A    between atoms: C10_26  and  N9_27 
REMARK    7  A    between atoms: N9_27  and  C11_29 
ROOT
HETATM    1  C6  UNL     1      30.033  40.351  18.951  1.00  0.00     0.169 C 
ENDROOT
BRANCH   1   2
HETATM    2  N6  UNL     1      30.316  41.116  20.135  1.00  0.00    -0.165 N 
HETATM    3  C3  UNL     1      31.489  41.471  20.662  1.00  0.00     0.155 A 
HETATM    4  N3  UNL     1      32.730  41.220  20.242  1.00  0.00    -0.336 N 
HETATM    5  C4  UNL     1      31.244  42.204  21.808  1.00  0.00     0.137 A 
HETATM    6  C2  UNL     1      33.763  41.697  20.962  1.00  0.00     0.183 A 
ATOM      7  H3  UNL     1      32.894  40.678  19.394  1.00  0.00     0.168 HD
HETATM    8  N2  UNL     1      33.536  42.416  22.085  1.00  0.00    -0.337 N 
HETATM    9  C1  UNL     1      32.301  42.689  22.539  1.00  0.00     0.131 A 
ATOM     10  H2  UNL     1      34.338  42.765  22.610  1.00  0.00     0.168 HD
HETATM   11  N4  UNL     1      29.914  42.277  21.951  1.00  0.00    -0.184 N 
HETATM   12  C5  UNL     1      29.351  41.613  20.931  1.00  0.00     0.680 A 
ATOM     13  H4  UNL     1      29.417  42.754  22.704  1.00  0.00     0.184 HD
BRANCH   9  14
HETATM   14  N1  UNL     1      32.093  43.370  23.603  1.00  0.00    -0.383 N 
ATOM     15  H12 UNL     1      32.678  44.178  23.821  1.00  0.00     0.157 HD
ATOM     16  H11 UNL     1      31.352  43.142  24.266  1.00  0.00     0.157 HD
ENDBRANCH   9  14
BRANCH  12  17
HETATM   17  N5  UNL     1      28.085  41.491  20.769  1.00  0.00    -0.234 N 
ATOM     18  H52 UNL     1      27.431  42.225  20.496  1.00  0.00     0.174 HD
ATOM     19  H51 UNL     1      27.576  40.616  20.900  1.00  0.00     0.174 HD
ENDBRANCH  12  17
ENDBRANCH   1   2
BRANCH   1  20
HETATM   20  C7  UNL     1      30.176  41.158  17.689  1.00  0.00     0.152 C 
BRANCH  20  21
HETATM   21  N7  UNL     1      31.193  40.563  16.843  1.00  0.00    -0.326 N 
HETATM   22  C8  UNL     1      31.828  39.400  17.067  1.00  0.00     0.185 A 
HETATM   23  N8  UNL     1      32.707  39.144  16.090  1.00  0.00    -0.346 N 
HETATM   24  C9  UNL     1      32.653  40.160  15.201  1.00  0.00     0.122 A 
ATOM     25  H8  UNL     1      33.313  38.325  16.028  1.00  0.00     0.167 HD
HETATM   26  C10 UNL     1      33.320  40.418  14.030  1.00  0.00     0.133 A 
HETATM   27  C15 UNL     1      31.700  41.036  15.690  1.00  0.00     0.140 A 
HETATM   28  N10 UNL     1      33.040  41.537  13.358  1.00  0.00    -0.337 N 
HETATM   29  C14 UNL     1      32.107  42.410  13.824  1.00  0.00     0.183 A 
ATOM     30  H10 UNL     1      33.530  41.739  12.486  1.00  0.00     0.168 HD
HETATM   31  N11 UNL     1      31.457  42.140  14.982  1.00  0.00    -0.336 N 
ATOM     32  H11 UNL     1      30.761  42.802  15.323  1.00  0.00     0.168 HD
BRANCH  26  33
HETATM   33  N9  UNL     1      34.182  39.602  13.610  1.00  0.00    -0.370 N 
ATOM     34  H9  UNL     1      33.839  38.879  12.977  1.00  0.00     0.161 HD
BRANCH  33  35
HETATM   35  C11 UNL     1      35.573  39.560  13.904  1.00  0.00     0.083 A 
HETATM   36  C12 UNL     1      36.289  38.300  13.418  1.00  0.00     0.027 A 
HETATM   37  C13 UNL     1      36.164  38.607  14.867  1.00  0.00     0.027 A 
ENDBRANCH  33  35
ENDBRANCH  26  33
ENDBRANCH  20  21
ENDBRANCH   1  20
TORSDOF 7
ENDMDL
MODEL 5
REMARK VINA RESULT: -7.736160267      1.365      2.561
REMARK  7 active torsions:
REMARK  status: ('A' for Active; 'I' for Inactive)
REMARK    1  A    between atoms: N1_1  and  C1_4 
REMARK    2  A    between atoms: C5_14  and  N5_15 
REMARK    3  A    between atoms: N6_18  and  C6_19 
REMARK    4  A    between atoms: C6_19  and  C7_20 
REMARK    5  A    between atoms: C7_20  and  N7_21 
REMARK    6  A    between atoms: C10_26  and  N9_27 
REMARK    7  A    between atoms: N9_27  and  C11_29 
ROOT
HETATM    1  C6  UNL     1      27.136  42.160  18.635  1.00  0.00     0.169 C 
ENDROOT
BRANCH   1   2
HETATM    2  N6  UNL     1      26.793  43.555  18.563  1.00  0.00    -0.165 N 
HETATM    3  C3  UNL     1      27.375  44.544  17.883  1.00  0.00     0.155 A 
HETATM    4  N3  UNL     1      28.437  44.521  17.076  1.00  0.00    -0.336 N 
HETATM    5  C4  UNL     1      26.679  45.711  18.135  1.00  0.00     0.137 A 
HETATM    6  C2  UNL     1      28.833  45.671  16.499  1.00  0.00     0.183 A 
ATOM      7  H3  UNL     1      28.939  43.651  16.900  1.00  0.00     0.168 HD
HETATM    8  N2  UNL     1      28.161  46.819  16.738  1.00  0.00    -0.337 N 
HETATM    9  C1  UNL     1      27.087  46.882  17.544  1.00  0.00     0.131 A 
ATOM     10  H2  UNL     1      28.483  47.676  16.287  1.00  0.00     0.168 HD
HETATM   11  N4  UNL     1      25.681  45.400  18.973  1.00  0.00    -0.184 N 
HETATM   12  C5  UNL     1      25.753  44.086  19.232  1.00  0.00     0.680 A 
ATOM     13  H4  UNL     1      24.988  46.049  19.347  1.00  0.00     0.184 HD
BRANCH   9  14
HETATM   14  N1  UNL     1      26.455  47.973  17.766  1.00  0.00    -0.383 N 
ATOM     15  H12 UNL     1      25.505  48.099  17.414  1.00  0.00     0.157 HD
ATOM     16  H11 UNL     1      26.861  48.746  18.293  1.00  0.00     0.157 HD
ENDBRANCH   9  14
BRANCH  12  17
HETATM   17  N5  UNL     1      24.937  43.464  20.003  1.00  0.00    -0.234 N 
ATOM     18  H52 UNL     1      23.925  43.581  20.043  1.00  0.00     0.174 HD
ATOM     19  H51 UNL     1      25.224  42.760  20.683  1.00  0.00     0.174 HD
ENDBRANCH  12  17
ENDBRANCH   1   2
BRANCH   1  20
HETATM   20  C7  UNL     1      27.505  41.722  20.027  1.00  0.00     0.152 C 
BRANCH  20  21
HETATM   21  N7  UNL     1      28.947  41.741  20.176  1.00  0.00    -0.326 N 
HETATM   22  C8  UNL     1      29.839  42.023  19.211  1.00  0.00     0.185 A 
HETATM   23  N8  UNL     1      31.090  41.951  19.685  1.00  0.00    -0.346 N 
HETATM   24  C9  UNL     1      31.023  41.613  20.992  1.00  0.00     0.122 A 
ATOM     25  H8  UNL     1      31.944  42.120  19.154  1.00  0.00     0.167 HD
HETATM   26  C10 UNL     1      31.976  41.404  21.957  1.00  0.00     0.133 A 
HETATM   27  C15 UNL     1      29.675  41.487  21.279  1.00  0.00     0.140 A 
HETATM   28  N10 UNL     1      31.588  41.072  23.190  1.00  0.00    -0.337 N 
HETATM   29  C14 UNL     1      30.267  40.943  23.490  1.00  0.00     0.183 A 
ATOM     30  H10 UNL     1      32.288  40.914  23.915  1.00  0.00     0.168 HD
HETATM   31  N11 UNL     1      29.339  41.153  22.526  1.00  0.00    -0.336 N 
ATOM     32  H11 UNL     1      28.352  41.052  22.761  1.00  0.00     0.168 HD
BRANCH  26  33
HETATM   33  N9  UNL     1      33.196  41.526  21.667  1.00  0.00    -0.370 N 
ATOM     34  H9  UNL     1      33.404  41.687  20.681  1.00  0.00     0.161 HD
BRANCH  33  35
HETATM   35  C11 UNL     1      34.319  41.466  22.537  1.00  0.00     0.083 A 
HETATM   36  C12 UNL     1      35.674  41.480  21.830  1.00  0.00     0.027 A 
HETATM   37  C13 UNL     1      35.222  40.298  22.609  1.00  0.00     0.027 A 
ENDBRANCH  33  35
ENDBRANCH  26  33
ENDBRANCH  20  21
ENDBRANCH   1  20
TORSDOF 7
ENDMDL
