MODEL 1
REMARK VINA RESULT: -6.012596432      0.000      0.000
REMARK  10 active torsions:
REMARK  status: ('A' for Active; 'I' for Inactive)
REMARK    1  A    between atoms: N3_8  and  C5_9 
REMARK    2  A    between atoms: C6_12  and  N5_13 
REMARK    3  A    between atoms: C7_18  and  N7_19 
REMARK    4  A    between atoms: N7_19  and  C8_21 
REMARK    5  A    between atoms: N8_24  and  C11_25 
REMARK    6  A    between atoms: C11_25  and  O1_26 
REMARK    7  A    between atoms: C11_25  and  C12_28 
REMARK    8  A    between atoms: C12_28  and  O2_29 
REMARK    9  A    between atoms: C13_31  and  N9_32 
REMARK   10  A    between atoms: N9_32  and  C14_34 
ROOT
HETATM    1  C1  UNL     1      23.655  43.827  17.915  1.00  0.00     0.229 C 
HETATM    2  N1  UNL     1      24.597  43.179  17.979  1.00  0.00    -0.423 NA
HETATM    3  C2  UNL     1      25.718  42.375  18.051  1.00  0.00     0.174 A 
HETATM    4  C3  UNL     1      25.662  40.995  17.856  1.00  0.00     0.067 A 
HETATM    5  C4  UNL     1      24.457  40.174  17.549  1.00  0.00     0.073 C 
HETATM    6  N2  UNL     1      26.910  40.554  17.997  1.00  0.00    -0.279 N 
ATOM      7  H2  UNL     1      27.178  39.575  17.907  1.00  0.00     0.188 HD
HETATM    8  N3  UNL     1      27.751  41.511  18.263  1.00  0.00    -0.065 N 
HETATM    9  C13 UNL     1      27.034  42.663  18.303  1.00  0.00     0.184 A 
ENDROOT
BRANCH   9  10
HETATM   10  N9  UNL     1      27.496  43.832  18.532  1.00  0.00    -0.372 N 
ATOM     11  H9  UNL     1      27.759  44.015  19.500  1.00  0.00     0.161 HD
BRANCH  10  12
HETATM   12  C14 UNL     1      27.695  44.911  17.634  1.00  0.00     0.117 C 
HETATM   13  C15 UNL     1      26.797  46.107  17.996  1.00  0.00     0.026 C 
ENDBRANCH  10  12
ENDBRANCH   9  10
BRANCH   8  14
HETATM   14  C5  UNL     1      29.146  41.398  18.444  1.00  0.00     0.739 A 
HETATM   15  N4  UNL     1      29.958  41.397  17.346  1.00  0.00    -0.019 N 
HETATM   16  C6  UNL     1      31.279  41.276  17.415  1.00  0.00     0.705 A 
ATOM     17  H4  UNL     1      29.528  41.496  16.426  1.00  0.00     0.203 HD
HETATM   18  N6  UNL     1      31.844  41.148  18.625  1.00  0.00    -0.021 N 
HETATM   19  C7  UNL     1      31.096  41.140  19.768  1.00  0.00     0.712 A 
ATOM     20  H6  UNL     1      32.858  41.053  18.693  1.00  0.00     0.203 HD
HETATM   21  N8  UNL     1      29.771  41.265  19.661  1.00  0.00     0.018 N 
BRANCH  16  22
HETATM   22  N5  UNL     1      31.956  41.288  16.311  1.00  0.00    -0.234 N 
ATOM     23  H52 UNL     1      31.940  42.067  15.652  1.00  0.00     0.174 HD
ATOM     24  H51 UNL     1      32.535  40.478  16.090  1.00  0.00     0.174 HD
ENDBRANCH  16  22
BRANCH  19  25
HETATM   25  N7  UNL     1      31.695  40.996  20.896  1.00  0.00    -0.221 N 
ATOM     26  H7  UNL     1      31.355  40.252  21.506  1.00  0.00     0.178 HD
BRANCH  25  27
HETATM   27  C8  UNL     1      32.780  41.770  21.372  1.00  0.00     0.091 C 
HETATM   28  C9  UNL     1      32.355  42.689  22.522  1.00  0.00     0.032 C 
HETATM   29  C10 UNL     1      33.852  40.833  21.893  1.00  0.00     0.032 C 
ENDBRANCH  25  27
ENDBRANCH  19  25
BRANCH  21  30
HETATM   30  C11 UNL     1      28.904  41.277  20.785  1.00  0.00     0.285 C 
BRANCH  30  31
HETATM   31  O1  UNL     1      29.035  42.500  21.519  1.00  0.00    -0.373 OA
ATOM     32  H1  UNL     1      29.146  43.238  20.931  1.00  0.00     0.212 HD
ENDBRANCH  30  31
BRANCH  30  33
HETATM   33  C12 UNL     1      28.965  40.236  21.824  1.00  0.00     0.219 C 
BRANCH  33  34
HETATM   34  O2  UNL     1      29.388  40.676  23.091  1.00  0.00    -0.397 OA
ATOM     35  H2  UNL     1      29.298  40.041  23.793  1.00  0.00     0.209 HD
ENDBRANCH  33  34
ENDBRANCH  30  33
ENDBRANCH  21  30
ENDBRANCH   8  14
TORSDOF 10
ENDMDL
MODEL 2
REMARK VINA RESULT: -6.008486629      1.462      2.385
REMARK  10 active torsions:
REMARK  status: ('A' for Active; 'I' for Inactive)
REMARK    1  A    between atoms: N3_8  and  C5_9 
REMARK    2  A    between atoms: C6_12  and  N5_13 
REMARK    3  A    between atoms: C7_18  and  N7_19 
REMARK    4  A    between atoms: N7_19  and  C8_21 
REMARK    5  A    between atoms: N8_24  and  C11_25 
REMARK    6  A    between atoms: C11_25  and  O1_26 
REMARK    7  A    between atoms: C11_25  and  C12_28 
REMARK    8  A    between atoms: C12_28  and  O2_29 
REMARK    9  A    between atoms: C13_31  and  N9_32 
REMARK   10  A    between atoms: N9_32  and  C14_34 
ROOT
HETATM    1  C1  UNL     1      23.699  41.689  18.054  1.00  0.00     0.229 C 
HETATM    2  N1  UNL     1      24.771  41.859  18.419  1.00  0.00    -0.423 NA
HETATM    3  C2  UNL     1      26.055  42.085  18.875  1.00  0.00     0.174 A 
HETATM    4  C3  UNL     1      26.345  43.040  19.850  1.00  0.00     0.067 A 
HETATM    5  C4  UNL     1      25.384  43.942  20.545  1.00  0.00     0.073 C 
HETATM    6  N2  UNL     1      27.661  42.982  20.040  1.00  0.00    -0.279 N 
ATOM      7  H2  UNL     1      28.163  43.571  20.703  1.00  0.00     0.188 HD
HETATM    8  N3  UNL     1      28.236  42.092  19.285  1.00  0.00    -0.065 N 
HETATM    9  C13 UNL     1      27.256  41.513  18.545  1.00  0.00     0.184 A 
ENDROOT
BRANCH   9  10
HETATM   10  N9  UNL     1      27.410  40.585  17.682  1.00  0.00    -0.372 N 
ATOM     11  H9  UNL     1      27.613  39.662  18.066  1.00  0.00     0.161 HD
BRANCH  10  12
HETATM   12  C14 UNL     1      27.341  40.652  16.268  1.00  0.00     0.117 C 
HETATM   13  C15 UNL     1      28.337  39.679  15.616  1.00  0.00     0.026 C 
ENDBRANCH  10  12
ENDBRANCH   9  10
BRANCH   8  14
HETATM   14  C5  UNL     1      29.606  41.754  19.253  1.00  0.00     0.739 A 
HETATM   15  N4  UNL     1      30.237  41.660  18.045  1.00  0.00    -0.019 N 
HETATM   16  C6  UNL     1      31.517  41.329  17.914  1.00  0.00     0.705 A 
ATOM     17  H4  UNL     1      29.697  41.853  17.201  1.00  0.00     0.203 HD
HETATM   18  N6  UNL     1      32.226  41.076  19.024  1.00  0.00    -0.021 N 
HETATM   19  C7  UNL     1      31.663  41.151  20.267  1.00  0.00     0.712 A 
ATOM     20  H6  UNL     1      33.210  40.820  18.938  1.00  0.00     0.203 HD
HETATM   21  N8  UNL     1      30.374  41.487  20.361  1.00  0.00     0.018 N 
BRANCH  16  22
HETATM   22  N5  UNL     1      32.016  41.268  16.721  1.00  0.00    -0.234 N 
ATOM     23  H52 UNL     1      32.986  41.502  16.506  1.00  0.00     0.174 HD
ATOM     24  H51 UNL     1      31.410  40.970  15.957  1.00  0.00     0.174 HD
ENDBRANCH  16  22
BRANCH  19  25
HETATM   25  N7  UNL     1      32.390  40.879  21.290  1.00  0.00    -0.221 N 
ATOM     26  H7  UNL     1      32.070  40.123  21.896  1.00  0.00     0.178 HD
BRANCH  25  27
HETATM   27  C8  UNL     1      33.593  41.529  21.659  1.00  0.00     0.091 C 
HETATM   28  C9  UNL     1      33.331  42.708  22.601  1.00  0.00     0.032 C 
HETATM   29  C10 UNL     1      34.477  40.535  22.385  1.00  0.00     0.032 C 
ENDBRANCH  25  27
ENDBRANCH  19  25
BRANCH  21  30
HETATM   30  C11 UNL     1      29.695  41.600  21.603  1.00  0.00     0.285 C 
BRANCH  30  31
HETATM   31  O1  UNL     1      30.108  42.779  22.305  1.00  0.00    -0.373 OA
ATOM     32  H1  UNL     1      29.383  43.156  22.789  1.00  0.00     0.212 HD
ENDBRANCH  30  31
BRANCH  30  33
HETATM   33  C12 UNL     1      29.762  40.543  22.624  1.00  0.00     0.219 C 
BRANCH  33  34
HETATM   34  O2  UNL     1      30.500  40.866  23.777  1.00  0.00    -0.397 OA
ATOM     35  H2  UNL     1      30.696  40.136  24.352  1.00  0.00     0.209 HD
ENDBRANCH  33  34
ENDBRANCH  30  33
ENDBRANCH  21  30
ENDBRANCH   8  14
TORSDOF 10
ENDMDL
MODEL 3
REMARK VINA RESULT: -5.568887822      3.032      6.029
REMARK  10 active torsions:
REMARK  status: ('A' for Active; 'I' for Inactive)
REMARK    1  A    between atoms: N3_8  and  C5_9 
REMARK    2  A    between atoms: C6_12  and  N5_13 
REMARK    3  A    between atoms: C7_18  and  N7_19 
REMARK    4  A    between atoms: N7_19  and  C8_21 
REMARK    5  A    between atoms: N8_24  and  C11_25 
REMARK    6  A    between atoms: C11_25  and  O1_26 
REMARK    7  A    between atoms: C11_25  and  C12_28 
REMARK    8  A    between atoms: C12_28  and  O2_29 
REMARK    9  A    between atoms: C13_31  and  N9_32 
REMARK   10  A    between atoms: N9_32  and  C14_34 
ROOT
HETATM    1  C1  UNL     1      29.757  40.148  23.591  1.00  0.00     0.229 C 
HETATM    2  N1  UNL     1      30.164  40.456  22.565  1.00  0.00    -0.423 NA
HETATM    3  C2  UNL     1      30.680  40.827  21.339  1.00  0.00     0.174 A 
HETATM    4  C3  UNL     1      32.042  41.049  21.137  1.00  0.00     0.067 A 
HETATM    5  C4  UNL     1      33.135  40.932  22.143  1.00  0.00     0.073 C 
HETATM    6  N2  UNL     1      32.172  41.385  19.856  1.00  0.00    -0.279 N 
ATOM      7  H2  UNL     1      33.066  41.606  19.417  1.00  0.00     0.188 HD
HETATM    8  N3  UNL     1      31.034  41.402  19.225  1.00  0.00    -0.065 N 
HETATM    9  C13 UNL     1      30.081  41.056  20.128  1.00  0.00     0.184 A 
ENDROOT
BRANCH   9  10
HETATM   10  N9  UNL     1      28.828  40.953  19.900  1.00  0.00    -0.372 N 
ATOM     11  H9  UNL     1      28.526  40.056  19.522  1.00  0.00     0.161 HD
BRANCH  10  12
HETATM   12  C14 UNL     1      27.798  41.906  20.097  1.00  0.00     0.117 C 
HETATM   13  C15 UNL     1      26.993  42.129  18.806  1.00  0.00     0.026 C 
ENDBRANCH  10  12
ENDBRANCH   9  10
BRANCH   8  14
HETATM   14  C5  UNL     1      30.817  41.687  17.860  1.00  0.00     0.739 A 
HETATM   15  N4  UNL     1      30.371  42.929  17.506  1.00  0.00    -0.019 N 
HETATM   16  C6  UNL     1      30.121  43.284  16.250  1.00  0.00     0.705 A 
ATOM     17  H4  UNL     1      30.224  43.619  18.243  1.00  0.00     0.203 HD
HETATM   18  N6  UNL     1      30.315  42.377  15.282  1.00  0.00    -0.021 N 
HETATM   19  C7  UNL     1      30.760  41.115  15.560  1.00  0.00     0.712 A 
ATOM     20  H6  UNL     1      30.126  42.635  14.313  1.00  0.00     0.203 HD
HETATM   21  N8  UNL     1      31.002  40.794  16.833  1.00  0.00     0.018 N 
BRANCH  16  22
HETATM   22  N5  UNL     1      29.701  44.488  16.024  1.00  0.00    -0.234 N 
ATOM     23  H52 UNL     1      28.997  44.953  16.598  1.00  0.00     0.174 HD
ATOM     24  H51 UNL     1      30.095  44.997  15.233  1.00  0.00     0.174 HD
ENDBRANCH  16  22
BRANCH  19  25
HETATM   25  N7  UNL     1      30.909  40.286  14.590  1.00  0.00    -0.221 N 
ATOM     26  H7  UNL     1      30.455  39.377  14.686  1.00  0.00     0.178 HD
BRANCH  25  27
HETATM   27  C8  UNL     1      31.643  40.512  13.401  1.00  0.00     0.091 C 
HETATM   28  C9  UNL     1      33.029  41.096  13.697  1.00  0.00     0.032 C 
HETATM   29  C10 UNL     1      31.834  39.187  12.689  1.00  0.00     0.032 C 
ENDBRANCH  25  27
ENDBRANCH  19  25
BRANCH  21  30
HETATM   30  C11 UNL     1      31.473  39.514  17.229  1.00  0.00     0.285 C 
BRANCH  30  31
HETATM   31  O1  UNL     1      32.685  39.180  16.541  1.00  0.00    -0.373 OA
ATOM     32  H1  UNL     1      32.993  38.319  16.797  1.00  0.00     0.212 HD
ENDBRANCH  30  31
BRANCH  30  33
HETATM   33  C12 UNL     1      30.646  38.305  17.090  1.00  0.00     0.219 C 
BRANCH  33  34
HETATM   34  O2  UNL     1      30.883  37.544  15.930  1.00  0.00    -0.397 OA
ATOM     35  H2  UNL     1      31.306  36.706  16.073  1.00  0.00     0.209 HD
ENDBRANCH  33  34
ENDBRANCH  30  33
ENDBRANCH  21  30
ENDBRANCH   8  14
TORSDOF 10
ENDMDL
MODEL 4
REMARK VINA RESULT: -5.450958602      2.558      4.378
REMARK  10 active torsions:
REMARK  status: ('A' for Active; 'I' for Inactive)
REMARK    1  A    between atoms: N3_8  and  C5_9 
REMARK    2  A    between atoms: C6_12  and  N5_13 
REMARK    3  A    between atoms: C7_18  and  N7_19 
REMARK    4  A    between atoms: N7_19  and  C8_21 
REMARK    5  A    between atoms: N8_24  and  C11_25 
REMARK    6  A    between atoms: C11_25  and  O1_26 
REMARK    7  A    between atoms: C11_25  and  C12_28 
REMARK    8  A    between atoms: C12_28  and  O2_29 
REMARK    9  A    between atoms: C13_31  and  N9_32 
REMARK   10  A    between atoms: N9_32  and  C14_34 
ROOT
HETATM    1  C1  UNL     1      21.912  43.257  18.365  1.00  0.00     0.229 C 
HETATM    2  N1  UNL     1      22.999  43.269  18.728  1.00  0.00    -0.423 NA
HETATM    3  C2  UNL     1      24.304  43.308  19.178  1.00  0.00     0.174 A 
HETATM    4  C3  UNL     1      24.803  44.368  19.937  1.00  0.00     0.067 A 
HETATM    5  C4  UNL     1      24.066  45.584  20.382  1.00  0.00     0.073 C 
HETATM    6  N2  UNL     1      26.076  44.072  20.187  1.00  0.00    -0.279 N 
ATOM      7  H2  UNL     1      26.699  44.670  20.729  1.00  0.00     0.188 HD
HETATM    8  N3  UNL     1      26.437  42.936  19.664  1.00  0.00    -0.065 N 
HETATM    9  C13 UNL     1      25.349  42.435  19.026  1.00  0.00     0.184 A 
ENDROOT
BRANCH   9  10
HETATM   10  N9  UNL     1      25.291  41.329  18.388  1.00  0.00    -0.372 N 
ATOM     11  H9  UNL     1      25.332  40.490  18.966  1.00  0.00     0.161 HD
BRANCH  10  12
HETATM   12  C14 UNL     1      25.179  41.102  16.994  1.00  0.00     0.117 C 
HETATM   13  C15 UNL     1      24.091  40.059  16.687  1.00  0.00     0.026 C 
ENDBRANCH  10  12
ENDBRANCH   9  10
BRANCH   8  14
HETATM   14  C5  UNL     1      27.700  42.315  19.761  1.00  0.00     0.739 A 
HETATM   15  N4  UNL     1      28.013  41.622  20.896  1.00  0.00    -0.019 N 
HETATM   16  C6  UNL     1      29.182  41.021  21.086  1.00  0.00     0.705 A 
ATOM     17  H4  UNL     1      27.312  41.564  21.636  1.00  0.00     0.203 HD
HETATM   18  N6  UNL     1      30.102  41.097  20.114  1.00  0.00    -0.021 N 
HETATM   19  C7  UNL     1      29.862  41.772  18.950  1.00  0.00     0.712 A 
ATOM     20  H6  UNL     1      31.005  40.641  20.246  1.00  0.00     0.203 HD
HETATM   21  N8  UNL     1      28.675  42.363  18.793  1.00  0.00     0.018 N 
BRANCH  16  22
HETATM   22  N5  UNL     1      29.375  40.391  22.201  1.00  0.00    -0.234 N 
ATOM     23  H52 UNL     1      28.652  39.841  22.667  1.00  0.00     0.174 HD
ATOM     24  H51 UNL     1      30.296  40.447  22.635  1.00  0.00     0.174 HD
ENDBRANCH  16  22
BRANCH  19  25
HETATM   25  N7  UNL     1      30.790  41.824  18.064  1.00  0.00    -0.221 N 
ATOM     26  H7  UNL     1      31.100  42.752  17.774  1.00  0.00     0.178 HD
BRANCH  25  27
HETATM   27  C8  UNL     1      31.424  40.716  17.450  1.00  0.00     0.091 C 
HETATM   28  C9  UNL     1      30.465  39.533  17.294  1.00  0.00     0.032 C 
HETATM   29  C10 UNL     1      31.889  41.129  16.067  1.00  0.00     0.032 C 
ENDBRANCH  25  27
ENDBRANCH  19  25
BRANCH  21  30
HETATM   30  C11 UNL     1      28.320  43.082  17.621  1.00  0.00     0.285 C 
BRANCH  30  31
HETATM   31  O1  UNL     1      28.574  42.301  16.446  1.00  0.00    -0.373 OA
ATOM     32  H1  UNL     1      27.761  42.043  16.029  1.00  0.00     0.212 HD
ENDBRANCH  30  31
BRANCH  30  33
HETATM   33  C12 UNL     1      28.911  44.392  17.305  1.00  0.00     0.219 C 
BRANCH  33  34
HETATM   34  O2  UNL     1      30.265  44.365  16.923  1.00  0.00    -0.397 OA
ATOM     35  H2  UNL     1      30.494  44.934  16.197  1.00  0.00     0.209 HD
ENDBRANCH  33  34
ENDBRANCH  30  33
ENDBRANCH  21  30
ENDBRANCH   8  14
TORSDOF 10
ENDMDL
MODEL 5
REMARK VINA RESULT: -5.332676414      2.769      6.012
REMARK  10 active torsions:
REMARK  status: ('A' for Active; 'I' for Inactive)
REMARK    1  A    between atoms: N3_8  and  C5_9 
REMARK    2  A    between atoms: C6_12  and  N5_13 
REMARK    3  A    between atoms: C7_18  and  N7_19 
REMARK    4  A    between atoms: N7_19  and  C8_21 
REMARK    5  A    between atoms: N8_24  and  C11_25 
REMARK    6  A    between atoms: C11_25  and  O1_26 
REMARK    7  A    between atoms: C11_25  and  C12_28 
REMARK    8  A    between atoms: C12_28  and  O2_29 
REMARK    9  A    between atoms: C13_31  and  N9_32 
REMARK   10  A    between atoms: N9_32  and  C14_34 
ROOT
HETATM    1  C1  UNL     1      33.345  40.676  14.229  1.00  0.00     0.229 C 
HETATM    2  N1  UNL     1      32.550  40.511  15.037  1.00  0.00    -0.423 NA
HETATM    3  C2  UNL     1      31.593  40.283  16.006  1.00  0.00     0.174 A 
HETATM    4  C3  UNL     1      31.169  39.000  16.353  1.00  0.00     0.067 A 
HETATM    5  C4  UNL     1      31.642  37.708  15.781  1.00  0.00     0.073 C 
HETATM    6  N2  UNL     1      30.255  39.161  17.307  1.00  0.00    -0.279 N 
ATOM      7  H2  UNL     1      29.767  38.388  17.758  1.00  0.00     0.188 HD
HETATM    8  N3  UNL     1      30.053  40.413  17.599  1.00  0.00    -0.065 N 
HETATM    9  C13 UNL     1      30.876  41.140  16.802  1.00  0.00     0.184 A 
ENDROOT
BRANCH   9  10
HETATM   10  N9  UNL     1      30.981  42.412  16.785  1.00  0.00    -0.372 N 
ATOM     11  H9  UNL     1      31.543  42.813  17.536  1.00  0.00     0.161 HD
BRANCH  10  12
HETATM   12  C14 UNL     1      30.430  43.348  15.874  1.00  0.00     0.117 C 
HETATM   13  C15 UNL     1      29.783  44.530  16.616  1.00  0.00     0.026 C 
ENDBRANCH  10  12
ENDBRANCH   9  10
BRANCH   8  14
HETATM   14  C5  UNL     1      29.177  40.932  18.576  1.00  0.00     0.739 A 
HETATM   15  N4  UNL     1      29.595  40.989  19.876  1.00  0.00    -0.019 N 
HETATM   16  C6  UNL     1      28.835  41.443  20.867  1.00  0.00     0.705 A 
ATOM     17  H4  UNL     1      30.537  40.668  20.096  1.00  0.00     0.203 HD
HETATM   18  N6  UNL     1      27.596  41.866  20.577  1.00  0.00    -0.021 N 
HETATM   19  C7  UNL     1      27.109  41.839  19.300  1.00  0.00     0.712 A 
ATOM     20  H6  UNL     1      27.001  42.216  21.328  1.00  0.00     0.203 HD
HETATM   21  N8  UNL     1      27.901  41.377  18.329  1.00  0.00     0.018 N 
BRANCH  16  22
HETATM   22  N5  UNL     1      29.329  41.454  22.064  1.00  0.00    -0.234 N 
ATOM     23  H52 UNL     1      30.319  41.605  22.260  1.00  0.00     0.174 HD
ATOM     24  H51 UNL     1      28.697  41.306  22.850  1.00  0.00     0.174 HD
ENDBRANCH  16  22
BRANCH  19  25
HETATM   25  N7  UNL     1      25.907  42.241  19.089  1.00  0.00    -0.221 N 
ATOM     26  H7  UNL     1      25.342  41.687  18.446  1.00  0.00     0.178 HD
BRANCH  25  27
HETATM   27  C8  UNL     1      25.293  43.380  19.664  1.00  0.00     0.091 C 
HETATM   28  C9  UNL     1      25.953  44.677  19.187  1.00  0.00     0.032 C 
HETATM   29  C10 UNL     1      23.838  43.411  19.241  1.00  0.00     0.032 C 
ENDBRANCH  25  27
ENDBRANCH  19  25
BRANCH  21  30
HETATM   30  C11 UNL     1      27.496  41.313  16.969  1.00  0.00     0.285 C 
BRANCH  30  31
HETATM   31  O1  UNL     1      26.986  42.577  16.528  1.00  0.00    -0.373 OA
ATOM     32  H1  UNL     1      26.230  42.460  15.966  1.00  0.00     0.212 HD
ENDBRANCH  30  31
BRANCH  30  33
HETATM   33  C12 UNL     1      26.489  40.346  16.504  1.00  0.00     0.219 C 
BRANCH  33  34
HETATM   34  O2  UNL     1      25.154  40.784  16.581  1.00  0.00    -0.397 OA
ATOM     35  H2  UNL     1      24.562  40.203  17.044  1.00  0.00     0.209 HD
ENDBRANCH  33  34
ENDBRANCH  30  33
ENDBRANCH  21  30
ENDBRANCH   8  14
TORSDOF 10
ENDMDL
