MODEL 1
REMARK VINA RESULT: -6.560667453      0.000      0.000
REMARK  3 active torsions:
REMARK  status: ('A' for Active; 'I' for Inactive)
REMARK       I    between atoms: C2_2  and  N1_4 
REMARK       I    between atoms: C3_6  and  N2_7 
REMARK       I    between atoms: C3_6  and  N6_16 
REMARK       I    between atoms: C4_9  and  N4_11 
REMARK    1  A    between atoms: N4_11  and  N5_13 
REMARK    2  A    between atoms: N6_16  and  N7_18 
REMARK    3  A    between atoms: N7_18  and  N8_19 
ROOT
HETATM    1  C1  UNL     1      -1.326   8.547  13.619  1.00  0.00     0.118 C 
HETATM    2  C2  UNL     1      -1.823   8.942  12.290  1.00  0.00     0.232 C 
HETATM    3  O1  UNL     1      -3.003   8.654  11.980  1.00  0.00    -0.273 OA
HETATM    4  N1  UNL     1      -1.028   9.630  11.358  1.00  0.00    -0.159 N 
ATOM      5  H1  UNL     1      -0.738  10.580  11.593  1.00  0.00     0.187 HD
HETATM    6  C3  UNL     1      -0.638   9.148  10.225  1.00  0.00     0.700 C 
HETATM    7  N2  UNL     1       0.157   9.967   9.402  1.00  0.00    -0.161 N 
ATOM      8  H2  UNL     1       1.087   9.625   9.158  1.00  0.00     0.187 HD
HETATM    9  C4  UNL     1      -0.194  11.109   8.934  1.00  0.00     0.221 C 
HETATM   10  N3  UNL     1       0.708  11.818   8.123  1.00  0.00    -0.061 NA
HETATM   11  N4  UNL     1      -1.461  11.670   9.212  1.00  0.00    -0.280 N 
ATOM     12  H4  UNL     1      -1.505  12.627   9.563  1.00  0.00     0.189 HD
HETATM   13  N6  UNL     1      -1.039   7.837   9.894  1.00  0.00    -0.116 N 
ATOM     14  H6  UNL     1      -2.010   7.558  10.032  1.00  0.00     0.203 HD
ENDROOT
BRANCH  13  15
HETATM   15  N7  UNL     1      -0.121   6.912   9.378  1.00  0.00    -0.015 NA
BRANCH  15  16
HETATM   16  N8  UNL     1      -0.742   5.785   8.882  1.00  0.00    -0.328 N 
ATOM     17  H82 UNL     1      -1.755   5.677   8.850  1.00  0.00     0.174 HD
ATOM     18  H81 UNL     1      -0.072   5.087   8.558  1.00  0.00     0.174 HD
ENDBRANCH  15  16
ENDBRANCH  13  15
BRANCH  11  19
HETATM   19  N5  UNL     1      -2.657  10.973   9.026  1.00  0.00    -0.343 N 
ATOM     20  H52 UNL     1      -2.981  10.382   9.792  1.00  0.00     0.176 HD
ATOM     21  H51 UNL     1      -3.206  11.034   8.170  1.00  0.00     0.176 HD
ENDBRANCH  11  19
TORSDOF 3
ENDMDL
MODEL 2
REMARK VINA RESULT: -6.117532634      1.780      2.613
REMARK  3 active torsions:
REMARK  status: ('A' for Active; 'I' for Inactive)
REMARK       I    between atoms: C2_2  and  N1_4 
REMARK       I    between atoms: C3_6  and  N2_7 
REMARK       I    between atoms: C3_6  and  N6_16 
REMARK       I    between atoms: C4_9  and  N4_11 
REMARK    1  A    between atoms: N4_11  and  N5_13 
REMARK    2  A    between atoms: N6_16  and  N7_18 
REMARK    3  A    between atoms: N7_18  and  N8_19 
ROOT
HETATM    1  C1  UNL     1      -1.541   7.219  11.733  1.00  0.00     0.118 C 
HETATM    2  C2  UNL     1      -1.394   8.684  11.677  1.00  0.00     0.232 C 
HETATM    3  O1  UNL     1      -1.794   9.366  12.650  1.00  0.00    -0.273 OA
HETATM    4  N1  UNL     1      -0.823   9.347  10.577  1.00  0.00    -0.159 N 
ATOM      5  H1  UNL     1       0.167   9.185  10.389  1.00  0.00     0.187 HD
HETATM    6  C3  UNL     1      -1.459  10.146   9.787  1.00  0.00     0.700 C 
HETATM    7  N2  UNL     1      -0.742  10.731   8.728  1.00  0.00    -0.161 N 
ATOM      8  H2  UNL     1      -1.066  10.541   7.780  1.00  0.00     0.187 HD
HETATM    9  C4  UNL     1       0.288  11.485   8.860  1.00  0.00     0.221 C 
HETATM   10  N3  UNL     1       0.906  12.000   7.708  1.00  0.00    -0.061 NA
HETATM   11  N4  UNL     1       0.816  11.811  10.131  1.00  0.00    -0.280 N 
ATOM     12  H4  UNL     1       1.813  11.671  10.295  1.00  0.00     0.189 HD
HETATM   13  N6  UNL     1      -2.827  10.375  10.044  1.00  0.00    -0.116 N 
ATOM     14  H6  UNL     1      -3.134  10.571  10.997  1.00  0.00     0.203 HD
ENDROOT
BRANCH  13  15
HETATM   15  N7  UNL     1      -3.771  10.337   9.009  1.00  0.00    -0.015 NA
BRANCH  15  16
HETATM   16  N8  UNL     1      -3.545   9.295   8.137  1.00  0.00    -0.328 N 
ATOM     17  H82 UNL     1      -2.961   8.492   8.369  1.00  0.00     0.174 HD
ATOM     18  H81 UNL     1      -4.025   9.426   7.246  1.00  0.00     0.174 HD
ENDBRANCH  15  16
ENDBRANCH  13  15
BRANCH  11  19
HETATM   19  N5  UNL     1       0.033  12.314  11.171  1.00  0.00    -0.343 N 
ATOM     20  H52 UNL     1       0.357  13.162  11.637  1.00  0.00     0.176 HD
ATOM     21  H51 UNL     1      -0.835  11.874  11.474  1.00  0.00     0.176 HD
ENDBRANCH  11  19
TORSDOF 3
ENDMDL
MODEL 3
REMARK VINA RESULT: -6.111680207      2.355      4.671
REMARK  3 active torsions:
REMARK  status: ('A' for Active; 'I' for Inactive)
REMARK       I    between atoms: C2_2  and  N1_4 
REMARK       I    between atoms: C3_6  and  N2_7 
REMARK       I    between atoms: C3_6  and  N6_16 
REMARK       I    between atoms: C4_9  and  N4_11 
REMARK    1  A    between atoms: N4_11  and  N5_13 
REMARK    2  A    between atoms: N6_16  and  N7_18 
REMARK    3  A    between atoms: N7_18  and  N8_19 
ROOT
HETATM    1  C1  UNL     1       0.090  11.915   9.294  1.00  0.00     0.118 C 
HETATM    2  C2  UNL     1      -0.007  10.511   9.729  1.00  0.00     0.232 C 
HETATM    3  O1  UNL     1       0.412   9.613   8.960  1.00  0.00    -0.273 OA
HETATM    4  N1  UNL     1      -0.548  10.139  10.972  1.00  0.00    -0.159 N 
ATOM      5  H1  UNL     1      -0.044  10.422  11.811  1.00  0.00     0.187 HD
HETATM    6  C3  UNL     1      -1.639   9.463  11.127  1.00  0.00     0.700 C 
HETATM    7  N2  UNL     1      -2.048   9.171  12.441  1.00  0.00    -0.161 N 
ATOM      8  H2  UNL     1      -2.958   9.521  12.737  1.00  0.00     0.187 HD
HETATM    9  C4  UNL     1      -1.366   8.500  13.296  1.00  0.00     0.221 C 
HETATM   10  N3  UNL     1      -1.903   8.286  14.577  1.00  0.00    -0.061 NA
HETATM   11  N4  UNL     1      -0.092   7.971  12.984  1.00  0.00    -0.280 N 
ATOM     12  H4  UNL     1       0.684   8.161  13.618  1.00  0.00     0.189 HD
HETATM   13  N6  UNL     1      -2.339   9.067   9.969  1.00  0.00    -0.116 N 
ATOM     14  H6  UNL     1      -1.827   8.655   9.188  1.00  0.00     0.203 HD
ENDROOT
BRANCH  13  15
HETATM   15  N7  UNL     1      -3.727   9.231   9.874  1.00  0.00    -0.015 NA
BRANCH  15  16
HETATM   16  N8  UNL     1      -4.077  10.177   8.935  1.00  0.00    -0.328 N 
ATOM     17  H82 UNL     1      -4.809  10.029   8.241  1.00  0.00     0.174 HD
ATOM     18  H81 UNL     1      -3.521  11.028   9.021  1.00  0.00     0.174 HD
ENDBRANCH  15  16
ENDBRANCH  13  15
BRANCH  11  19
HETATM   19  N5  UNL     1       0.150   7.199  11.846  1.00  0.00    -0.343 N 
ATOM     20  H52 UNL     1      -0.375   6.330  11.745  1.00  0.00     0.176 HD
ATOM     21  H51 UNL     1       0.820   7.469  11.126  1.00  0.00     0.176 HD
ENDBRANCH  11  19
TORSDOF 3
ENDMDL
MODEL 4
REMARK VINA RESULT: -5.928817388      1.148      1.411
REMARK  3 active torsions:
REMARK  status: ('A' for Active; 'I' for Inactive)
REMARK       I    between atoms: C2_2  and  N1_4 
REMARK       I    between atoms: C3_6  and  N2_7 
REMARK       I    between atoms: C3_6  and  N6_16 
REMARK       I    between atoms: C4_9  and  N4_11 
REMARK    1  A    between atoms: N4_11  and  N5_13 
REMARK    2  A    between atoms: N6_16  and  N7_18 
REMARK    3  A    between atoms: N7_18  and  N8_19 
ROOT
HETATM    1  C1  UNL     1      -1.775   8.877  14.238  1.00  0.00     0.118 C 
HETATM    2  C2  UNL     1      -2.225   8.884  12.836  1.00  0.00     0.232 C 
HETATM    3  O1  UNL     1      -3.153   8.112  12.498  1.00  0.00    -0.273 OA
HETATM    4  N1  UNL     1      -1.657   9.725  11.862  1.00  0.00    -0.159 N 
ATOM      5  H1  UNL     1      -1.791  10.730  11.969  1.00  0.00     0.187 HD
HETATM    6  C3  UNL     1      -0.978   9.316  10.842  1.00  0.00     0.700 C 
HETATM    7  N2  UNL     1      -0.474  10.286   9.958  1.00  0.00    -0.161 N 
ATOM      8  H2  UNL     1       0.536  10.324   9.828  1.00  0.00     0.187 HD
HETATM    9  C4  UNL     1      -1.185  11.129   9.301  1.00  0.00     0.221 C 
HETATM   10  N3  UNL     1      -0.542  12.045   8.451  1.00  0.00    -0.061 NA
HETATM   11  N4  UNL     1      -2.595  11.159   9.409  1.00  0.00    -0.280 N 
ATOM     12  H4  UNL     1      -3.050  12.051   9.608  1.00  0.00     0.189 HD
HETATM   13  N6  UNL     1      -0.793   7.926  10.689  1.00  0.00    -0.116 N 
ATOM     14  H6  UNL     1      -1.587   7.297  10.806  1.00  0.00     0.203 HD
ENDROOT
BRANCH  13  15
HETATM   15  N7  UNL     1       0.467   7.397  10.378  1.00  0.00    -0.015 NA
BRANCH  15  16
HETATM   16  N8  UNL     1       1.361   7.537  11.418  1.00  0.00    -0.328 N 
ATOM     17  H82 UNL     1       2.356   7.333  11.328  1.00  0.00     0.174 HD
ATOM     18  H81 UNL     1       0.910   7.866  12.272  1.00  0.00     0.174 HD
ENDBRANCH  15  16
ENDBRANCH  13  15
BRANCH  11  19
HETATM   19  N5  UNL     1      -3.392  10.023   9.256  1.00  0.00    -0.343 N 
ATOM     20  H52 UNL     1      -3.158   9.204   9.817  1.00  0.00     0.176 HD
ATOM     21  H51 UNL     1      -4.184   9.985   8.615  1.00  0.00     0.176 HD
ENDBRANCH  11  19
TORSDOF 3
ENDMDL
MODEL 5
REMARK VINA RESULT: -5.792417422      3.071      5.229
REMARK  3 active torsions:
REMARK  status: ('A' for Active; 'I' for Inactive)
REMARK       I    between atoms: C2_2  and  N1_4 
REMARK       I    between atoms: C3_6  and  N2_7 
REMARK       I    between atoms: C3_6  and  N6_16 
REMARK       I    between atoms: C4_9  and  N4_11 
REMARK    1  A    between atoms: N4_11  and  N5_13 
REMARK    2  A    between atoms: N6_16  and  N7_18 
REMARK    3  A    between atoms: N7_18  and  N8_19 
ROOT
HETATM    1  C1  UNL     1       1.177   6.922  11.526  1.00  0.00     0.118 C 
HETATM    2  C2  UNL     1      -0.226   6.872  11.972  1.00  0.00     0.232 C 
HETATM    3  O1  UNL     1      -1.011   6.080  11.399  1.00  0.00    -0.273 OA
HETATM    4  N1  UNL     1      -0.719   7.675  13.015  1.00  0.00    -0.159 N 
ATOM      5  H1  UNL     1      -0.357   7.506  13.953  1.00  0.00     0.187 HD
HETATM    6  C3  UNL     1      -1.598   8.611  12.871  1.00  0.00     0.700 C 
HETATM    7  N2  UNL     1      -1.987   9.327  14.018  1.00  0.00    -0.161 N 
ATOM      8  H2  UNL     1      -1.828  10.334  14.019  1.00  0.00     0.187 HD
HETATM    9  C4  UNL     1      -2.526   8.813  15.063  1.00  0.00     0.221 C 
HETATM   10  N3  UNL     1      -2.863   9.653  16.137  1.00  0.00    -0.061 NA
HETATM   11  N4  UNL     1      -2.789   7.427  15.161  1.00  0.00    -0.280 N 
ATOM     12  H4  UNL     1      -2.461   6.925  15.987  1.00  0.00     0.189 HD
HETATM   13  N6  UNL     1      -2.104   8.846  11.576  1.00  0.00    -0.116 N 
ATOM     14  H6  UNL     1      -2.393   8.057  10.998  1.00  0.00     0.203 HD
ENDROOT
BRANCH  13  15
HETATM   15  N7  UNL     1      -2.214  10.149  11.071  1.00  0.00    -0.015 NA
BRANCH  15  16
HETATM   16  N8  UNL     1      -0.999  10.798  11.039  1.00  0.00    -0.328 N 
ATOM     17  H82 UNL     1      -0.421  10.856  10.201  1.00  0.00     0.174 HD
ATOM     18  H81 UNL     1      -0.756  11.207  11.941  1.00  0.00     0.174 HD
ENDBRANCH  15  16
ENDBRANCH  13  15
BRANCH  11  19
HETATM   19  N5  UNL     1      -3.479   6.715  14.178  1.00  0.00    -0.343 N 
ATOM     20  H52 UNL     1      -4.404   7.053  13.912  1.00  0.00     0.176 HD
ATOM     21  H51 UNL     1      -3.097   5.885  13.726  1.00  0.00     0.176 HD
ENDBRANCH  11  19
TORSDOF 3
ENDMDL
