MODEL 1
REMARK VINA RESULT: -6.475277319      0.000      0.000
REMARK  4 active torsions:
REMARK  status: ('A' for Active; 'I' for Inactive)
REMARK    1  A    between atoms: N2_3  and  C2_5 
REMARK    2  A    between atoms: C3_10  and  N5_11 
REMARK    3  A    between atoms: N6_14  and  O1_15 
REMARK    4  A    between atoms: C4_17  and  C5_18 
ROOT
HETATM    1  N1  UNL     1      -1.254   8.184  13.078  1.00  0.00    -0.172 NA
HETATM    2  C1  UNL     1      -1.734   8.956  12.338  1.00  0.00     0.183 C 
HETATM    3  N2  UNL     1      -2.304   9.850  11.449  1.00  0.00    -0.276 N 
ATOM      4  H2  UNL     1      -3.306  10.032  11.513  1.00  0.00     0.179 HD
ENDROOT
BRANCH   3   5
HETATM    5  C2  UNL     1      -1.622  10.464  10.542  1.00  0.00     0.165 A 
HETATM    6  N3  UNL     1      -0.587  11.236  10.927  1.00  0.00    -0.269 N 
HETATM    7  N4  UNL     1       0.127  11.874   9.998  1.00  0.00    -0.129 N 
ATOM      8  H3  UNL     1      -0.351  11.331  11.914  1.00  0.00     0.189 HD
HETATM    9  C3  UNL     1      -0.179  11.754   8.696  1.00  0.00     0.717 A 
ATOM     10  H4  UNL     1       0.913  12.460  10.280  1.00  0.00     0.205 HD
HETATM   11  N6  UNL     1      -1.214  10.983   8.301  1.00  0.00    -0.043 N 
HETATM   12  C4  UNL     1      -1.956  10.323   9.213  1.00  0.00     0.191 A 
BRANCH   9  13
HETATM   13  N5  UNL     1       0.498  12.365   7.769  1.00  0.00    -0.231 N 
ATOM     14  H52 UNL     1       0.417  13.380   7.723  1.00  0.00     0.174 HD
ATOM     15  H51 UNL     1       1.089  11.859   7.109  1.00  0.00     0.174 HD
ENDBRANCH   9  13
BRANCH  11  16
HETATM   16  O1  UNL     1      -1.562  10.830   6.986  1.00  0.00    -0.269 OA
ATOM     17  H1  UNL     1      -1.894  11.544   6.456  1.00  0.00     0.245 HD
ENDBRANCH  11  16
BRANCH  12  18
HETATM   18  C5  UNL     1      -3.077   9.485   8.809  1.00  0.00     0.288 C 
HETATM   19  N7  UNL     1      -3.078   8.101   9.109  1.00  0.00    -0.056 NA
HETATM   20  O2  UNL     1      -4.038   9.997   8.195  1.00  0.00    -0.269 OA
ENDBRANCH  12  18
ENDBRANCH   3   5
TORSDOF 4
ENDMDL
MODEL 2
REMARK VINA RESULT: -6.223940810      1.988      3.849
REMARK  4 active torsions:
REMARK  status: ('A' for Active; 'I' for Inactive)
REMARK    1  A    between atoms: N2_3  and  C2_5 
REMARK    2  A    between atoms: C3_10  and  N5_11 
REMARK    3  A    between atoms: N6_14  and  O1_15 
REMARK    4  A    between atoms: C4_17  and  C5_18 
ROOT
HETATM    1  N1  UNL     1       1.066  12.284   9.621  1.00  0.00    -0.172 NA
HETATM    2  C1  UNL     1       0.234  11.637  10.133  1.00  0.00     0.183 C 
HETATM    3  N2  UNL     1      -0.734  10.867  10.756  1.00  0.00    -0.276 N 
ATOM      4  H2  UNL     1      -1.420  11.333  11.350  1.00  0.00     0.179 HD
ENDROOT
BRANCH   3   5
HETATM    5  C2  UNL     1      -0.805   9.587  10.616  1.00  0.00     0.165 A 
HETATM    6  N3  UNL     1       0.118   8.819  11.226  1.00  0.00    -0.269 N 
HETATM    7  N4  UNL     1       0.054   7.494  11.089  1.00  0.00    -0.129 N 
ATOM      8  H3  UNL     1       0.856   9.245  11.787  1.00  0.00     0.189 HD
HETATM    9  C3  UNL     1      -0.914   6.928  10.352  1.00  0.00     0.717 A 
ATOM     10  H4  UNL     1       0.748   6.905  11.549  1.00  0.00     0.205 HD
HETATM   11  N6  UNL     1      -1.844   7.688   9.736  1.00  0.00    -0.043 N 
HETATM   12  C4  UNL     1      -1.810   9.031   9.854  1.00  0.00     0.191 A 
BRANCH   9  13
HETATM   13  N5  UNL     1      -1.001   5.639  10.199  1.00  0.00    -0.231 N 
ATOM     14  H52 UNL     1      -0.504   5.228   9.410  1.00  0.00     0.174 HD
ATOM     15  H51 UNL     1      -1.543   5.054  10.836  1.00  0.00     0.174 HD
ENDBRANCH   9  13
BRANCH  11  16
HETATM   16  O1  UNL     1      -2.850   7.156   8.976  1.00  0.00    -0.269 OA
ATOM     17  H1  UNL     1      -3.728   7.019   9.310  1.00  0.00     0.245 HD
ENDBRANCH  11  16
BRANCH  12  18
HETATM   18  C5  UNL     1      -2.803   9.871   9.199  1.00  0.00     0.288 C 
HETATM   19  N7  UNL     1      -2.421  10.740   8.147  1.00  0.00    -0.056 NA
HETATM   20  O2  UNL     1      -3.995   9.822   9.572  1.00  0.00    -0.269 OA
ENDBRANCH  12  18
ENDBRANCH   3   5
TORSDOF 4
ENDMDL
MODEL 3
REMARK VINA RESULT: -6.130121977      2.408      3.112
REMARK  4 active torsions:
REMARK  status: ('A' for Active; 'I' for Inactive)
REMARK    1  A    between atoms: N2_3  and  C2_5 
REMARK    2  A    between atoms: C3_10  and  N5_11 
REMARK    3  A    between atoms: N6_14  and  O1_15 
REMARK    4  A    between atoms: C4_17  and  C5_18 
ROOT
HETATM    1  N1  UNL     1      -0.847   7.155  14.812  1.00  0.00    -0.172 NA
HETATM    2  C1  UNL     1      -0.528   7.342  13.700  1.00  0.00     0.183 C 
HETATM    3  N2  UNL     1      -0.138   7.580  12.393  1.00  0.00    -0.276 N 
ATOM      4  H2  UNL     1       0.632   7.035  12.006  1.00  0.00     0.179 HD
ENDROOT
BRANCH   3   5
HETATM    5  C2  UNL     1      -0.708   8.463  11.644  1.00  0.00     0.165 A 
HETATM    6  N3  UNL     1      -1.304   9.519  12.231  1.00  0.00    -0.269 N 
HETATM    7  N4  UNL     1      -1.896  10.438  11.467  1.00  0.00    -0.129 N 
ATOM      8  H3  UNL     1      -1.303   9.614  13.247  1.00  0.00     0.189 HD
HETATM    9  C3  UNL     1      -1.902  10.317  10.130  1.00  0.00     0.717 A 
ATOM     10  H4  UNL     1      -2.349  11.241  11.903  1.00  0.00     0.205 HD
HETATM   11  N6  UNL     1      -1.307   9.263   9.532  1.00  0.00    -0.043 N 
HETATM   12  C4  UNL     1      -0.698   8.315  10.274  1.00  0.00     0.191 A 
BRANCH   9  13
HETATM   13  N5  UNL     1      -2.471  11.196   9.360  1.00  0.00    -0.231 N 
ATOM     14  H52 UNL     1      -2.978  11.956   9.813  1.00  0.00     0.174 HD
ATOM     15  H51 UNL     1      -2.420  11.138   8.342  1.00  0.00     0.174 HD
ENDBRANCH   9  13
BRANCH  11  16
HETATM   16  O1  UNL     1      -1.286   9.098   8.174  1.00  0.00    -0.269 OA
ATOM     17  H1  UNL     1      -0.483   9.113   7.667  1.00  0.00     0.245 HD
ENDBRANCH  11  16
BRANCH  12  18
HETATM   18  C5  UNL     1      -0.051   7.170   9.651  1.00  0.00     0.288 C 
HETATM   19  N7  UNL     1      -0.554   5.862   9.861  1.00  0.00    -0.056 NA
HETATM   20  O2  UNL     1       0.955   7.348   8.929  1.00  0.00    -0.269 OA
ENDBRANCH  12  18
ENDBRANCH   3   5
TORSDOF 4
ENDMDL
MODEL 4
REMARK VINA RESULT: -6.109479625      2.732      4.416
REMARK  4 active torsions:
REMARK  status: ('A' for Active; 'I' for Inactive)
REMARK    1  A    between atoms: N2_3  and  C2_5 
REMARK    2  A    between atoms: C3_10  and  N5_11 
REMARK    3  A    between atoms: N6_14  and  O1_15 
REMARK    4  A    between atoms: C4_17  and  C5_18 
ROOT
HETATM    1  N1  UNL     1       0.778   4.959   8.608  1.00  0.00    -0.172 NA
HETATM    2  C1  UNL     1       0.388   6.055   8.751  1.00  0.00     0.183 C 
HETATM    3  N2  UNL     1      -0.052   7.356   8.927  1.00  0.00    -0.276 N 
ATOM      4  H2  UNL     1      -0.023   7.993   8.132  1.00  0.00     0.179 HD
ENDROOT
BRANCH   3   5
HETATM    5  C2  UNL     1      -0.497   7.795  10.055  1.00  0.00     0.165 A 
HETATM    6  N3  UNL     1      -0.561   6.945  11.098  1.00  0.00    -0.269 N 
HETATM    7  N4  UNL     1      -1.020   7.388  12.270  1.00  0.00    -0.129 N 
ATOM      8  H3  UNL     1      -0.264   5.975  10.994  1.00  0.00     0.189 HD
HETATM    9  C3  UNL     1      -1.413   8.663  12.413  1.00  0.00     0.717 A 
ATOM     10  H4  UNL     1      -1.071   6.751  13.065  1.00  0.00     0.205 HD
HETATM   11  N6  UNL     1      -1.352   9.523  11.375  1.00  0.00    -0.043 N 
HETATM   12  C4  UNL     1      -0.894   9.109  10.176  1.00  0.00     0.191 A 
BRANCH   9  13
HETATM   13  N5  UNL     1      -1.864   9.123  13.543  1.00  0.00    -0.231 N 
ATOM     14  H52 UNL     1      -2.874   9.231  13.634  1.00  0.00     0.174 HD
ATOM     15  H51 UNL     1      -1.243   9.372  14.313  1.00  0.00     0.174 HD
ENDBRANCH   9  13
BRANCH  11  16
HETATM   16  O1  UNL     1      -1.741  10.832  11.474  1.00  0.00    -0.269 OA
ATOM     17  H1  UNL     1      -1.328  11.529  10.978  1.00  0.00     0.245 HD
ENDBRANCH  11  16
BRANCH  12  18
HETATM   18  C5  UNL     1      -0.819  10.019   9.042  1.00  0.00     0.288 C 
HETATM   19  N7  UNL     1      -2.001  10.445   8.388  1.00  0.00    -0.056 NA
HETATM   20  O2  UNL     1       0.297  10.422   8.647  1.00  0.00    -0.269 OA
ENDBRANCH  12  18
ENDBRANCH   3   5
TORSDOF 4
ENDMDL
MODEL 5
REMARK VINA RESULT: -6.075186038      3.204      4.019
REMARK  4 active torsions:
REMARK  status: ('A' for Active; 'I' for Inactive)
REMARK    1  A    between atoms: N2_3  and  C2_5 
REMARK    2  A    between atoms: C3_10  and  N5_11 
REMARK    3  A    between atoms: N6_14  and  O1_15 
REMARK    4  A    between atoms: C4_17  and  C5_18 
ROOT
HETATM    1  N1  UNL     1       0.687   4.885   8.748  1.00  0.00    -0.172 NA
HETATM    2  C1  UNL     1       0.158   5.623   9.489  1.00  0.00     0.183 C 
HETATM    3  N2  UNL     1      -0.488   6.490  10.355  1.00  0.00    -0.276 N 
ATOM      4  H2  UNL     1      -0.793   6.137  11.262  1.00  0.00     0.179 HD
ENDROOT
BRANCH   3   5
HETATM    5  C2  UNL     1      -0.719   7.725  10.062  1.00  0.00     0.165 A 
HETATM    6  N3  UNL     1      -0.553   8.127   8.787  1.00  0.00    -0.269 N 
HETATM    7  N4  UNL     1      -0.790   9.401   8.472  1.00  0.00    -0.129 N 
ATOM      8  H3  UNL     1      -0.251   7.466   8.071  1.00  0.00     0.189 HD
HETATM    9  C3  UNL     1      -1.187  10.276   9.410  1.00  0.00     0.717 A 
ATOM     10  H4  UNL     1      -0.668   9.714   7.509  1.00  0.00     0.205 HD
HETATM   11  N6  UNL     1      -1.356   9.883  10.690  1.00  0.00    -0.043 N 
HETATM   12  C4  UNL     1      -1.127   8.602  11.043  1.00  0.00     0.191 A 
BRANCH   9  13
HETATM   13  N5  UNL     1      -1.425  11.524   9.133  1.00  0.00    -0.231 N 
ATOM     14  H52 UNL     1      -0.844  11.963   8.419  1.00  0.00     0.174 HD
ATOM     15  H51 UNL     1      -2.159  12.053   9.605  1.00  0.00     0.174 HD
ENDBRANCH   9  13
BRANCH  11  16
HETATM   16  O1  UNL     1      -1.760  10.738  11.679  1.00  0.00    -0.269 OA
ATOM     17  H1  UNL     1      -1.344  10.770  12.533  1.00  0.00     0.245 HD
ENDBRANCH  11  16
BRANCH  12  18
HETATM   18  C5  UNL     1      -1.302   8.156  12.418  1.00  0.00     0.288 C 
HETATM   19  N7  UNL     1      -2.590   8.154  13.009  1.00  0.00    -0.056 NA
HETATM   20  O2  UNL     1      -0.309   7.774  13.074  1.00  0.00    -0.269 OA
ENDBRANCH  12  18
ENDBRANCH   3   5
TORSDOF 4
ENDMDL
