MODEL 1
REMARK VINA RESULT: -8.214910649      0.000      0.000
REMARK  0 active torsions:
REMARK  status: ('A' for Active; 'I' for Inactive)
REMARK       I    between atoms: C1_4  and  N3_6 
ROOT
HETATM    1  N1  UNL     1      -0.826   7.918  13.160  1.00  0.00    -0.373 N 
ATOM      2  H11 UNL     1      -0.647   7.289  12.378  1.00  0.00     0.158 HD
ATOM      3  H12 UNL     1      -0.339   7.881  14.056  1.00  0.00     0.158 HD
HETATM    4  C1  UNL     1      -1.733   8.842  13.037  1.00  0.00     0.187 C 
HETATM    5  N2  UNL     1      -1.980   9.711  14.118  1.00  0.00    -0.064 NA
HETATM    6  N3  UNL     1      -2.410   8.893  11.791  1.00  0.00    -0.312 N 
ATOM      7  H3  UNL     1      -3.206   8.275  11.632  1.00  0.00     0.170 HD
HETATM    8  C2  UNL     1      -2.041   9.712  10.843  1.00  0.00     0.180 C 
HETATM    9  N4  UNL     1      -0.929  10.559  11.099  1.00  0.00    -0.301 N 
ATOM     10  H4  UNL     1      -0.612  10.596  12.068  1.00  0.00     0.171 HD
HETATM   11  C3  UNL     1      -0.190  11.370  10.165  1.00  0.00     0.303 C 
HETATM   12  O1  UNL     1       0.696  12.104  10.651  1.00  0.00    -0.263 OA
HETATM   13  C4  UNL     1      -0.335  11.454   8.717  1.00  0.00     0.306 C 
HETATM   14  O2  UNL     1       0.458  12.184   8.074  1.00  0.00    -0.276 OA
HETATM   15  C5  UNL     1      -1.325  10.774   7.856  1.00  0.00     0.304 C 
HETATM   16  O3  UNL     1      -1.069  10.807   6.629  1.00  0.00    -0.263 OA
HETATM   17  N5  UNL     1      -2.503  10.108   8.291  1.00  0.00    -0.284 N 
ATOM     18  H5  UNL     1      -3.207   9.926   7.575  1.00  0.00     0.172 HD
HETATM   19  C6  UNL     1      -2.822   9.659   9.619  1.00  0.00     0.292 C 
HETATM   20  O4  UNL     1      -3.959   9.141   9.726  1.00  0.00    -0.264 OA
ENDROOT
TORSDOF 0
ENDMDL
MODEL 2
REMARK VINA RESULT: -7.113614073      1.784      3.067
REMARK  0 active torsions:
REMARK  status: ('A' for Active; 'I' for Inactive)
REMARK       I    between atoms: C1_4  and  N3_6 
ROOT
HETATM    1  N1  UNL     1      -2.036   9.588  14.473  1.00  0.00    -0.373 N 
ATOM      2  H11 UNL     1      -1.461  10.393  14.225  1.00  0.00     0.158 HD
ATOM      3  H12 UNL     1      -2.741   9.584  15.211  1.00  0.00     0.158 HD
HETATM    4  C1  UNL     1      -1.883   8.473  13.819  1.00  0.00     0.187 C 
HETATM    5  N2  UNL     1      -2.677   7.361  14.162  1.00  0.00    -0.064 NA
HETATM    6  N3  UNL     1      -0.903   8.478  12.793  1.00  0.00    -0.312 N 
ATOM      7  H3  UNL     1       0.074   8.317  13.038  1.00  0.00     0.170 HD
HETATM    8  C2  UNL     1      -1.220   8.684  11.543  1.00  0.00     0.180 C 
HETATM    9  N4  UNL     1      -2.591   8.905  11.239  1.00  0.00    -0.301 N 
ATOM     10  H4  UNL     1      -3.251   8.707  11.990  1.00  0.00     0.171 HD
HETATM   11  C3  UNL     1      -3.167   9.374  10.004  1.00  0.00     0.303 C 
HETATM   12  O1  UNL     1      -4.414   9.400   9.951  1.00  0.00    -0.263 OA
HETATM   13  C4  UNL     1      -2.489   9.828   8.795  1.00  0.00     0.306 C 
HETATM   14  O2  UNL     1      -3.181  10.260   7.842  1.00  0.00    -0.276 OA
HETATM   15  C5  UNL     1      -1.038   9.855   8.516  1.00  0.00     0.304 C 
HETATM   16  O3  UNL     1      -0.705  10.533   7.516  1.00  0.00    -0.263 OA
HETATM   17  N5  UNL     1      -0.024   9.197   9.265  1.00  0.00    -0.284 N 
ATOM     18  H5  UNL     1       0.879   9.091   8.802  1.00  0.00     0.172 HD
HETATM   19  C6  UNL     1      -0.117   8.663  10.597  1.00  0.00     0.292 C 
HETATM   20  O4  UNL     1       0.924   8.089  10.995  1.00  0.00    -0.264 OA
ENDROOT
TORSDOF 0
ENDMDL
MODEL 3
REMARK VINA RESULT: -6.669042821      3.976      6.033
REMARK  0 active torsions:
REMARK  status: ('A' for Active; 'I' for Inactive)
REMARK       I    between atoms: C1_4  and  N3_6 
ROOT
HETATM    1  N1  UNL     1      -0.866  10.857  10.975  1.00  0.00    -0.373 N 
ATOM      2  H11 UNL     1      -0.279  11.151  11.755  1.00  0.00     0.158 HD
ATOM      3  H12 UNL     1      -0.772  11.198  10.018  1.00  0.00     0.158 HD
HETATM    4  C1  UNL     1      -1.810   9.986  11.185  1.00  0.00     0.187 C 
HETATM    5  N2  UNL     1      -2.622   9.580  10.107  1.00  0.00    -0.064 NA
HETATM    6  N3  UNL     1      -1.941   9.512  12.516  1.00  0.00    -0.312 N 
ATOM      7  H3  UNL     1      -2.477  10.061  13.189  1.00  0.00     0.170 HD
HETATM    8  C2  UNL     1      -1.393   8.391  12.902  1.00  0.00     0.180 C 
HETATM    9  N4  UNL     1      -0.653   7.654  11.938  1.00  0.00    -0.301 N 
ATOM     10  H4  UNL     1      -0.756   7.958  10.970  1.00  0.00     0.171 HD
HETATM   11  C3  UNL     1       0.223   6.530  12.154  1.00  0.00     0.303 C 
HETATM   12  O1  UNL     1       0.690   5.990  11.129  1.00  0.00    -0.263 OA
HETATM   13  C4  UNL     1       0.645   5.931  13.414  1.00  0.00     0.306 C 
HETATM   14  O2  UNL     1       1.471   4.987  13.386  1.00  0.00    -0.276 OA
HETATM   15  C5  UNL     1       0.221   6.289  14.784  1.00  0.00     0.304 C 
HETATM   16  O3  UNL     1       0.926   5.804  15.699  1.00  0.00    -0.263 OA
HETATM   17  N5  UNL     1      -0.883   7.113  15.135  1.00  0.00    -0.284 N 
ATOM     18  H5  UNL     1      -1.201   7.049  16.102  1.00  0.00     0.172 HD
HETATM   19  C6  UNL     1      -1.606   8.026  14.292  1.00  0.00     0.292 C 
HETATM   20  O4  UNL     1      -2.572   8.591  14.856  1.00  0.00    -0.264 OA
ENDROOT
TORSDOF 0
ENDMDL
MODEL 4
REMARK VINA RESULT: -6.621932227      2.919      4.970
REMARK  0 active torsions:
REMARK  status: ('A' for Active; 'I' for Inactive)
REMARK       I    between atoms: C1_4  and  N3_6 
ROOT
HETATM    1  N1  UNL     1       0.527  12.239  10.598  1.00  0.00    -0.373 N 
ATOM      2  H11 UNL     1       0.112  12.389  11.517  1.00  0.00     0.158 HD
ATOM      3  H12 UNL     1       1.376  12.695  10.263  1.00  0.00     0.158 HD
HETATM    4  C1  UNL     1      -0.045  11.412   9.771  1.00  0.00     0.187 C 
HETATM    5  N2  UNL     1       0.528  11.204   8.501  1.00  0.00    -0.064 NA
HETATM    6  N3  UNL     1      -1.225  10.777  10.237  1.00  0.00    -0.312 N 
ATOM      7  H3  UNL     1      -2.117  11.267  10.158  1.00  0.00     0.170 HD
HETATM    8  C2  UNL     1      -1.200   9.582  10.763  1.00  0.00     0.180 C 
HETATM    9  N4  UNL     1       0.060   8.930  10.856  1.00  0.00    -0.301 N 
ATOM     10  H4  UNL     1       0.825   9.365  10.341  1.00  0.00     0.171 HD
HETATM   11  C3  UNL     1       0.394   7.733  11.586  1.00  0.00     0.303 C 
HETATM   12  O1  UNL     1       1.556   7.302  11.437  1.00  0.00    -0.263 OA
HETATM   13  C4  UNL     1      -0.445   6.947  12.483  1.00  0.00     0.306 C 
HETATM   14  O2  UNL     1       0.062   5.964  13.074  1.00  0.00    -0.276 OA
HETATM   15  C5  UNL     1      -1.871   7.150  12.813  1.00  0.00     0.304 C 
HETATM   16  O3  UNL     1      -2.281   6.504  13.805  1.00  0.00    -0.263 OA
HETATM   17  N5  UNL     1      -2.785   7.992  12.120  1.00  0.00    -0.284 N 
ATOM     18  H5  UNL     1      -3.775   7.822  12.298  1.00  0.00     0.172 HD
HETATM   19  C6  UNL     1      -2.481   9.052  11.198  1.00  0.00     0.292 C 
HETATM   20  O4  UNL     1      -3.490   9.600  10.695  1.00  0.00    -0.264 OA
ENDROOT
TORSDOF 0
ENDMDL
MODEL 5
REMARK VINA RESULT: -6.455732766      3.506      5.146
REMARK  0 active torsions:
REMARK  status: ('A' for Active; 'I' for Inactive)
REMARK       I    between atoms: C1_4  and  N3_6 
ROOT
HETATM    1  N1  UNL     1       0.183  11.928  10.018  1.00  0.00    -0.373 N 
ATOM      2  H11 UNL     1       0.747  11.906  10.867  1.00  0.00     0.158 HD
ATOM      3  H12 UNL     1       0.402  12.481   9.189  1.00  0.00     0.158 HD
HETATM    4  C1  UNL     1      -0.901  11.210   9.958  1.00  0.00     0.187 C 
HETATM    5  N2  UNL     1      -1.681  11.239   8.786  1.00  0.00    -0.064 NA
HETATM    6  N3  UNL     1      -1.207  10.441  11.111  1.00  0.00    -0.312 N 
ATOM      7  H3  UNL     1      -1.699  10.883  11.888  1.00  0.00     0.170 HD
HETATM    8  C2  UNL     1      -0.875   9.181  11.204  1.00  0.00     0.180 C 
HETATM    9  N4  UNL     1      -0.190   8.598  10.103  1.00  0.00    -0.301 N 
ATOM     10  H4  UNL     1      -0.168   9.153   9.248  1.00  0.00     0.171 HD
HETATM   11  C3  UNL     1       0.478   7.322  10.042  1.00  0.00     0.303 C 
HETATM   12  O1  UNL     1       0.931   6.990   8.927  1.00  0.00    -0.263 OA
HETATM   13  C4  UNL     1       0.702   6.357  11.111  1.00  0.00     0.306 C 
HETATM   14  O2  UNL     1       1.368   5.324  10.860  1.00  0.00    -0.276 OA
HETATM   15  C5  UNL     1       0.236   6.421  12.512  1.00  0.00     0.304 C 
HETATM   16  O3  UNL     1       0.783   5.603  13.288  1.00  0.00    -0.263 OA
HETATM   17  N5  UNL     1      -0.748   7.306  13.034  1.00  0.00    -0.284 N 
ATOM     18  H5  UNL     1      -1.145   7.053  13.938  1.00  0.00     0.172 HD
HETATM   19  C6  UNL     1      -1.249   8.515  12.440  1.00  0.00     0.292 C 
HETATM   20  O4  UNL     1      -2.154   9.075  13.102  1.00  0.00    -0.264 OA
ENDROOT
TORSDOF 0
ENDMDL
