MODEL 1
REMARK VINA RESULT: -7.640783084      0.000      0.000
REMARK  0 active torsions:
REMARK  status: ('A' for Active; 'I' for Inactive)
REMARK       I    between atoms: C1_2  and  N2_4 
ROOT
HETATM    1  N1  UNL     1      -1.686   7.264  12.808  1.00  0.00    -0.040 NA
HETATM    2  C1  UNL     1      -2.170   8.441  12.186  1.00  0.00     0.334 C 
HETATM    3  O1  UNL     1      -3.397   8.583  11.899  1.00  0.00    -0.251 OA
HETATM    4  N2  UNL     1      -1.309   9.492  11.864  1.00  0.00    -0.292 N 
ATOM      5  H2  UNL     1      -1.007  10.068  12.650  1.00  0.00     0.172 HD
HETATM    6  C2  UNL     1      -0.851   9.830  10.735  1.00  0.00     0.182 C 
HETATM    7  N3  UNL     1      -0.015  10.909  10.683  1.00  0.00    -0.290 N 
ATOM      8  H3  UNL     1       0.456  11.158  11.554  1.00  0.00     0.172 HD
HETATM    9  C3  UNL     1       0.258  11.679   9.622  1.00  0.00     0.329 C 
HETATM   10  O2  UNL     1       1.115  12.584   9.867  1.00  0.00    -0.246 OA
HETATM   11  N4  UNL     1      -0.221  11.641   8.372  1.00  0.00    -0.260 N 
ATOM     12  H4  UNL     1      -0.028  12.446   7.776  1.00  0.00     0.175 HD
HETATM   13  C4  UNL     1      -0.943  10.622   7.824  1.00  0.00     0.331 C 
HETATM   14  O3  UNL     1      -1.246  10.777   6.619  1.00  0.00    -0.246 OA
HETATM   15  N5  UNL     1      -1.374   9.482   8.384  1.00  0.00    -0.272 N 
ATOM     16  H5  UNL     1      -1.870   8.843   7.762  1.00  0.00     0.174 HD
HETATM   17  C5  UNL     1      -1.240   9.071   9.655  1.00  0.00     0.293 C 
HETATM   18  O4  UNL     1      -1.499   7.852   9.875  1.00  0.00    -0.264 OA
ENDROOT
TORSDOF 0
ENDMDL
MODEL 2
REMARK VINA RESULT: -7.453398109      1.792      4.997
REMARK  0 active torsions:
REMARK  status: ('A' for Active; 'I' for Inactive)
REMARK       I    between atoms: C1_2  and  N2_4 
ROOT
HETATM    1  N1  UNL     1      -0.439  11.293   7.373  1.00  0.00    -0.040 NA
HETATM    2  C1  UNL     1      -1.423  10.596   8.117  1.00  0.00     0.334 C 
HETATM    3  O1  UNL     1      -2.461  11.179   8.554  1.00  0.00    -0.251 OA
HETATM    4  N2  UNL     1      -1.284   9.235   8.398  1.00  0.00    -0.292 N 
ATOM      5  H2  UNL     1      -1.471   8.605   7.617  1.00  0.00     0.172 HD
HETATM    6  C2  UNL     1      -0.959   8.675   9.483  1.00  0.00     0.182 C 
HETATM    7  N3  UNL     1      -0.892   7.310   9.500  1.00  0.00    -0.290 N 
ATOM      8  H3  UNL     1      -0.766   6.853   8.597  1.00  0.00     0.172 HD
HETATM    9  C3  UNL     1      -0.972   6.503  10.566  1.00  0.00     0.329 C 
HETATM   10  O2  UNL     1      -0.827   5.275  10.277  1.00  0.00    -0.246 OA
HETATM   11  N4  UNL     1      -1.175   6.786  11.860  1.00  0.00    -0.260 N 
ATOM     12  H4  UNL     1      -1.401   6.005  12.476  1.00  0.00     0.175 HD
HETATM   13  C4  UNL     1      -1.106   8.024  12.427  1.00  0.00     0.331 C 
HETATM   14  O3  UNL     1      -1.283   8.049  13.666  1.00  0.00    -0.246 OA
HETATM   15  N5  UNL     1      -0.877   9.215  11.855  1.00  0.00    -0.272 N 
ATOM     16  H5  UNL     1      -0.832  10.011  12.491  1.00  0.00     0.174 HD
HETATM   17  C5  UNL     1      -0.699   9.499  10.554  1.00  0.00     0.293 C 
HETATM   18  O4  UNL     1      -0.241  10.649  10.294  1.00  0.00    -0.264 OA
ENDROOT
TORSDOF 0
ENDMDL
MODEL 3
REMARK VINA RESULT: -7.244042588      1.692      4.504
REMARK  0 active torsions:
REMARK  status: ('A' for Active; 'I' for Inactive)
REMARK       I    between atoms: C1_2  and  N2_4 
ROOT
HETATM    1  N1  UNL     1      -0.444  12.818   8.549  1.00  0.00    -0.040 NA
HETATM    2  C1  UNL     1       0.410  11.812   9.065  1.00  0.00     0.334 C 
HETATM    3  O1  UNL     1       1.529  11.553   8.530  1.00  0.00    -0.251 OA
HETATM    4  N2  UNL     1       0.046  11.066  10.188  1.00  0.00    -0.292 N 
ATOM      5  H2  UNL     1       0.126  11.551  11.082  1.00  0.00     0.172 HD
HETATM    6  C2  UNL     1      -0.369   9.874  10.252  1.00  0.00     0.182 C 
HETATM    7  N3  UNL     1      -0.662   9.366  11.487  1.00  0.00    -0.290 N 
ATOM      8  H3  UNL     1      -0.861  10.048  12.219  1.00  0.00     0.172 HD
HETATM    9  C3  UNL     1      -0.719   8.077  11.846  1.00  0.00     0.329 C 
HETATM   10  O2  UNL     1      -1.065   7.909  13.057  1.00  0.00    -0.246 OA
HETATM   11  N4  UNL     1      -0.473   6.965  11.142  1.00  0.00    -0.260 N 
ATOM     12  H4  UNL     1      -0.380   6.094  11.666  1.00  0.00     0.175 HD
HETATM   13  C4  UNL     1      -0.336   6.891   9.788  1.00  0.00     0.331 C 
HETATM   14  O3  UNL     1      -0.158   5.737   9.336  1.00  0.00    -0.246 OA
HETATM   15  N5  UNL     1      -0.362   7.870   8.870  1.00  0.00    -0.272 N 
ATOM     16  H5  UNL     1      -0.275   7.570   7.899  1.00  0.00     0.174 HD
HETATM   17  C5  UNL     1      -0.489   9.193   9.062  1.00  0.00     0.293 C 
HETATM   18  O4  UNL     1      -0.749   9.881   8.033  1.00  0.00    -0.264 OA
ENDROOT
TORSDOF 0
ENDMDL
MODEL 4
REMARK VINA RESULT: -7.156955653      1.643      4.674
REMARK  0 active torsions:
REMARK  status: ('A' for Active; 'I' for Inactive)
REMARK       I    between atoms: C1_2  and  N2_4 
ROOT
HETATM    1  N1  UNL     1      -0.436  12.638   8.489  1.00  0.00    -0.040 NA
HETATM    2  C1  UNL     1       0.150  11.998   9.609  1.00  0.00     0.334 C 
HETATM    3  O1  UNL     1       1.405  11.986   9.786  1.00  0.00    -0.251 OA
HETATM    4  N2  UNL     1      -0.640  11.355  10.565  1.00  0.00    -0.292 N 
ATOM      5  H2  UNL     1      -1.135  11.970  11.211  1.00  0.00     0.172 HD
HETATM    6  C2  UNL     1      -0.828  10.117  10.740  1.00  0.00     0.182 C 
HETATM    7  N3  UNL     1      -1.658   9.736  11.757  1.00  0.00    -0.290 N 
ATOM      8  H3  UNL     1      -2.327  10.435  12.080  1.00  0.00     0.172 HD
HETATM    9  C3  UNL     1      -1.694   8.551  12.380  1.00  0.00     0.329 C 
HETATM   10  O2  UNL     1      -2.608   8.473  13.257  1.00  0.00    -0.246 OA
HETATM   11  N4  UNL     1      -0.932   7.460  12.221  1.00  0.00    -0.260 N 
ATOM     12  H4  UNL     1      -1.001   6.737  12.939  1.00  0.00     0.175 HD
HETATM   13  C4  UNL     1      -0.074   7.228  11.188  1.00  0.00     0.331 C 
HETATM   14  O3  UNL     1       0.501   6.116  11.216  1.00  0.00    -0.246 OA
HETATM   15  N5  UNL     1       0.245   8.014  10.148  1.00  0.00    -0.272 N 
ATOM     16  H5  UNL     1       0.890   7.610   9.469  1.00  0.00     0.174 HD
HETATM   17  C5  UNL     1      -0.174   9.262   9.883  1.00  0.00     0.293 C 
HETATM   18  O4  UNL     1       0.059   9.690   8.715  1.00  0.00    -0.264 OA
ENDROOT
TORSDOF 0
ENDMDL
MODEL 5
REMARK VINA RESULT: -7.066728534      2.097      2.134
REMARK  0 active torsions:
REMARK  status: ('A' for Active; 'I' for Inactive)
REMARK       I    between atoms: C1_2  and  N2_4 
ROOT
HETATM    1  N1  UNL     1       1.080   6.289  11.344  1.00  0.00    -0.040 NA
HETATM    2  C1  UNL     1       0.282   7.401  11.707  1.00  0.00     0.334 C 
HETATM    3  O1  UNL     1      -0.592   7.321  12.622  1.00  0.00    -0.251 OA
HETATM    4  N2  UNL     1       0.430   8.634  11.067  1.00  0.00    -0.292 N 
ATOM      5  H2  UNL     1       1.252   9.173  11.339  1.00  0.00     0.172 HD
HETATM    6  C2  UNL     1      -0.313   9.175  10.199  1.00  0.00     0.182 C 
HETATM    7  N3  UNL     1       0.054  10.402   9.721  1.00  0.00    -0.290 N 
ATOM      8  H3  UNL     1       1.039  10.648   9.819  1.00  0.00     0.172 HD
HETATM    9  C3  UNL     1      -0.730  11.318   9.140  1.00  0.00     0.329 C 
HETATM   10  O2  UNL     1      -0.095  12.348   8.753  1.00  0.00    -0.246 OA
HETATM   11  N4  UNL     1      -2.049  11.315   8.908  1.00  0.00    -0.260 N 
ATOM     12  H4  UNL     1      -2.475  12.201   8.634  1.00  0.00     0.175 HD
HETATM   13  C4  UNL     1      -2.875  10.234   9.005  1.00  0.00     0.331 C 
HETATM   14  O3  UNL     1      -4.068  10.450   8.693  1.00  0.00    -0.246 OA
HETATM   15  N5  UNL     1      -2.598   8.978   9.384  1.00  0.00    -0.272 N 
ATOM     16  H5  UNL     1      -3.376   8.320   9.342  1.00  0.00     0.174 HD
HETATM   17  C5  UNL     1      -1.430   8.471   9.812  1.00  0.00     0.293 C 
HETATM   18  O4  UNL     1      -1.356   7.209   9.859  1.00  0.00    -0.264 OA
ENDROOT
TORSDOF 0
ENDMDL
