MODEL 1
REMARK VINA RESULT: -7.038580395      0.000      0.000
REMARK  1 active torsions:
REMARK  status: ('A' for Active; 'I' for Inactive)
REMARK    1  A    between atoms: N1_1  and  C1_4 
ROOT
HETATM    1  C1  UNL     1       0.079   8.150  10.943  1.00  0.00     0.694 A 
HETATM    2  N2  UNL     1      -1.106   7.746  10.456  1.00  0.00    -0.153 N 
ATOM      3  H2  UNL     1      -1.402   6.788  10.641  1.00  0.00     0.187 HD
HETATM    4  C2  UNL     1      -1.916   8.531   9.743  1.00  0.00     0.294 A 
HETATM    5  O1  UNL     1      -3.023   8.161   9.287  1.00  0.00    -0.265 OA
HETATM    6  C3  UNL     1      -1.496   9.841   9.497  1.00  0.00     0.199 A 
HETATM    7  C4  UNL     1      -2.339  10.652   8.759  1.00  0.00     0.294 A 
HETATM    8  O2  UNL     1      -3.435  10.221   8.328  1.00  0.00    -0.264 OA
HETATM    9  N3  UNL     1      -1.908  11.906   8.538  1.00  0.00    -0.260 N 
ATOM     10  H3  UNL     1      -2.488  12.548   7.998  1.00  0.00     0.190 HD
HETATM   11  N4  UNL     1      -0.749  12.320   9.007  1.00  0.00    -0.247 N 
ATOM     12  H4  UNL     1      -0.452  13.278   8.822  1.00  0.00     0.192 HD
HETATM   13  C5  UNL     1       0.052  11.513   9.724  1.00  0.00     0.361 A 
HETATM   14  O3  UNL     1       1.136  11.962  10.140  1.00  0.00    -0.243 OA
HETATM   15  N5  UNL     1      -0.313  10.249   9.982  1.00  0.00    -0.179 N 
HETATM   16  N6  UNL     1       0.440   9.415  10.682  1.00  0.00    -0.121 N 
ATOM     17  H6  UNL     1       1.335   9.751  11.040  1.00  0.00     0.206 HD
ENDROOT
BRANCH   1  18
HETATM   18  N1  UNL     1       0.848   7.354  11.639  1.00  0.00    -0.233 N 
ATOM     19  H12 UNL     1       0.505   6.460  11.991  1.00  0.00     0.174 HD
ATOM     20  H11 UNL     1       1.816   7.593  11.856  1.00  0.00     0.174 HD
ENDBRANCH   1  18
TORSDOF 1
ENDMDL
MODEL 2
REMARK VINA RESULT: -6.793967079      2.278      2.754
REMARK  1 active torsions:
REMARK  status: ('A' for Active; 'I' for Inactive)
REMARK    1  A    between atoms: N1_1  and  C1_4 
ROOT
HETATM    1  C1  UNL     1       0.021   6.710   9.157  1.00  0.00     0.694 A 
HETATM    2  N2  UNL     1      -0.533   6.319  10.316  1.00  0.00    -0.153 N 
ATOM      3  H2  UNL     1      -0.542   5.323  10.536  1.00  0.00     0.187 HD
HETATM    4  C2  UNL     1      -1.074   7.164  11.196  1.00  0.00     0.294 A 
HETATM    5  O1  UNL     1      -1.592   6.806  12.280  1.00  0.00    -0.265 OA
HETATM    6  C3  UNL     1      -1.057   8.525  10.882  1.00  0.00     0.199 A 
HETATM    7  C4  UNL     1      -1.618   9.397  11.796  1.00  0.00     0.294 A 
HETATM    8  O2  UNL     1      -2.123   8.976  12.864  1.00  0.00    -0.264 OA
HETATM    9  N3  UNL     1      -1.587  10.700  11.466  1.00  0.00    -0.260 N 
ATOM     10  H3  UNL     1      -1.987  11.389  12.103  1.00  0.00     0.190 HD
HETATM   11  N4  UNL     1      -1.048  11.102  10.333  1.00  0.00    -0.247 N 
ATOM     12  H4  UNL     1      -1.040  12.098  10.113  1.00  0.00     0.192 HD
HETATM   13  C5  UNL     1      -0.507  10.235   9.460  1.00  0.00     0.361 A 
HETATM   14  O3  UNL     1      -0.014  10.676   8.406  1.00  0.00    -0.243 OA
HETATM   15  N5  UNL     1      -0.504   8.920   9.724  1.00  0.00    -0.179 N 
HETATM   16  N6  UNL     1       0.015   8.026   8.897  1.00  0.00    -0.121 N 
ATOM     17  H6  UNL     1       0.429   8.352   8.024  1.00  0.00     0.206 HD
ENDROOT
BRANCH   1  18
HETATM   18  N1  UNL     1       0.543   5.854   8.317  1.00  0.00    -0.233 N 
ATOM     19  H12 UNL     1       0.931   4.967   8.637  1.00  0.00     0.174 HD
ATOM     20  H11 UNL     1       0.583   6.039   7.314  1.00  0.00     0.174 HD
ENDBRANCH   1  18
TORSDOF 1
ENDMDL
MODEL 3
REMARK VINA RESULT: -6.333842349      2.639      3.601
REMARK  1 active torsions:
REMARK  status: ('A' for Active; 'I' for Inactive)
REMARK    1  A    between atoms: N1_1  and  C1_4 
ROOT
HETATM    1  C1  UNL     1      -1.578   8.917  13.252  1.00  0.00     0.694 A 
HETATM    2  N2  UNL     1      -0.564   8.041  13.145  1.00  0.00    -0.153 N 
ATOM      3  H2  UNL     1      -0.192   7.626  13.999  1.00  0.00     0.187 HD
HETATM    4  C2  UNL     1      -0.018   7.686  11.980  1.00  0.00     0.294 A 
HETATM    5  O1  UNL     1       0.927   6.870  11.872  1.00  0.00    -0.265 OA
HETATM    6  C3  UNL     1      -0.537   8.265  10.818  1.00  0.00     0.199 A 
HETATM    7  C4  UNL     1       0.031   7.894   9.614  1.00  0.00     0.294 A 
HETATM    8  O2  UNL     1       0.978   7.071   9.573  1.00  0.00    -0.264 OA
HETATM    9  N3  UNL     1      -0.488   8.467   8.514  1.00  0.00    -0.260 N 
ATOM     10  H3  UNL     1      -0.107   8.231   7.598  1.00  0.00     0.190 HD
HETATM   11  N4  UNL     1      -1.482   9.327   8.600  1.00  0.00    -0.247 N 
ATOM     12  H4  UNL     1      -1.854   9.743   7.746  1.00  0.00     0.192 HD
HETATM   13  C5  UNL     1      -2.019   9.671   9.783  1.00  0.00     0.361 A 
HETATM   14  O3  UNL     1      -2.956  10.490   9.800  1.00  0.00    -0.243 OA
HETATM   15  N5  UNL     1      -1.549   9.140  10.922  1.00  0.00    -0.179 N 
HETATM   16  N6  UNL     1      -2.044   9.446  12.111  1.00  0.00    -0.121 N 
ATOM     17  H6  UNL     1      -2.813  10.113  12.162  1.00  0.00     0.206 HD
ENDROOT
BRANCH   1  18
HETATM   18  N1  UNL     1      -2.090   9.242  14.410  1.00  0.00    -0.233 N 
ATOM     19  H12 UNL     1      -2.060   8.599  15.202  1.00  0.00     0.174 HD
ATOM     20  H11 UNL     1      -2.538  10.145  14.567  1.00  0.00     0.174 HD
ENDBRANCH   1  18
TORSDOF 1
ENDMDL
MODEL 4
REMARK VINA RESULT: -6.268459679      2.523      4.526
REMARK  1 active torsions:
REMARK  status: ('A' for Active; 'I' for Inactive)
REMARK    1  A    between atoms: N1_1  and  C1_4 
ROOT
HETATM    1  C1  UNL     1      -2.263   9.898   9.778  1.00  0.00     0.694 A 
HETATM    2  N2  UNL     1      -1.339   9.264   9.038  1.00  0.00    -0.153 N 
ATOM      3  H2  UNL     1      -1.335   9.422   8.030  1.00  0.00     0.187 HD
HETATM    4  C2  UNL     1      -0.425   8.438   9.551  1.00  0.00     0.294 A 
HETATM    5  O1  UNL     1       0.441   7.843   8.866  1.00  0.00    -0.265 OA
HETATM    6  C3  UNL     1      -0.442   8.229  10.932  1.00  0.00     0.199 A 
HETATM    7  C4  UNL     1       0.506   7.373  11.460  1.00  0.00     0.294 A 
HETATM    8  O2  UNL     1       1.346   6.807  10.720  1.00  0.00    -0.264 OA
HETATM    9  N3  UNL     1       0.464   7.192  12.791  1.00  0.00    -0.260 N 
ATOM     10  H3  UNL     1       1.139   6.570  13.235  1.00  0.00     0.190 HD
HETATM   11  N4  UNL     1      -0.436   7.805  13.533  1.00  0.00    -0.247 N 
ATOM     12  H4  UNL     1      -0.440   7.647  14.540  1.00  0.00     0.192 HD
HETATM   13  C5  UNL     1      -1.348   8.635  12.997  1.00  0.00     0.361 A 
HETATM   14  O3  UNL     1      -2.173   9.184  13.749  1.00  0.00    -0.243 OA
HETATM   15  N5  UNL     1      -1.365   8.861  11.675  1.00  0.00    -0.179 N 
HETATM   16  N6  UNL     1      -2.242   9.668  11.099  1.00  0.00    -0.121 N 
ATOM     17  H6  UNL     1      -2.932  10.136  11.686  1.00  0.00     0.206 HD
ENDROOT
BRANCH   1  18
HETATM   18  N1  UNL     1      -3.144  10.701   9.242  1.00  0.00    -0.233 N 
ATOM     19  H12 UNL     1      -3.039  11.043   8.287  1.00  0.00     0.174 HD
ATOM     20  H11 UNL     1      -3.968  11.018   9.755  1.00  0.00     0.174 HD
ENDBRANCH   1  18
TORSDOF 1
ENDMDL
MODEL 5
REMARK VINA RESULT: -6.267832235      5.360      6.819
REMARK  1 active torsions:
REMARK  status: ('A' for Active; 'I' for Inactive)
REMARK    1  A    between atoms: N1_1  and  C1_4 
ROOT
HETATM    1  C1  UNL     1      -3.566   7.287  16.233  1.00  0.00     0.694 A 
HETATM    2  N2  UNL     1      -2.585   6.648  16.893  1.00  0.00    -0.153 N 
ATOM      3  H2  UNL     1      -2.791   6.273  17.818  1.00  0.00     0.187 HD
HETATM    4  C2  UNL     1      -1.356   6.479  16.402  1.00  0.00     0.294 A 
HETATM    5  O1  UNL     1      -0.437   5.883  17.011  1.00  0.00    -0.265 OA
HETATM    6  C3  UNL     1      -1.088   7.000  15.133  1.00  0.00     0.199 A 
HETATM    7  C4  UNL     1       0.187   6.821  14.627  1.00  0.00     0.294 A 
HETATM    8  O2  UNL     1       1.064   6.216  15.289  1.00  0.00    -0.264 OA
HETATM    9  N3  UNL     1       0.414   7.333  13.406  1.00  0.00    -0.260 N 
ATOM     10  H3  UNL     1       1.338   7.232  12.984  1.00  0.00     0.190 HD
HETATM   11  N4  UNL     1      -0.534   7.963  12.744  1.00  0.00    -0.247 N 
ATOM     12  H4  UNL     1      -0.328   8.339  11.818  1.00  0.00     0.192 HD
HETATM   13  C5  UNL     1      -1.767   8.123  13.256  1.00  0.00     0.361 A 
HETATM   14  O3  UNL     1      -2.621   8.728  12.583  1.00  0.00    -0.243 OA
HETATM   15  N5  UNL     1      -2.065   7.639  14.471  1.00  0.00    -0.179 N 
HETATM   16  N6  UNL     1      -3.263   7.770  15.019  1.00  0.00    -0.121 N 
ATOM     17  H6  UNL     1      -3.987   8.260  14.494  1.00  0.00     0.206 HD
ENDROOT
BRANCH   1  18
HETATM   18  N1  UNL     1      -4.760   7.436  16.744  1.00  0.00    -0.233 N 
ATOM     19  H12 UNL     1      -4.910   7.988  17.588  1.00  0.00     0.174 HD
ATOM     20  H11 UNL     1      -5.584   7.007  16.322  1.00  0.00     0.174 HD
ENDBRANCH   1  18
TORSDOF 1
ENDMDL
