MODEL 1
REMARK VINA RESULT: -7.759976589      0.000      0.000
REMARK  1 active torsions:
REMARK  status: ('A' for Active; 'I' for Inactive)
REMARK    1  A    between atoms: N1_1  and  N2_4 
REMARK       I    between atoms: N2_4  and  C1_6 
ROOT
HETATM    1  N2  UNL     1      -1.388   8.502  11.591  1.00  0.00    -0.138 N 
ATOM      2  H2  UNL     1      -2.204   7.890  11.591  1.00  0.00     0.205 HD
HETATM    3  C1  UNL     1      -1.340   9.441  10.709  1.00  0.00     0.703 C 
HETATM    4  N3  UNL     1      -2.409   9.487   9.884  1.00  0.00    -0.140 N 
ATOM      5  H3  UNL     1      -3.183   8.878  10.149  1.00  0.00     0.189 HD
HETATM    6  C2  UNL     1      -2.616  10.211   8.764  1.00  0.00     0.341 C 
HETATM    7  O1  UNL     1      -3.787  10.251   8.310  1.00  0.00    -0.246 OA
HETATM    8  N4  UNL     1      -1.698  10.905   8.069  1.00  0.00    -0.270 N 
ATOM      9  H4  UNL     1      -1.949  11.141   7.109  1.00  0.00     0.174 HD
HETATM   10  C3  UNL     1      -0.473  11.331   8.488  1.00  0.00     0.318 C 
HETATM   11  O2  UNL     1       0.259  11.898   7.669  1.00  0.00    -0.262 OA
HETATM   12  C4  UNL     1       0.071  11.205   9.757  1.00  0.00     0.328 C 
HETATM   13  O3  UNL     1       0.965  12.024  10.093  1.00  0.00    -0.261 OA
HETATM   14  N5  UNL     1      -0.279  10.263  10.681  1.00  0.00    -0.150 N 
ATOM     15  H5  UNL     1       0.362  10.169  11.469  1.00  0.00     0.188 HD
ENDROOT
BRANCH   1  16
HETATM   16  N1  UNL     1      -0.411   8.267  12.534  1.00  0.00    -0.331 N 
ATOM     17  H12 UNL     1      -0.709   8.251  13.508  1.00  0.00     0.177 HD
ATOM     18  H11 UNL     1       0.574   8.112  12.318  1.00  0.00     0.177 HD
ENDBRANCH   1  16
TORSDOF 1
ENDMDL
MODEL 2
REMARK VINA RESULT: -6.363739461      1.307      3.138
REMARK  1 active torsions:
REMARK  status: ('A' for Active; 'I' for Inactive)
REMARK    1  A    between atoms: N1_1  and  N2_4 
REMARK       I    between atoms: N2_4  and  C1_6 
ROOT
HETATM    1  N2  UNL     1       0.386   7.964  11.513  1.00  0.00    -0.138 N 
ATOM      2  H2  UNL     1       1.296   8.211  11.904  1.00  0.00     0.205 HD
HETATM    3  C1  UNL     1      -0.137   8.770  10.654  1.00  0.00     0.703 C 
HETATM    4  N3  UNL     1       0.611   9.861  10.383  1.00  0.00    -0.140 N 
ATOM      5  H3  UNL     1       1.554   9.842  10.770  1.00  0.00     0.189 HD
HETATM    6  C2  UNL     1       0.310  10.973   9.680  1.00  0.00     0.341 C 
HETATM    7  O1  UNL     1       1.259  11.738   9.373  1.00  0.00    -0.246 OA
HETATM    8  N4  UNL     1      -0.908  11.362   9.265  1.00  0.00    -0.270 N 
ATOM      9  H4  UNL     1      -1.002  12.346   9.017  1.00  0.00     0.174 HD
HETATM   10  C3  UNL     1      -2.033  10.603   9.136  1.00  0.00     0.318 C 
HETATM   11  O2  UNL     1      -3.082  11.166   8.803  1.00  0.00    -0.262 OA
HETATM   12  C4  UNL     1      -2.151   9.236   9.335  1.00  0.00     0.328 C 
HETATM   13  O3  UNL     1      -3.089   8.639   8.748  1.00  0.00    -0.261 OA
HETATM   14  N5  UNL     1      -1.334   8.475  10.120  1.00  0.00    -0.150 N 
ATOM     15  H5  UNL     1      -1.684   7.541  10.334  1.00  0.00     0.188 HD
ENDROOT
BRANCH   1  16
HETATM   16  N1  UNL     1      -0.198   6.791  11.939  1.00  0.00    -0.331 N 
ATOM     17  H12 UNL     1      -1.170   6.639  11.670  1.00  0.00     0.177 HD
ATOM     18  H11 UNL     1       0.275   6.080  12.496  1.00  0.00     0.177 HD
ENDBRANCH   1  16
TORSDOF 1
ENDMDL
MODEL 3
REMARK VINA RESULT: -6.226276161      1.771      3.243
REMARK  1 active torsions:
REMARK  status: ('A' for Active; 'I' for Inactive)
REMARK    1  A    between atoms: N1_1  and  N2_4 
REMARK       I    between atoms: N2_4  and  C1_6 
ROOT
HETATM    1  N2  UNL     1      -3.290   9.382   9.027  1.00  0.00    -0.138 N 
ATOM      2  H2  UNL     1      -3.574   8.466   9.375  1.00  0.00     0.205 HD
HETATM    3  C1  UNL     1      -2.055   9.721   9.168  1.00  0.00     0.703 C 
HETATM    4  N3  UNL     1      -1.284   8.790   9.772  1.00  0.00    -0.140 N 
ATOM      5  H3  UNL     1      -1.733   7.884   9.908  1.00  0.00     0.189 HD
HETATM    6  C2  UNL     1      -0.016   8.868  10.225  1.00  0.00     0.341 C 
HETATM    7  O1  UNL     1       0.554   7.791  10.536  1.00  0.00    -0.246 OA
HETATM    8  N4  UNL     1       0.718   9.983  10.386  1.00  0.00    -0.270 N 
ATOM      9  H4  UNL     1       1.525   9.901  11.004  1.00  0.00     0.174 HD
HETATM   10  C3  UNL     1       0.517  11.209   9.825  1.00  0.00     0.318 C 
HETATM   11  O2  UNL     1       1.269  12.132  10.156  1.00  0.00    -0.262 OA
HETATM   12  C4  UNL     1      -0.456  11.560   8.901  1.00  0.00     0.328 C 
HETATM   13  O3  UNL     1      -0.227  12.552   8.162  1.00  0.00    -0.261 OA
HETATM   14  N5  UNL     1      -1.648  10.920   8.721  1.00  0.00    -0.150 N 
ATOM     15  H5  UNL     1      -2.334  11.430   8.164  1.00  0.00     0.188 HD
ENDROOT
BRANCH   1  16
HETATM   16  N1  UNL     1      -4.254  10.172   8.440  1.00  0.00    -0.331 N 
ATOM     17  H12 UNL     1      -3.989  11.132   8.224  1.00  0.00     0.177 HD
ATOM     18  H11 UNL     1      -5.198   9.859   8.213  1.00  0.00     0.177 HD
ENDBRANCH   1  16
TORSDOF 1
ENDMDL
MODEL 4
REMARK VINA RESULT: -6.155553899      5.891      7.654
REMARK  1 active torsions:
REMARK  status: ('A' for Active; 'I' for Inactive)
REMARK    1  A    between atoms: N1_1  and  N2_4 
REMARK       I    between atoms: N2_4  and  C1_6 
ROOT
HETATM    1  N2  UNL     1      -1.062   7.240  12.908  1.00  0.00    -0.138 N 
ATOM      2  H2  UNL     1      -0.534   8.108  12.811  1.00  0.00     0.205 HD
HETATM    3  C1  UNL     1      -1.921   7.163  13.866  1.00  0.00     0.703 C 
HETATM    4  N3  UNL     1      -2.007   8.274  14.630  1.00  0.00    -0.140 N 
ATOM      5  H3  UNL     1      -1.498   9.082  14.272  1.00  0.00     0.189 HD
HETATM    6  C2  UNL     1      -2.660   8.485  15.792  1.00  0.00     0.341 C 
HETATM    7  O1  UNL     1      -2.778   9.675  16.181  1.00  0.00    -0.246 OA
HETATM    8  N4  UNL     1      -3.205   7.554  16.593  1.00  0.00    -0.270 N 
ATOM      9  H4  UNL     1      -3.390   7.844  17.553  1.00  0.00     0.174 HD
HETATM   10  C3  UNL     1      -3.541   6.271  16.282  1.00  0.00     0.318 C 
HETATM   11  O2  UNL     1      -3.970   5.544  17.185  1.00  0.00    -0.262 OA
HETATM   12  C4  UNL     1      -3.461   5.660  15.039  1.00  0.00     0.328 C 
HETATM   13  O3  UNL     1      -4.213   4.674  14.824  1.00  0.00    -0.261 OA
HETATM   14  N5  UNL     1      -2.632   6.035  14.022  1.00  0.00    -0.150 N 
ATOM     15  H5  UNL     1      -2.537   5.356  13.267  1.00  0.00     0.188 HD
ENDROOT
BRANCH   1  16
HETATM   16  N1  UNL     1      -0.807   6.230  12.006  1.00  0.00    -0.331 N 
ATOM     17  H12 UNL     1      -1.168   5.306  12.240  1.00  0.00     0.177 HD
ATOM     18  H11 UNL     1      -0.289   6.350  11.136  1.00  0.00     0.177 HD
ENDBRANCH   1  16
TORSDOF 1
ENDMDL
MODEL 5
REMARK VINA RESULT: -6.116079358      2.389      3.076
REMARK  1 active torsions:
REMARK  status: ('A' for Active; 'I' for Inactive)
REMARK    1  A    between atoms: N1_1  and  N2_4 
REMARK       I    between atoms: N2_4  and  C1_6 
ROOT
HETATM    1  N2  UNL     1      -0.842   8.303  13.030  1.00  0.00    -0.138 N 
ATOM      2  H2  UNL     1      -0.280   7.555  13.438  1.00  0.00     0.205 HD
HETATM    3  C1  UNL     1      -0.846   8.418  11.746  1.00  0.00     0.703 C 
HETATM    4  N3  UNL     1      -0.086   7.506  11.101  1.00  0.00    -0.140 N 
ATOM      5  H3  UNL     1       0.275   6.755  11.688  1.00  0.00     0.189 HD
HETATM    6  C2  UNL     1       0.271   7.431   9.802  1.00  0.00     0.341 C 
HETATM    7  O1  UNL     1       0.788   6.356   9.406  1.00  0.00    -0.246 OA
HETATM    8  N4  UNL     1       0.136   8.390   8.870  1.00  0.00    -0.270 N 
ATOM      9  H4  UNL     1       0.714   8.287   8.036  1.00  0.00     0.174 HD
HETATM   10  C3  UNL     1      -0.677   9.483   8.901  1.00  0.00     0.318 C 
HETATM   11  O2  UNL     1      -0.604  10.292   7.969  1.00  0.00    -0.262 OA
HETATM   12  C4  UNL     1      -1.606   9.811   9.878  1.00  0.00     0.328 C 
HETATM   13  O3  UNL     1      -2.562  10.559   9.547  1.00  0.00    -0.261 OA
HETATM   14  N5  UNL     1      -1.574   9.392  11.177  1.00  0.00    -0.150 N 
ATOM     15  H5  UNL     1      -2.196   9.894  11.810  1.00  0.00     0.188 HD
ENDROOT
BRANCH   1  16
HETATM   16  N1  UNL     1      -1.543   9.121  13.889  1.00  0.00    -0.331 N 
ATOM     17  H12 UNL     1      -1.250  10.096  13.933  1.00  0.00     0.177 HD
ATOM     18  H11 UNL     1      -2.322   8.814  14.471  1.00  0.00     0.177 HD
ENDBRANCH   1  16
TORSDOF 1
ENDMDL
