MODEL 1
REMARK VINA RESULT: -7.526905125      0.000      0.000
REMARK  2 active torsions:
REMARK  status: ('A' for Active; 'I' for Inactive)
REMARK       I    between atoms: C1_4  and  N3_6 
REMARK    1  A    between atoms: N3_6  and  C2_8 
REMARK    2  A    between atoms: N5_15  and  N6_16 
ROOT
HETATM    1  C2  UNL     1      -1.146   9.667  10.916  1.00  0.00     0.704 A 
HETATM    2  N4  UNL     1      -0.036  10.252  10.434  1.00  0.00    -0.150 N 
ATOM      3  H4  UNL     1       0.768  10.391  11.045  1.00  0.00     0.188 HD
HETATM    4  C3  UNL     1       0.023  10.662   9.134  1.00  0.00     0.331 A 
HETATM    5  O1  UNL     1       1.062  11.212   8.670  1.00  0.00    -0.261 OA
HETATM    6  C4  UNL     1      -1.052  10.487   8.287  1.00  0.00     0.350 A 
HETATM    7  O2  UNL     1      -0.992  10.867   7.089  1.00  0.00    -0.258 OA
HETATM    8  N5  UNL     1      -2.148   9.897   8.806  1.00  0.00    -0.144 N 
HETATM    9  N7  UNL     1      -2.179   9.508  10.070  1.00  0.00    -0.107 N 
ATOM     10  H7  UNL     1      -3.028   9.067  10.422  1.00  0.00     0.208 HD
ENDROOT
BRANCH   1  11
HETATM   11  N3  UNL     1      -1.219   9.274  12.143  1.00  0.00    -0.162 N 
HETATM   12  C1  UNL     1      -0.907   7.954  12.548  1.00  0.00     0.200 C 
HETATM   13  N1  UNL     1       0.295   7.521  12.622  1.00  0.00    -0.373 N 
HETATM   14  N2  UNL     1      -1.999   7.107  12.878  1.00  0.00    -0.063 NA
ATOM     15  H12 UNL     1       0.520   6.570  12.914  1.00  0.00     0.158 HD
ATOM     16  H11 UNL     1       1.079   8.130  12.385  1.00  0.00     0.158 HD
ATOM     17  H3  UNL     1      -1.514   9.944  12.853  1.00  0.00     0.187 HD
ENDBRANCH   1  11
BRANCH   8  18
HETATM   18  N6  UNL     1      -3.232   9.726   7.931  1.00  0.00    -0.320 N 
ATOM     19  H62 UNL     1      -3.124   9.687   6.917  1.00  0.00     0.179 HD
ATOM     20  H61 UNL     1      -4.151   9.641   8.365  1.00  0.00     0.179 HD
ENDBRANCH   8  18
TORSDOF 2
ENDMDL
MODEL 2
REMARK VINA RESULT: -6.890396370      1.249      1.477
REMARK  2 active torsions:
REMARK  status: ('A' for Active; 'I' for Inactive)
REMARK       I    between atoms: C1_4  and  N3_6 
REMARK    1  A    between atoms: N3_6  and  C2_8 
REMARK    2  A    between atoms: N5_15  and  N6_16 
ROOT
HETATM    1  C2  UNL     1      -0.799   9.044  10.243  1.00  0.00     0.704 A 
HETATM    2  N4  UNL     1       0.152   9.918  10.611  1.00  0.00    -0.150 N 
ATOM      3  H4  UNL     1       0.643   9.788  11.495  1.00  0.00     0.188 HD
HETATM    4  C3  UNL     1       0.466  10.979   9.813  1.00  0.00     0.331 A 
HETATM    5  O1  UNL     1       1.360  11.807  10.150  1.00  0.00    -0.261 OA
HETATM    6  C4  UNL     1      -0.185  11.179   8.613  1.00  0.00     0.350 A 
HETATM    7  O2  UNL     1       0.108  12.160   7.881  1.00  0.00    -0.258 OA
HETATM    8  N5  UNL     1      -1.133  10.282   8.277  1.00  0.00    -0.144 N 
HETATM    9  N7  UNL     1      -1.418   9.261   9.070  1.00  0.00    -0.107 N 
ATOM     10  H7  UNL     1      -2.143   8.607   8.777  1.00  0.00     0.208 HD
ENDROOT
BRANCH   1  11
HETATM   11  N3  UNL     1      -1.108   8.035  10.986  1.00  0.00    -0.162 N 
HETATM   12  C1  UNL     1      -0.684   7.911  12.332  1.00  0.00     0.200 C 
HETATM   13  N1  UNL     1      -1.198   8.598  13.281  1.00  0.00    -0.373 N 
HETATM   14  N2  UNL     1       0.353   6.978  12.596  1.00  0.00    -0.063 NA
ATOM     15  H12 UNL     1      -0.892   8.509  14.250  1.00  0.00     0.158 HD
ATOM     16  H11 UNL     1      -1.942   9.268  13.091  1.00  0.00     0.158 HD
ATOM     17  H3  UNL     1      -1.684   7.294  10.588  1.00  0.00     0.187 HD
ENDBRANCH   1  11
BRANCH   8  18
HETATM   18  N6  UNL     1      -1.786  10.499   7.053  1.00  0.00    -0.320 N 
ATOM     19  H62 UNL     1      -1.288  10.557   6.164  1.00  0.00     0.179 HD
ATOM     20  H61 UNL     1      -2.800  10.597   7.095  1.00  0.00     0.179 HD
ENDBRANCH   8  18
TORSDOF 2
ENDMDL
MODEL 3
REMARK VINA RESULT: -6.809258361      1.347      2.537
REMARK  2 active torsions:
REMARK  status: ('A' for Active; 'I' for Inactive)
REMARK       I    between atoms: C1_4  and  N3_6 
REMARK    1  A    between atoms: N3_6  and  C2_8 
REMARK    2  A    between atoms: N5_15  and  N6_16 
ROOT
HETATM    1  C2  UNL     1      -1.690   8.966  11.044  1.00  0.00     0.704 A 
HETATM    2  N4  UNL     1      -2.585   9.153  10.060  1.00  0.00    -0.150 N 
ATOM      3  H4  UNL     1      -3.450   8.613  10.055  1.00  0.00     0.188 HD
HETATM    4  C3  UNL     1      -2.347  10.058   9.067  1.00  0.00     0.331 A 
HETATM    5  O1  UNL     1      -3.184  10.242   8.137  1.00  0.00    -0.261 OA
HETATM    6  C4  UNL     1      -1.183  10.800   9.050  1.00  0.00     0.350 A 
HETATM    7  O2  UNL     1      -0.969  11.632   8.131  1.00  0.00    -0.258 OA
HETATM    8  N5  UNL     1      -0.309  10.585  10.053  1.00  0.00    -0.144 N 
HETATM    9  N7  UNL     1      -0.565   9.701  11.004  1.00  0.00    -0.107 N 
ATOM     10  H7  UNL     1       0.125   9.570  11.743  1.00  0.00     0.208 HD
ENDROOT
BRANCH   1  11
HETATM   11  N3  UNL     1      -1.900   8.114  11.990  1.00  0.00    -0.162 N 
HETATM   12  C1  UNL     1      -1.289   8.213  13.264  1.00  0.00     0.200 C 
HETATM   13  N1  UNL     1      -1.656   9.071  14.139  1.00  0.00    -0.373 N 
HETATM   14  N2  UNL     1      -0.233   7.304  13.543  1.00  0.00    -0.063 NA
ATOM     15  H12 UNL     1      -1.216   9.142  15.056  1.00  0.00     0.158 HD
ATOM     16  H11 UNL     1      -2.414   9.723  13.938  1.00  0.00     0.158 HD
ATOM     17  H3  UNL     1      -2.533   7.335  11.813  1.00  0.00     0.187 HD
ENDBRANCH   1  11
BRANCH   8  18
HETATM   18  N6  UNL     1       0.870  11.347  10.021  1.00  0.00    -0.320 N 
ATOM     19  H62 UNL     1       1.788  10.954  10.228  1.00  0.00     0.179 HD
ATOM     20  H61 UNL     1       0.763  12.331   9.776  1.00  0.00     0.179 HD
ENDBRANCH   8  18
TORSDOF 2
ENDMDL
MODEL 4
REMARK VINA RESULT: -6.775816693      3.151      4.697
REMARK  2 active torsions:
REMARK  status: ('A' for Active; 'I' for Inactive)
REMARK       I    between atoms: C1_4  and  N3_6 
REMARK    1  A    between atoms: N3_6  and  C2_8 
REMARK    2  A    between atoms: N5_15  and  N6_16 
ROOT
HETATM    1  C2  UNL     1      -0.441   9.133  10.052  1.00  0.00     0.704 A 
HETATM    2  N4  UNL     1      -0.419   8.970  11.386  1.00  0.00    -0.150 N 
ATOM      3  H4  UNL     1      -0.329   9.784  11.993  1.00  0.00     0.188 HD
HETATM    4  C3  UNL     1      -0.516   7.724  11.934  1.00  0.00     0.331 A 
HETATM    5  O1  UNL     1      -0.497   7.560  13.188  1.00  0.00    -0.261 OA
HETATM    6  C4  UNL     1      -0.637   6.606  11.135  1.00  0.00     0.350 A 
HETATM    7  O2  UNL     1      -0.725   5.460  11.646  1.00  0.00    -0.258 OA
HETATM    8  N5  UNL     1      -0.655   6.808   9.802  1.00  0.00    -0.144 N 
HETATM    9  N7  UNL     1      -0.559   8.028   9.296  1.00  0.00    -0.107 N 
ATOM     10  H7  UNL     1      -0.576   8.134   8.282  1.00  0.00     0.208 HD
ENDROOT
BRANCH   1  11
HETATM   11  N3  UNL     1      -0.350  10.304   9.517  1.00  0.00    -0.162 N 
HETATM   12  C1  UNL     1      -1.299  10.803   8.593  1.00  0.00     0.200 C 
HETATM   13  N1  UNL     1      -2.462  11.203   8.948  1.00  0.00    -0.373 N 
HETATM   14  N2  UNL     1      -0.907  10.847   7.228  1.00  0.00    -0.063 NA
ATOM     15  H12 UNL     1      -3.145  11.563   8.282  1.00  0.00     0.158 HD
ATOM     16  H11 UNL     1      -2.743  11.172   9.928  1.00  0.00     0.158 HD
ATOM     17  H3  UNL     1       0.440  10.895   9.771  1.00  0.00     0.187 HD
ENDBRANCH   1  11
BRANCH   8  18
HETATM   18  N6  UNL     1      -0.778   5.661   9.003  1.00  0.00    -0.320 N 
ATOM     19  H62 UNL     1      -0.073   4.924   8.982  1.00  0.00     0.179 HD
ATOM     20  H61 UNL     1      -1.622   5.597   8.434  1.00  0.00     0.179 HD
ENDBRANCH   8  18
TORSDOF 2
ENDMDL
MODEL 5
REMARK VINA RESULT: -6.765035526      2.861      4.914
REMARK  2 active torsions:
REMARK  status: ('A' for Active; 'I' for Inactive)
REMARK       I    between atoms: C1_4  and  N3_6 
REMARK    1  A    between atoms: N3_6  and  C2_8 
REMARK    2  A    between atoms: N5_15  and  N6_16 
ROOT
HETATM    1  C2  UNL     1      -0.412   9.107  10.046  1.00  0.00     0.704 A 
HETATM    2  N4  UNL     1      -0.616   7.987   9.332  1.00  0.00    -0.150 N 
ATOM      3  H4  UNL     1      -0.696   8.043   8.317  1.00  0.00     0.188 HD
HETATM    4  C3  UNL     1      -0.718   6.777   9.954  1.00  0.00     0.331 A 
HETATM    5  O1  UNL     1      -0.909   5.718   9.291  1.00  0.00    -0.261 OA
HETATM    6  C4  UNL     1      -0.616   6.675  11.326  1.00  0.00     0.350 A 
HETATM    7  O2  UNL     1      -0.711   5.557  11.894  1.00  0.00    -0.258 OA
HETATM    8  N5  UNL     1      -0.411   7.820  12.009  1.00  0.00    -0.144 N 
HETATM    9  N7  UNL     1      -0.316   8.981  11.381  1.00  0.00    -0.107 N 
ATOM     10  H7  UNL     1      -0.162   9.822  11.937  1.00  0.00     0.208 HD
ENDROOT
BRANCH   1  11
HETATM   11  N3  UNL     1      -0.313  10.260   9.474  1.00  0.00    -0.162 N 
HETATM   12  C1  UNL     1      -1.283  10.756   8.570  1.00  0.00     0.200 C 
HETATM   13  N1  UNL     1      -2.422  11.193   8.953  1.00  0.00    -0.373 N 
HETATM   14  N2  UNL     1      -0.938  10.751   7.191  1.00  0.00    -0.063 NA
ATOM     15  H12 UNL     1      -3.121  11.550   8.301  1.00  0.00     0.158 HD
ATOM     16  H11 UNL     1      -2.669  11.196   9.942  1.00  0.00     0.158 HD
ATOM     17  H3  UNL     1       0.500  10.839   9.683  1.00  0.00     0.187 HD
ENDBRANCH   1  11
BRANCH   8  18
HETATM   18  N6  UNL     1      -0.309   7.699  13.404  1.00  0.00    -0.320 N 
ATOM     19  H62 UNL     1      -0.541   8.460  14.043  1.00  0.00     0.179 HD
ATOM     20  H61 UNL     1       0.013   6.798  13.755  1.00  0.00     0.179 HD
ENDBRANCH   8  18
TORSDOF 2
ENDMDL
