MODEL 1
REMARK VINA RESULT: -4.133305182      0.000      0.000
REMARK  2 active torsions:
REMARK  status: ('A' for Active; 'I' for Inactive)
REMARK    1  A    between atoms: C4_4  and  O1_5 
REMARK    2  A    between atoms: C11_14  and  O3_15 
ROOT
HETATM    1  C1  UNL     1       0.297  17.719  -6.094  1.00  0.00     0.039 C 
HETATM    2  C2  UNL     1      -0.246  18.016  -7.480  1.00  0.00     0.120 C 
HETATM    3  C3  UNL     1       0.671  18.783  -8.339  1.00  0.00     0.070 C 
HETATM    4  C4  UNL     1       1.567  17.938  -9.266  1.00  0.00     0.070 C 
HETATM    5  C5  UNL     1       2.830  17.658  -8.613  1.00  0.00     0.071 C 
HETATM    6  C6  UNL     1       3.597  16.438  -8.795  1.00  0.00     0.131 C 
HETATM    7  O2  UNL     1       4.798  16.612  -9.538  1.00  0.00    -0.380 OA
HETATM    8  C7  UNL     1       4.723  15.223  -9.770  1.00  0.00     0.124 C 
HETATM    9  C8  UNL     1       5.303  14.761 -11.060  1.00  0.00     0.040 C 
HETATM   10  C9  UNL     1       3.201  15.433  -9.781  1.00  0.00     0.046 C 
HETATM   11  C10 UNL     1       2.664  15.970 -11.060  1.00  0.00     0.042 C 
HETATM   12  C11 UNL     1       1.185  16.021 -10.881  1.00  0.00     0.127 C 
HETATM   13  C12 UNL     1       0.695  16.850  -9.768  1.00  0.00     0.073 C 
HETATM   14  C13 UNL     1       0.192  16.078  -8.571  1.00  0.00     0.178 C 
HETATM   15  O4  UNL     1      -0.788  16.865  -7.973  1.00  0.00    -0.386 OA
ENDROOT
BRANCH   4  16
HETATM   16  O1  UNL     1       1.793  18.753 -10.386  1.00  0.00    -0.389 OA
ATOM     17  H1  UNL     1       2.275  18.203 -10.993  1.00  0.00     0.210 HD
ENDBRANCH   4  16
BRANCH  12  18
HETATM   18  O3  UNL     1       0.757  14.690 -10.653  1.00  0.00    -0.395 OA
ATOM     19  H3  UNL     1      -0.188  14.686 -10.752  1.00  0.00     0.210 HD
ENDBRANCH  12  18
TORSDOF 2
ENDMDL
MODEL 2
REMARK VINA RESULT: -3.974188197      1.711      4.550
REMARK  2 active torsions:
REMARK  status: ('A' for Active; 'I' for Inactive)
REMARK    1  A    between atoms: C4_4  and  O1_5 
REMARK    2  A    between atoms: C11_14  and  O3_15 
ROOT
HETATM    1  C1  UNL     1       3.038  13.054 -10.136  1.00  0.00     0.039 C 
HETATM    2  C2  UNL     1       3.750  13.907  -9.101  1.00  0.00     0.120 C 
HETATM    3  C3  UNL     1       4.228  15.204  -9.609  1.00  0.00     0.070 C 
HETATM    4  C4  UNL     1       3.265  16.390  -9.395  1.00  0.00     0.070 C 
HETATM    5  C5  UNL     1       2.408  16.546 -10.553  1.00  0.00     0.071 C 
HETATM    6  C6  UNL     1       1.034  17.014 -10.500  1.00  0.00     0.131 C 
HETATM    7  O2  UNL     1       0.844  18.321 -11.032  1.00  0.00    -0.380 OA
HETATM    8  C7  UNL     1      -0.345  18.334 -10.273  1.00  0.00     0.124 C 
HETATM    9  C8  UNL     1      -0.776  19.673  -9.790  1.00  0.00     0.040 C 
HETATM   10  C9  UNL     1       0.444  17.498  -9.254  1.00  0.00     0.046 C 
HETATM   11  C10 UNL     1       1.352  18.289  -8.382  1.00  0.00     0.042 C 
HETATM   12  C11 UNL     1       1.949  17.308  -7.432  1.00  0.00     0.127 C 
HETATM   13  C12 UNL     1       2.706  16.200  -8.036  1.00  0.00     0.073 C 
HETATM   14  C13 UNL     1       2.006  14.861  -8.012  1.00  0.00     0.178 C 
HETATM   15  O4  UNL     1       3.003  13.891  -7.959  1.00  0.00    -0.386 OA
ENDROOT
BRANCH   4  16
HETATM   16  O1  UNL     1       4.101  17.511  -9.279  1.00  0.00    -0.389 OA
ATOM     17  H1  UNL     1       4.912  17.172  -8.919  1.00  0.00     0.210 HD
ENDBRANCH   4  16
BRANCH  12  18
HETATM   18  O3  UNL     1       0.874  16.750  -6.696  1.00  0.00    -0.395 OA
ATOM     19  H3  UNL     1       0.342  16.265  -7.316  1.00  0.00     0.210 HD
ENDBRANCH  12  18
TORSDOF 2
ENDMDL
MODEL 3
REMARK VINA RESULT: -3.864890447      1.978      3.558
REMARK  2 active torsions:
REMARK  status: ('A' for Active; 'I' for Inactive)
REMARK    1  A    between atoms: C4_4  and  O1_5 
REMARK    2  A    between atoms: C11_14  and  O3_15 
ROOT
HETATM    1  C1  UNL     1      -0.855  20.518  -4.877  1.00  0.00     0.039 C 
HETATM    2  C2  UNL     1      -1.649  19.252  -5.148  1.00  0.00     0.120 C 
HETATM    3  C3  UNL     1      -1.837  18.948  -6.576  1.00  0.00     0.070 C 
HETATM    4  C4  UNL     1      -0.793  17.991  -7.188  1.00  0.00     0.070 C 
HETATM    5  C5  UNL     1       0.299  18.752  -7.761  1.00  0.00     0.071 C 
HETATM    6  C6  UNL     1       1.681  18.307  -7.793  1.00  0.00     0.131 C 
HETATM    7  O2  UNL     1       2.147  17.953  -9.091  1.00  0.00    -0.380 OA
HETATM    8  C7  UNL     1       3.143  17.222  -8.411  1.00  0.00     0.124 C 
HETATM    9  C8  UNL     1       3.636  16.009  -9.117  1.00  0.00     0.040 C 
HETATM   10  C9  UNL     1       2.057  16.964  -7.356  1.00  0.00     0.046 C 
HETATM   11  C10 UNL     1       1.098  15.884  -7.712  1.00  0.00     0.042 C 
HETATM   12  C11 UNL     1       0.194  15.749  -6.535  1.00  0.00     0.127 C 
HETATM   13  C12 UNL     1      -0.559  16.955  -6.155  1.00  0.00     0.073 C 
HETATM   14  C13 UNL     1      -0.061  17.653  -4.911  1.00  0.00     0.178 C 
HETATM   15  O4  UNL     1      -1.165  18.271  -4.332  1.00  0.00    -0.386 OA
ENDROOT
BRANCH   4  16
HETATM   16  O1  UNL     1      -1.480  17.321  -8.211  1.00  0.00    -0.389 OA
ATOM     17  H1  UNL     1      -0.815  16.806  -8.653  1.00  0.00     0.210 HD
ENDBRANCH   4  16
BRANCH  12  18
HETATM   18  O3  UNL     1       1.009  15.381  -5.436  1.00  0.00    -0.395 OA
ATOM     19  H3  UNL     1       1.819  15.870  -5.522  1.00  0.00     0.210 HD
ENDBRANCH  12  18
TORSDOF 2
ENDMDL
MODEL 4
REMARK VINA RESULT: -3.765834877      1.827      2.890
REMARK  2 active torsions:
REMARK  status: ('A' for Active; 'I' for Inactive)
REMARK    1  A    between atoms: C4_4  and  O1_5 
REMARK    2  A    between atoms: C11_14  and  O3_15 
ROOT
HETATM    1  C1  UNL     1      -0.470  18.780  -4.365  1.00  0.00     0.039 C 
HETATM    2  C2  UNL     1      -1.195  17.648  -5.073  1.00  0.00     0.120 C 
HETATM    3  C3  UNL     1      -1.374  17.854  -6.519  1.00  0.00     0.070 C 
HETATM    4  C4  UNL     1      -0.283  17.229  -7.413  1.00  0.00     0.070 C 
HETATM    5  C5  UNL     1       0.762  18.200  -7.669  1.00  0.00     0.071 C 
HETATM    6  C6  UNL     1       2.166  17.869  -7.836  1.00  0.00     0.131 C 
HETATM    7  O2  UNL     1       2.643  18.018  -9.170  1.00  0.00    -0.380 OA
HETATM    8  C7  UNL     1       3.682  17.149  -8.774  1.00  0.00     0.124 C 
HETATM    9  C8  UNL     1       4.236  16.288  -9.853  1.00  0.00     0.040 C 
HETATM   10  C9  UNL     1       2.618  16.480  -7.891  1.00  0.00     0.046 C 
HETATM   11  C10 UNL     1       1.718  15.544  -8.615  1.00  0.00     0.042 C 
HETATM   12  C11 UNL     1       0.829  14.957  -7.573  1.00  0.00     0.127 C 
HETATM   13  C12 UNL     1       0.013  15.911  -6.805  1.00  0.00     0.073 C 
HETATM   14  C13 UNL     1       0.480  16.155  -5.388  1.00  0.00     0.178 C 
HETATM   15  O4  UNL     1      -0.653  16.471  -4.645  1.00  0.00    -0.386 OA
ENDROOT
BRANCH   4  16
HETATM   16  O1  UNL     1      -0.939  16.923  -8.615  1.00  0.00    -0.389 OA
ATOM     17  H1  UNL     1      -1.222  17.764  -8.957  1.00  0.00     0.210 HD
ENDBRANCH   4  16
BRANCH  12  18
HETATM   18  O3  UNL     1       1.670  14.272  -6.660  1.00  0.00    -0.395 OA
ATOM     19  H3  UNL     1       1.126  13.633  -6.215  1.00  0.00     0.210 HD
ENDBRANCH  12  18
TORSDOF 2
ENDMDL
MODEL 5
REMARK VINA RESULT: -3.498181548      1.670      2.626
REMARK  2 active torsions:
REMARK  status: ('A' for Active; 'I' for Inactive)
REMARK    1  A    between atoms: C4_4  and  O1_5 
REMARK    2  A    between atoms: C11_14  and  O3_15 
ROOT
HETATM    1  C1  UNL     1      -2.252  15.645  -8.168  1.00  0.00     0.039 C 
HETATM    2  C2  UNL     1      -1.497  16.863  -7.666  1.00  0.00     0.120 C 
HETATM    3  C3  UNL     1      -0.416  16.557  -6.714  1.00  0.00     0.070 C 
HETATM    4  C4  UNL     1       0.984  16.395  -7.338  1.00  0.00     0.070 C 
HETATM    5  C5  UNL     1       1.225  15.003  -7.658  1.00  0.00     0.071 C 
HETATM    6  C6  UNL     1       2.018  14.546  -8.786  1.00  0.00     0.131 C 
HETATM    7  O2  UNL     1       3.270  13.972  -8.422  1.00  0.00    -0.380 OA
HETATM    8  C7  UNL     1       3.652  14.243  -9.753  1.00  0.00     0.124 C 
HETATM    9  C8  UNL     1       5.099  14.526  -9.954  1.00  0.00     0.040 C 
HETATM   10  C9  UNL     1       2.758  15.486  -9.625  1.00  0.00     0.046 C 
HETATM   11  C10 UNL     1       3.389  16.625  -8.905  1.00  0.00     0.042 C 
HETATM   12  C11 UNL     1       2.395  17.734  -8.964  1.00  0.00     0.127 C 
HETATM   13  C12 UNL     1       1.079  17.457  -8.367  1.00  0.00     0.073 C 
HETATM   14  C13 UNL     1      -0.038  17.232  -9.360  1.00  0.00     0.178 C 
HETATM   15  O4  UNL     1      -1.211  17.652  -8.742  1.00  0.00    -0.386 OA
ENDROOT
BRANCH   4  16
HETATM   16  O1  UNL     1       1.873  16.802  -6.330  1.00  0.00    -0.389 OA
ATOM     17  H1  UNL     1       2.390  16.028  -6.137  1.00  0.00     0.210 HD
ENDBRANCH   4  16
BRANCH  12  18
HETATM   18  O3  UNL     1       2.196  18.029 -10.336  1.00  0.00    -0.395 OA
ATOM     19  H3  UNL     1       1.360  17.650 -10.578  1.00  0.00     0.210 HD
ENDBRANCH  12  18
TORSDOF 2
ENDMDL
