MODEL 1
REMARK VINA RESULT: -3.959615149      0.000      0.000
REMARK  4 active torsions:
REMARK  status: ('A' for Active; 'I' for Inactive)
REMARK    1  A    between atoms: C5_6  and  O1_7 
REMARK    2  A    between atoms: C5_6  and  C6_9 
REMARK    3  A    between atoms: C7_10  and  C8_11 
REMARK    4  A    between atoms: C8_11  and  O2_12 
ROOT
HETATM    1  N1  UNL     1       1.325  29.024  -3.505  1.00  0.00    -0.197 NA
HETATM    2  C1  UNL     1       1.383  27.982  -4.018  1.00  0.00     0.064 C 
HETATM    3  C2  UNL     1       1.481  26.662  -4.674  1.00  0.00     0.093 C 
HETATM    4  C3  UNL     1       0.171  25.963  -4.578  1.00  0.00     0.023 C 
HETATM    5  C4  UNL     1       0.384  24.572  -4.016  1.00  0.00     0.053 C 
HETATM    6  C5  UNL     1       1.046  24.781  -2.649  1.00  0.00     0.121 C 
HETATM    7  C12 UNL     1       2.476  25.153  -2.929  1.00  0.00     0.053 C 
HETATM    8  C13 UNL     1       2.656  25.883  -4.214  1.00  0.00     0.023 C 
ENDROOT
BRANCH   6   9
HETATM    9  O1  UNL     1       0.381  25.842  -2.008  1.00  0.00    -0.378 OA
ATOM     10  H1  UNL     1       1.016  26.296  -1.466  1.00  0.00     0.211 HD
ENDBRANCH   6   9
BRANCH   6  11
HETATM   11  C6  UNL     1       1.032  23.569  -1.856  1.00  0.00    -0.063 C 
HETATM   12  C7  UNL     1       0.998  22.556  -1.194  1.00  0.00    -0.035 C 
BRANCH  12  13
HETATM   13  C8  UNL     1       0.933  21.329  -0.394  1.00  0.00     0.230 C 
HETATM   14  C9  UNL     1       0.939  20.126  -1.321  1.00  0.00     0.085 C 
HETATM   15  C10 UNL     1       1.314  19.034  -0.311  1.00  0.00     0.033 C 
HETATM   16  C11 UNL     1       2.204  19.796   0.622  1.00  0.00     0.172 C 
HETATM   17  O3  UNL     1       2.064  21.133   0.365  1.00  0.00    -0.345 OA
BRANCH  13  18
HETATM   18  O2  UNL     1      -0.218  21.254   0.367  1.00  0.00    -0.355 OA
ATOM     19  H2  UNL     1      -0.163  20.592   1.046  1.00  0.00     0.214 HD
ENDBRANCH  13  18
ENDBRANCH  12  13
ENDBRANCH   6  11
TORSDOF 4
ENDMDL
MODEL 2
REMARK VINA RESULT: -3.909434592      7.864      9.317
REMARK  4 active torsions:
REMARK  status: ('A' for Active; 'I' for Inactive)
REMARK    1  A    between atoms: C5_6  and  O1_7 
REMARK    2  A    between atoms: C5_6  and  C6_9 
REMARK    3  A    between atoms: C7_10  and  C8_11 
REMARK    4  A    between atoms: C8_11  and  O2_12 
ROOT
HETATM    1  N1  UNL     1       2.788  14.640 -11.060  1.00  0.00    -0.197 NA
HETATM    2  C1  UNL     1       2.684  15.695 -10.582  1.00  0.00     0.064 C 
HETATM    3  C2  UNL     1       2.532  17.040  -9.990  1.00  0.00     0.093 C 
HETATM    4  C3  UNL     1       3.464  17.183  -8.839  1.00  0.00     0.023 C 
HETATM    5  C4  UNL     1       2.697  17.669  -7.627  1.00  0.00     0.053 C 
HETATM    6  C5  UNL     1       1.609  16.616  -7.383  1.00  0.00     0.121 C 
HETATM    7  C12 UNL     1       0.564  16.839  -8.442  1.00  0.00     0.053 C 
HETATM    8  C13 UNL     1       1.117  17.385  -9.711  1.00  0.00     0.023 C 
ENDROOT
BRANCH   6   9
HETATM    9  O1  UNL     1       2.198  15.348  -7.538  1.00  0.00    -0.378 OA
ATOM     10  H1  UNL     1       1.579  14.701  -7.220  1.00  0.00     0.211 HD
ENDBRANCH   6   9
BRANCH   6  11
HETATM   11  C6  UNL     1       0.991  16.776  -6.084  1.00  0.00    -0.063 C 
HETATM   12  C7  UNL     1       0.485  16.893  -4.989  1.00  0.00    -0.035 C 
BRANCH  12  13
HETATM   13  C8  UNL     1      -0.113  17.016  -3.657  1.00  0.00     0.230 C 
HETATM   14  C9  UNL     1      -0.367  18.482  -3.356  1.00  0.00     0.085 C 
HETATM   15  C10 UNL     1      -1.356  18.332  -2.192  1.00  0.00     0.033 C 
HETATM   16  C11 UNL     1      -2.074  17.077  -2.584  1.00  0.00     0.172 C 
HETATM   17  O3  UNL     1      -1.375  16.470  -3.592  1.00  0.00    -0.345 OA
BRANCH  13  18
HETATM   18  O2  UNL     1       0.711  16.530  -2.660  1.00  0.00    -0.355 OA
ATOM     19  H2  UNL     1       1.221  17.214  -2.244  1.00  0.00     0.214 HD
ENDBRANCH  13  18
ENDBRANCH  12  13
ENDBRANCH   6  11
TORSDOF 4
ENDMDL
MODEL 3
REMARK VINA RESULT: -3.800762805      1.097      1.386
REMARK  4 active torsions:
REMARK  status: ('A' for Active; 'I' for Inactive)
REMARK    1  A    between atoms: C5_6  and  O1_7 
REMARK    2  A    between atoms: C5_6  and  C6_9 
REMARK    3  A    between atoms: C7_10  and  C8_11 
REMARK    4  A    between atoms: C8_11  and  O2_12 
ROOT
HETATM    1  N1  UNL     1       1.527  29.577  -2.666  1.00  0.00    -0.197 NA
HETATM    2  C1  UNL     1       2.188  28.664  -2.952  1.00  0.00     0.064 C 
HETATM    3  C2  UNL     1       3.045  27.512  -3.299  1.00  0.00     0.093 C 
HETATM    4  C3  UNL     1       2.306  26.604  -4.218  1.00  0.00     0.023 C 
HETATM    5  C4  UNL     1       2.359  25.190  -3.679  1.00  0.00     0.053 C 
HETATM    6  C5  UNL     1       1.728  25.261  -2.283  1.00  0.00     0.121 C 
HETATM    7  C12 UNL     1       2.755  25.902  -1.391  1.00  0.00     0.053 C 
HETATM    8  C13 UNL     1       3.640  26.863  -2.105  1.00  0.00     0.023 C 
ENDROOT
BRANCH   6   9
HETATM    9  O1  UNL     1       0.583  26.073  -2.372  1.00  0.00    -0.378 OA
ATOM     10  H1  UNL     1       0.507  26.556  -1.557  1.00  0.00     0.211 HD
ENDBRANCH   6   9
BRANCH   6  11
HETATM   11  C6  UNL     1       1.425  23.944  -1.765  1.00  0.00    -0.063 C 
HETATM   12  C7  UNL     1       1.150  22.844  -1.337  1.00  0.00    -0.035 C 
BRANCH  12  13
HETATM   13  C8  UNL     1       0.795  21.517  -0.827  1.00  0.00     0.230 C 
HETATM   14  C9  UNL     1       0.596  20.568  -1.995  1.00  0.00     0.085 C 
HETATM   15  C10 UNL     1       0.689  19.230  -1.250  1.00  0.00     0.033 C 
HETATM   16  C11 UNL     1       1.672  19.567  -0.172  1.00  0.00     0.172 C 
HETATM   17  O3  UNL     1       1.824  20.927  -0.128  1.00  0.00    -0.345 OA
BRANCH  13  18
HETATM   18  O2  UNL     1      -0.382  21.526  -0.102  1.00  0.00    -0.355 OA
ATOM     19  H2  UNL     1      -0.851  20.703  -0.161  1.00  0.00     0.214 HD
ENDBRANCH  13  18
ENDBRANCH  12  13
ENDBRANCH   6  11
TORSDOF 4
ENDMDL
MODEL 4
REMARK VINA RESULT: -3.799907375      3.005      6.850
REMARK  4 active torsions:
REMARK  status: ('A' for Active; 'I' for Inactive)
REMARK    1  A    between atoms: C5_6  and  O1_7 
REMARK    2  A    between atoms: C5_6  and  C6_9 
REMARK    3  A    between atoms: C7_10  and  C8_11 
REMARK    4  A    between atoms: C8_11  and  O2_12 
ROOT
HETATM    1  N1  UNL     1      -1.665  19.185   0.992  1.00  0.00    -0.197 NA
HETATM    2  C1  UNL     1      -0.555  19.339   0.683  1.00  0.00     0.064 C 
HETATM    3  C2  UNL     1       0.851  19.521   0.269  1.00  0.00     0.093 C 
HETATM    4  C3  UNL     1       1.497  20.538   1.143  1.00  0.00     0.023 C 
HETATM    5  C4  UNL     1       2.166  21.589   0.282  1.00  0.00     0.053 C 
HETATM    6  C5  UNL     1       1.048  22.178  -0.587  1.00  0.00     0.121 C 
HETATM    7  C12 UNL     1       0.752  21.148  -1.643  1.00  0.00     0.053 C 
HETATM    8  C13 UNL     1       0.992  19.751  -1.189  1.00  0.00     0.023 C 
ENDROOT
BRANCH   6   9
HETATM    9  O1  UNL     1      -0.076  22.372   0.235  1.00  0.00    -0.378 OA
ATOM     10  H1  UNL     1      -0.664  22.967  -0.215  1.00  0.00     0.211 HD
ENDBRANCH   6   9
BRANCH   6  11
HETATM   11  C6  UNL     1       1.465  23.400  -1.240  1.00  0.00    -0.063 C 
HETATM   12  C7  UNL     1       1.830  24.413  -1.797  1.00  0.00    -0.035 C 
BRANCH  12  13
HETATM   13  C8  UNL     1       2.288  25.624  -2.482  1.00  0.00     0.230 C 
HETATM   14  C9  UNL     1       2.534  25.309  -3.947  1.00  0.00     0.085 C 
HETATM   15  C10 UNL     1       2.551  26.736  -4.511  1.00  0.00     0.033 C 
HETATM   16  C11 UNL     1       1.565  27.414  -3.611  1.00  0.00     0.172 C 
HETATM   17  O3  UNL     1       1.317  26.598  -2.540  1.00  0.00    -0.345 OA
BRANCH  13  18
HETATM   18  O2  UNL     1       3.473  26.110  -1.963  1.00  0.00    -0.355 OA
ATOM     19  H2  UNL     1       4.124  25.429  -1.842  1.00  0.00     0.214 HD
ENDBRANCH  13  18
ENDBRANCH  12  13
ENDBRANCH   6  11
TORSDOF 4
ENDMDL
MODEL 5
REMARK VINA RESULT: -3.755718476      7.696      9.530
REMARK  4 active torsions:
REMARK  status: ('A' for Active; 'I' for Inactive)
REMARK    1  A    between atoms: C5_6  and  O1_7 
REMARK    2  A    between atoms: C5_6  and  C6_9 
REMARK    3  A    between atoms: C7_10  and  C8_11 
REMARK    4  A    between atoms: C8_11  and  O2_12 
ROOT
HETATM    1  N1  UNL     1       2.955  13.640  -7.793  1.00  0.00    -0.197 NA
HETATM    2  C1  UNL     1       2.789  14.636  -8.369  1.00  0.00     0.064 C 
HETATM    3  C2  UNL     1       2.563  15.890  -9.116  1.00  0.00     0.093 C 
HETATM    4  C3  UNL     1       3.232  17.016  -8.409  1.00  0.00     0.023 C 
HETATM    5  C4  UNL     1       2.242  18.144  -8.208  1.00  0.00     0.053 C 
HETATM    6  C5  UNL     1       1.090  17.536  -7.397  1.00  0.00     0.121 C 
HETATM    7  C12 UNL     1       0.303  16.688  -8.358  1.00  0.00     0.053 C 
HETATM    8  C13 UNL     1       1.133  16.106  -9.449  1.00  0.00     0.023 C 
ENDROOT
BRANCH   6   9
HETATM    9  O1  UNL     1       1.653  16.736  -6.387  1.00  0.00    -0.378 OA
ATOM     10  H1  UNL     1       2.474  16.389  -6.717  1.00  0.00     0.211 HD
ENDBRANCH   6   9
BRANCH   6  11
HETATM   11  C6  UNL     1       0.216  18.557  -6.861  1.00  0.00    -0.063 C 
HETATM   12  C7  UNL     1      -0.529  19.409  -6.429  1.00  0.00    -0.035 C 
BRANCH  12  13
HETATM   13  C8  UNL     1      -1.445  20.437  -5.926  1.00  0.00     0.230 C 
HETATM   14  C9  UNL     1      -0.663  21.446  -5.104  1.00  0.00     0.085 C 
HETATM   15  C10 UNL     1      -1.682  22.593  -5.081  1.00  0.00     0.033 C 
HETATM   16  C11 UNL     1      -2.333  22.429  -6.419  1.00  0.00     0.172 C 
HETATM   17  O3  UNL     1      -1.976  21.211  -6.932  1.00  0.00    -0.345 OA
BRANCH  13  18
HETATM   18  O2  UNL     1      -2.427  19.914  -5.105  1.00  0.00    -0.355 OA
ATOM     19  H2  UNL     1      -2.101  19.697  -4.240  1.00  0.00     0.214 HD
ENDBRANCH  13  18
ENDBRANCH  12  13
ENDBRANCH   6  11
TORSDOF 4
ENDMDL
