MODEL 1
REMARK VINA RESULT: -6.157291781      0.000      0.000
REMARK  5 active torsions:
REMARK  status: ('A' for Active; 'I' for Inactive)
REMARK    1  A    between atoms: C2_2  and  N1_4 
REMARK    2  A    between atoms: C3_6  and  C4_7 
REMARK    3  A    between atoms: C3_6  and  N3_14 
REMARK    4  A    between atoms: C4_7  and  O1_8 
REMARK    5  A    between atoms: N2_10  and  O2_12 
ROOT
HETATM    1  N1  UNL     1       2.526  17.811   4.894  1.00  0.00    -0.334 N 
ATOM      2  H1  UNL     1       2.720  18.670   5.410  1.00  0.00     0.168 HD
HETATM    3  C3  UNL     1       2.889  17.837   3.667  1.00  0.00     0.158 C 
ENDROOT
BRANCH   3   4
HETATM    4  C4  UNL     1       3.514  19.087   3.224  1.00  0.00     0.205 C 
HETATM    5  N2  UNL     1       2.904  20.197   3.219  1.00  0.00    -0.244 N 
ATOM      6  H2  UNL     1       3.458  20.987   2.888  1.00  0.00     0.196 HD
BRANCH   4   7
HETATM    7  O1  UNL     1       4.866  19.019   2.786  1.00  0.00    -0.342 OA
ATOM      8  H1  UNL     1       5.021  19.039   1.849  1.00  0.00     0.219 HD
ENDBRANCH   4   7
BRANCH   5   9
HETATM    9  O2  UNL     1       1.655  20.501   3.578  1.00  0.00    -0.288 OA
ATOM     10  H2  UNL     1       1.327  20.965   4.339  1.00  0.00     0.244 HD
ENDBRANCH   5   9
ENDBRANCH   3   4
BRANCH   3  11
HETATM   11  N3  UNL     1       2.689  16.718   2.807  1.00  0.00    -0.362 N 
HETATM   12  C5  UNL     1       1.455  16.654   2.082  1.00  0.00     0.134 C 
HETATM   13  C6  UNL     1       1.447  15.726   0.897  1.00  0.00     0.093 C 
HETATM   14  S2  UNL     1       1.935  14.072   1.452  1.00  0.00    -0.166 SA
HETATM   15  C7  UNL     1       3.200  14.306   2.727  1.00  0.00     0.093 C 
HETATM   16  C8  UNL     1       3.733  15.722   2.730  1.00  0.00     0.134 C 
ENDBRANCH   3  11
BRANCH   1  17
HETATM   17  C2  UNL     1       1.918  16.821   5.640  1.00  0.00     0.075 C 
HETATM   18  C1  UNL     1       2.755  15.883   6.477  1.00  0.00     0.081 C 
HETATM   19  S1  UNL     1       0.284  16.575   5.669  1.00  0.00    -0.066 SA
ENDBRANCH   1  17
TORSDOF 5
ENDMDL
MODEL 2
REMARK VINA RESULT: -6.146654526      7.252      9.342
REMARK  5 active torsions:
REMARK  status: ('A' for Active; 'I' for Inactive)
REMARK    1  A    between atoms: C2_2  and  N1_4 
REMARK    2  A    between atoms: C3_6  and  C4_7 
REMARK    3  A    between atoms: C3_6  and  N3_14 
REMARK    4  A    between atoms: C4_7  and  O1_8 
REMARK    5  A    between atoms: N2_10  and  O2_12 
ROOT
HETATM    1  N1  UNL     1      -2.548  17.827  -4.873  1.00  0.00    -0.334 N 
ATOM      2  H1  UNL     1      -2.746  18.687  -5.384  1.00  0.00     0.168 HD
HETATM    3  C3  UNL     1      -2.911  17.843  -3.645  1.00  0.00     0.158 C 
ENDROOT
BRANCH   3   4
HETATM    4  C4  UNL     1      -3.544  19.087  -3.195  1.00  0.00     0.205 C 
HETATM    5  N2  UNL     1      -2.948  20.205  -3.208  1.00  0.00    -0.244 N 
ATOM      6  H2  UNL     1      -3.505  20.989  -2.869  1.00  0.00     0.196 HD
BRANCH   4   7
HETATM    7  O1  UNL     1      -4.886  19.003  -2.731  1.00  0.00    -0.342 OA
ATOM      8  H1  UNL     1      -5.182  18.160  -2.407  1.00  0.00     0.219 HD
ENDBRANCH   4   7
BRANCH   5   9
HETATM    9  O2  UNL     1      -1.710  20.523  -3.593  1.00  0.00    -0.288 OA
ATOM     10  H2  UNL     1      -0.876  20.117  -3.385  1.00  0.00     0.244 HD
ENDBRANCH   5   9
ENDBRANCH   3   4
BRANCH   3  11
HETATM   11  N3  UNL     1      -2.706  16.720  -2.792  1.00  0.00    -0.362 N 
HETATM   12  C5  UNL     1      -1.472  16.659  -2.067  1.00  0.00     0.134 C 
HETATM   13  C6  UNL     1      -1.459  15.724  -0.887  1.00  0.00     0.093 C 
HETATM   14  S2  UNL     1      -1.938  14.070  -1.453  1.00  0.00    -0.166 SA
HETATM   15  C7  UNL     1      -3.204  14.305  -2.727  1.00  0.00     0.093 C 
HETATM   16  C8  UNL     1      -3.744  15.718  -2.722  1.00  0.00     0.134 C 
ENDBRANCH   3  11
BRANCH   1  17
HETATM   17  C2  UNL     1      -1.934  16.844  -5.624  1.00  0.00     0.075 C 
HETATM   18  C1  UNL     1      -2.765  15.913  -6.475  1.00  0.00     0.081 C 
HETATM   19  S1  UNL     1      -0.299  16.600  -5.646  1.00  0.00    -0.066 SA
ENDBRANCH   1  17
TORSDOF 5
ENDMDL
MODEL 3
REMARK VINA RESULT: -6.031237944      6.828      8.622
REMARK  5 active torsions:
REMARK  status: ('A' for Active; 'I' for Inactive)
REMARK    1  A    between atoms: C2_2  and  N1_4 
REMARK    2  A    between atoms: C3_6  and  C4_7 
REMARK    3  A    between atoms: C3_6  and  N3_14 
REMARK    4  A    between atoms: C4_7  and  O1_8 
REMARK    5  A    between atoms: N2_10  and  O2_12 
ROOT
HETATM    1  N1  UNL     1      -2.659  18.332  -4.079  1.00  0.00    -0.334 N 
ATOM      2  H1  UNL     1      -3.415  18.650  -4.687  1.00  0.00     0.168 HD
HETATM    3  C3  UNL     1      -2.398  19.117  -3.102  1.00  0.00     0.158 C 
ENDROOT
BRANCH   3   4
HETATM    4  C4  UNL     1      -3.227  20.325  -3.030  1.00  0.00     0.205 C 
HETATM    5  N2  UNL     1      -4.419  20.316  -2.603  1.00  0.00    -0.244 N 
ATOM      6  H2  UNL     1      -4.880  21.226  -2.605  1.00  0.00     0.196 HD
BRANCH   4   7
HETATM    7  O1  UNL     1      -2.638  21.545  -3.465  1.00  0.00    -0.342 OA
ATOM      8  H1  UNL     1      -2.493  21.648  -4.399  1.00  0.00     0.219 HD
ENDBRANCH   4   7
BRANCH   5   9
HETATM    9  O2  UNL     1      -5.170  19.310  -2.150  1.00  0.00    -0.288 OA
ATOM     10  H2  UNL     1      -5.554  18.572  -2.609  1.00  0.00     0.244 HD
ENDBRANCH   5   9
ENDBRANCH   3   4
BRANCH   3  11
HETATM   11  N3  UNL     1      -1.370  18.820  -2.162  1.00  0.00    -0.362 N 
HETATM   12  C5  UNL     1      -0.079  19.396  -2.391  1.00  0.00     0.134 C 
HETATM   13  C6  UNL     1       0.841  19.422  -1.199  1.00  0.00     0.093 C 
HETATM   14  S2  UNL     1       1.010  17.734  -0.562  1.00  0.00    -0.166 SA
HETATM   15  C7  UNL     1      -0.607  16.942  -0.756  1.00  0.00     0.093 C 
HETATM   16  C8  UNL     1      -1.692  17.955  -1.050  1.00  0.00     0.134 C 
ENDBRANCH   3  11
BRANCH   1  17
HETATM   17  C2  UNL     1      -2.094  17.128  -4.452  1.00  0.00     0.075 C 
HETATM   18  C1  UNL     1      -2.756  15.829  -4.060  1.00  0.00     0.081 C 
HETATM   19  S1  UNL     1      -0.689  17.010  -5.314  1.00  0.00    -0.066 SA
ENDBRANCH   1  17
TORSDOF 5
ENDMDL
MODEL 4
REMARK VINA RESULT: -6.029821945      1.811      2.121
REMARK  5 active torsions:
REMARK  status: ('A' for Active; 'I' for Inactive)
REMARK    1  A    between atoms: C2_2  and  N1_4 
REMARK    2  A    between atoms: C3_6  and  C4_7 
REMARK    3  A    between atoms: C3_6  and  N3_14 
REMARK    4  A    between atoms: C4_7  and  O1_8 
REMARK    5  A    between atoms: N2_10  and  O2_12 
ROOT
HETATM    1  N1  UNL     1       2.742  18.234   4.280  1.00  0.00    -0.334 N 
ATOM      2  H1  UNL     1       3.374  18.685   4.941  1.00  0.00     0.168 HD
HETATM    3  C3  UNL     1       2.807  18.691   3.086  1.00  0.00     0.158 C 
ENDROOT
BRANCH   3   4
HETATM    4  C4  UNL     1       3.775  19.774   2.882  1.00  0.00     0.205 C 
HETATM    5  N2  UNL     1       3.517  20.986   3.147  1.00  0.00    -0.244 N 
ATOM      6  H2  UNL     1       4.280  21.635   2.959  1.00  0.00     0.196 HD
BRANCH   4   7
HETATM    7  O1  UNL     1       5.051  19.417   2.363  1.00  0.00    -0.342 OA
ATOM      8  H1  UNL     1       5.757  20.044   2.476  1.00  0.00     0.219 HD
ENDBRANCH   4   7
BRANCH   5   9
HETATM    9  O2  UNL     1       2.409  21.550   3.633  1.00  0.00    -0.288 OA
ATOM     10  H2  UNL     1       2.255  21.996   4.457  1.00  0.00     0.244 HD
ENDBRANCH   5   9
ENDBRANCH   3   4
BRANCH   3  11
HETATM   11  N3  UNL     1       1.989  18.171   2.042  1.00  0.00    -0.362 N 
HETATM   12  C5  UNL     1       0.796  18.893   1.716  1.00  0.00     0.134 C 
HETATM   13  C6  UNL     1       0.194  18.578   0.373  1.00  0.00     0.093 C 
HETATM   14  S2  UNL     1      -0.106  16.794   0.276  1.00  0.00    -0.166 SA
HETATM   15  C7  UNL     1       1.266  15.990   1.144  1.00  0.00     0.093 C 
HETATM   16  C8  UNL     1       2.408  16.951   1.391  1.00  0.00     0.134 C 
ENDBRANCH   3  11
BRANCH   1  17
HETATM   17  C2  UNL     1       1.961  17.235   4.827  1.00  0.00     0.075 C 
HETATM   18  C1  UNL     1       0.510  17.500   5.150  1.00  0.00     0.081 C 
HETATM   19  S1  UNL     1       2.530  15.723   5.177  1.00  0.00    -0.066 SA
ENDBRANCH   1  17
TORSDOF 5
ENDMDL
MODEL 5
REMARK VINA RESULT: -6.025466088      2.014      2.776
REMARK  5 active torsions:
REMARK  status: ('A' for Active; 'I' for Inactive)
REMARK    1  A    between atoms: C2_2  and  N1_4 
REMARK    2  A    between atoms: C3_6  and  C4_7 
REMARK    3  A    between atoms: C3_6  and  N3_14 
REMARK    4  A    between atoms: C4_7  and  O1_8 
REMARK    5  A    between atoms: N2_10  and  O2_12 
ROOT
HETATM    1  N1  UNL     1       2.688  18.268   4.141  1.00  0.00    -0.334 N 
ATOM      2  H1  UNL     1       3.408  18.644   4.758  1.00  0.00     0.168 HD
HETATM    3  C3  UNL     1       2.420  19.003   3.127  1.00  0.00     0.158 C 
ENDROOT
BRANCH   3   4
HETATM    4  C4  UNL     1       3.192  20.247   3.034  1.00  0.00     0.205 C 
HETATM    5  N2  UNL     1       4.382  20.286   2.602  1.00  0.00    -0.244 N 
ATOM      6  H2  UNL     1       4.801  21.216   2.589  1.00  0.00     0.196 HD
BRANCH   4   7
HETATM    7  O1  UNL     1       2.548  21.444   3.452  1.00  0.00    -0.342 OA
ATOM      8  H1  UNL     1       2.921  22.265   3.152  1.00  0.00     0.219 HD
ENDBRANCH   4   7
BRANCH   5   9
HETATM    9  O2  UNL     1       5.178  19.309   2.162  1.00  0.00    -0.288 OA
ATOM     10  H2  UNL     1       5.030  18.645   1.498  1.00  0.00     0.244 HD
ENDBRANCH   5   9
ENDBRANCH   3   4
BRANCH   3  11
HETATM   11  N3  UNL     1       1.437  18.621   2.169  1.00  0.00    -0.362 N 
HETATM   12  C5  UNL     1       0.101  19.094   2.370  1.00  0.00     0.134 C 
HETATM   13  C6  UNL     1      -0.795  19.042   1.161  1.00  0.00     0.093 C 
HETATM   14  S2  UNL     1      -0.818  17.344   0.530  1.00  0.00    -0.166 SA
HETATM   15  C7  UNL     1       0.853  16.683   0.760  1.00  0.00     0.093 C 
HETATM   16  C8  UNL     1       1.848  17.779   1.069  1.00  0.00     0.134 C 
ENDBRANCH   3  11
BRANCH   1  17
HETATM   17  C2  UNL     1       2.170  17.052   4.542  1.00  0.00     0.075 C 
HETATM   18  C1  UNL     1       2.880  15.770   4.177  1.00  0.00     0.081 C 
HETATM   19  S1  UNL     1       0.773  16.899   5.411  1.00  0.00    -0.066 SA
ENDBRANCH   1  17
TORSDOF 5
ENDMDL
