MODEL 1
REMARK VINA RESULT: -6.886280143      0.000      0.000
REMARK  2 active torsions:
REMARK  status: ('A' for Active; 'I' for Inactive)
REMARK    1  A    between atoms: C9_11  and  O1_12 
REMARK    2  A    between atoms: C12_16  and  O2_17 
ROOT
HETATM    1  C1  UNL     1      -3.856  19.731  -2.605  1.00  0.00     0.150 C 
HETATM    2  N1  UNL     1      -2.638  19.090  -3.092  1.00  0.00    -0.384 N 
HETATM    3  C2  UNL     1      -1.477  19.814  -2.868  1.00  0.00     0.059 C 
HETATM    4  C3  UNL     1      -0.233  19.150  -2.474  1.00  0.00     0.053 C 
HETATM    5  C4  UNL     1       0.039  17.787  -2.947  1.00  0.00     0.034 C 
HETATM    6  C5  UNL     1      -0.220  16.800  -1.792  1.00  0.00     0.084 C 
HETATM    7  S1  UNL     1      -1.947  17.188  -1.290  1.00  0.00    -0.143 SA
HETATM    8  C6  UNL     1      -2.713  17.719  -2.875  1.00  0.00     0.151 C 
HETATM    9  C7  UNL     1      -2.083  16.861  -3.935  1.00  0.00     0.056 C 
HETATM   10  C8  UNL     1      -2.806  16.855  -5.241  1.00  0.00     0.042 C 
HETATM   11  C9  UNL     1      -2.016  16.517  -6.427  1.00  0.00     0.118 C 
HETATM   12  C10 UNL     1      -0.590  16.216  -6.297  1.00  0.00     0.034 C 
HETATM   13  C11 UNL     1      -0.007  16.220  -4.913  1.00  0.00     0.041 C 
HETATM   14  C12 UNL     1      -0.689  17.364  -4.170  1.00  0.00     0.069 C 
ENDROOT
BRANCH  11  15
HETATM   15  O1  UNL     1      -2.642  15.431  -7.093  1.00  0.00    -0.396 OA
ATOM     16  H1  UNL     1      -2.123  15.203  -7.855  1.00  0.00     0.210 HD
ENDBRANCH  11  15
BRANCH  14  17
HETATM   17  O2  UNL     1      -0.673  18.447  -5.077  1.00  0.00    -0.389 OA
ATOM     18  H2  UNL     1      -0.359  18.121  -5.912  1.00  0.00     0.210 HD
ENDBRANCH  14  17
TORSDOF 2
ENDMDL
MODEL 2
REMARK VINA RESULT: -6.843655627      7.275      9.402
REMARK  2 active torsions:
REMARK  status: ('A' for Active; 'I' for Inactive)
REMARK    1  A    between atoms: C9_11  and  O1_12 
REMARK    2  A    between atoms: C12_16  and  O2_17 
ROOT
HETATM    1  C1  UNL     1       3.848  19.797   2.696  1.00  0.00     0.150 C 
HETATM    2  N1  UNL     1       2.624  19.148   3.154  1.00  0.00    -0.384 N 
HETATM    3  C2  UNL     1       1.467  19.881   2.935  1.00  0.00     0.059 C 
HETATM    4  C3  UNL     1       0.226  19.230   2.513  1.00  0.00     0.053 C 
HETATM    5  C4  UNL     1      -0.056  17.858   2.951  1.00  0.00     0.034 C 
HETATM    6  C5  UNL     1       0.212  16.898   1.776  1.00  0.00     0.084 C 
HETATM    7  S1  UNL     1       1.946  17.292   1.300  1.00  0.00    -0.143 SA
HETATM    8  C6  UNL     1       2.697  17.782   2.906  1.00  0.00     0.151 C 
HETATM    9  C7  UNL     1       2.054  16.902   3.938  1.00  0.00     0.056 C 
HETATM   10  C8  UNL     1       2.762  16.862   5.251  1.00  0.00     0.042 C 
HETATM   11  C9  UNL     1       1.960  16.499   6.421  1.00  0.00     0.118 C 
HETATM   12  C10 UNL     1       0.534  16.205   6.269  1.00  0.00     0.034 C 
HETATM   13  C11 UNL     1      -0.034  16.244   4.879  1.00  0.00     0.041 C 
HETATM   14  C12 UNL     1       0.658  17.403   4.171  1.00  0.00     0.069 C 
ENDROOT
BRANCH  11  15
HETATM   15  O1  UNL     1       2.576  15.395   7.067  1.00  0.00    -0.396 OA
ATOM     16  H1  UNL     1       2.021  14.631   6.955  1.00  0.00     0.210 HD
ENDBRANCH  11  15
BRANCH  14  17
HETATM   17  O2  UNL     1       0.637  18.465   5.103  1.00  0.00    -0.389 OA
ATOM     18  H2  UNL     1       1.521  18.804   5.176  1.00  0.00     0.210 HD
ENDBRANCH  14  17
TORSDOF 2
ENDMDL
MODEL 3
REMARK VINA RESULT: -6.778408995      5.235      7.187
REMARK  2 active torsions:
REMARK  status: ('A' for Active; 'I' for Inactive)
REMARK    1  A    between atoms: C9_11  and  O1_12 
REMARK    2  A    between atoms: C12_16  and  O2_17 
ROOT
HETATM    1  C1  UNL     1       0.059  22.938   1.695  1.00  0.00     0.150 C 
HETATM    2  N1  UNL     1       0.305  21.523   1.432  1.00  0.00    -0.384 N 
HETATM    3  C2  UNL     1      -0.834  20.732   1.433  1.00  0.00     0.059 C 
HETATM    4  C3  UNL     1      -1.003  19.646   0.466  1.00  0.00     0.053 C 
HETATM    5  C4  UNL     1       0.178  18.927  -0.027  1.00  0.00     0.034 C 
HETATM    6  C5  UNL     1       0.499  19.420  -1.452  1.00  0.00     0.084 C 
HETATM    7  S1  UNL     1       0.648  21.242  -1.241  1.00  0.00    -0.143 SA
HETATM    8  C6  UNL     1       1.301  21.392   0.472  1.00  0.00     0.151 C 
HETATM    9  C7  UNL     1       2.226  20.223   0.655  1.00  0.00     0.056 C 
HETATM   10  C8  UNL     1       3.147  20.335   1.825  1.00  0.00     0.042 C 
HETATM   11  C9  UNL     1       3.662  19.081   2.378  1.00  0.00     0.118 C 
HETATM   12  C10 UNL     1       3.263  17.802   1.790  1.00  0.00     0.034 C 
HETATM   13  C11 UNL     1       2.362  17.845   0.589  1.00  0.00     0.041 C 
HETATM   14  C12 UNL     1       1.387  18.991   0.833  1.00  0.00     0.069 C 
ENDROOT
BRANCH  11  15
HETATM   15  O1  UNL     1       5.080  19.142   2.391  1.00  0.00    -0.396 OA
ATOM     16  H1  UNL     1       5.415  18.319   2.726  1.00  0.00     0.210 HD
ENDBRANCH  11  15
BRANCH  14  17
HETATM   17  O2  UNL     1       0.970  18.836   2.174  1.00  0.00    -0.389 OA
ATOM     18  H2  UNL     1       1.598  19.286   2.726  1.00  0.00     0.210 HD
ENDBRANCH  14  17
TORSDOF 2
ENDMDL
MODEL 4
REMARK VINA RESULT: -6.751623755      1.828      3.085
REMARK  2 active torsions:
REMARK  status: ('A' for Active; 'I' for Inactive)
REMARK    1  A    between atoms: C9_11  and  O1_12 
REMARK    2  A    between atoms: C12_16  and  O2_17 
ROOT
HETATM    1  C1  UNL     1      -0.487  18.793  -0.353  1.00  0.00     0.150 C 
HETATM    2  N1  UNL     1      -1.219  18.153  -1.442  1.00  0.00    -0.384 N 
HETATM    3  C2  UNL     1      -2.346  17.450  -1.042  1.00  0.00     0.059 C 
HETATM    4  C3  UNL     1      -3.576  17.475  -1.835  1.00  0.00     0.053 C 
HETATM    5  C4  UNL     1      -3.492  17.616  -3.295  1.00  0.00     0.034 C 
HETATM    6  C5  UNL     1      -3.858  19.064  -3.675  1.00  0.00     0.084 C 
HETATM    7  S1  UNL     1      -2.695  20.069  -2.663  1.00  0.00    -0.143 SA
HETATM    8  C6  UNL     1      -1.216  18.981  -2.558  1.00  0.00     0.151 C 
HETATM    9  C7  UNL     1      -1.136  18.280  -3.883  1.00  0.00     0.056 C 
HETATM   10  C8  UNL     1       0.178  17.630  -4.165  1.00  0.00     0.042 C 
HETATM   11  C9  UNL     1       0.171  16.520  -5.120  1.00  0.00     0.118 C 
HETATM   12  C10 UNL     1      -1.084  16.094  -5.739  1.00  0.00     0.034 C 
HETATM   13  C11 UNL     1      -2.323  16.869  -5.392  1.00  0.00     0.041 C 
HETATM   14  C12 UNL     1      -2.200  17.223  -3.915  1.00  0.00     0.069 C 
ENDROOT
BRANCH  11  15
HETATM   15  O1  UNL     1       1.103  16.807  -6.152  1.00  0.00    -0.396 OA
ATOM     16  H1  UNL     1       1.976  16.808  -5.780  1.00  0.00     0.210 HD
ENDBRANCH  11  15
BRANCH  14  17
HETATM   17  O2  UNL     1      -1.768  16.032  -3.289  1.00  0.00    -0.389 OA
ATOM     18  H2  UNL     1      -1.641  15.379  -3.968  1.00  0.00     0.210 HD
ENDBRANCH  14  17
TORSDOF 2
ENDMDL
MODEL 5
REMARK VINA RESULT: -6.734007607      3.748      4.517
REMARK  2 active torsions:
REMARK  status: ('A' for Active; 'I' for Inactive)
REMARK    1  A    between atoms: C9_11  and  O1_12 
REMARK    2  A    between atoms: C12_16  and  O2_17 
ROOT
HETATM    1  C1  UNL     1       0.072  22.870  -1.611  1.00  0.00     0.150 C 
HETATM    2  N1  UNL     1      -0.216  21.463  -1.349  1.00  0.00    -0.384 N 
HETATM    3  C2  UNL     1       0.900  20.641  -1.325  1.00  0.00     0.059 C 
HETATM    4  C3  UNL     1       1.022  19.555  -0.351  1.00  0.00     0.053 C 
HETATM    5  C4  UNL     1      -0.188  18.870   0.121  1.00  0.00     0.034 C 
HETATM    6  C5  UNL     1      -0.523  19.376   1.537  1.00  0.00     0.084 C 
HETATM    7  S1  UNL     1      -0.619  21.201   1.318  1.00  0.00    -0.143 SA
HETATM    8  C6  UNL     1      -1.235  21.362  -0.408  1.00  0.00     0.151 C 
HETATM    9  C7  UNL     1      -2.186  20.218  -0.605  1.00  0.00     0.056 C 
HETATM   10  C8  UNL     1      -3.081  20.350  -1.793  1.00  0.00     0.042 C 
HETATM   11  C9  UNL     1      -3.619  19.109  -2.353  1.00  0.00     0.118 C 
HETATM   12  C10 UNL     1      -3.266  17.821  -1.754  1.00  0.00     0.034 C 
HETATM   13  C11 UNL     1      -2.388  17.845  -0.535  1.00  0.00     0.041 C 
HETATM   14  C12 UNL     1      -1.378  18.963  -0.763  1.00  0.00     0.069 C 
ENDROOT
BRANCH  11  15
HETATM   15  O1  UNL     1      -5.035  19.208  -2.394  1.00  0.00    -0.396 OA
ATOM     16  H1  UNL     1      -5.269  20.090  -2.658  1.00  0.00     0.210 HD
ENDBRANCH  11  15
BRANCH  14  17
HETATM   17  O2  UNL     1      -0.939  18.792  -2.095  1.00  0.00    -0.389 OA
ATOM     18  H2  UNL     1      -1.707  18.782  -2.654  1.00  0.00     0.210 HD
ENDBRANCH  14  17
TORSDOF 2
ENDMDL
