MODEL 1
REMARK VINA RESULT: -7.091697945      0.000      0.000
REMARK  8 active torsions:
REMARK  status: ('A' for Active; 'I' for Inactive)
REMARK    1  A    between atoms: O1_2  and  C2_3 
REMARK    2  A    between atoms: C2_3  and  C5_6 
REMARK    3  A    between atoms: C5_6  and  C6_8 
REMARK    4  A    between atoms: C6_8  and  C7_10 
REMARK       I    between atoms: C7_10  and  N1_12 
REMARK       I    between atoms: N2_14  and  C8_16 
REMARK       I    between atoms: C8_16  and  N3_18 
REMARK    5  A    between atoms: N3_18  and  C9_20 
REMARK    6  A    between atoms: C11_22  and  O6_24 
REMARK    7  A    between atoms: C13_27  and  O8_28 
REMARK    8  A    between atoms: C14_30  and  O9_31 
ROOT
HETATM    1  C7  UNL     1       1.105  22.093   3.056  1.00  0.00     0.314 C 
HETATM    2  O4  UNL     1       0.701  22.136   4.272  1.00  0.00    -0.262 OA
HETATM    3  N1  UNL     1       2.478  22.206   2.817  1.00  0.00    -0.259 N 
ATOM      4  H1  UNL     1       2.735  23.144   2.510  1.00  0.00     0.190 HD
HETATM    5  N2  UNL     1       3.424  21.483   2.880  1.00  0.00    -0.249 N 
ATOM      6  H2  UNL     1       4.304  21.927   2.620  1.00  0.00     0.192 HD
HETATM    7  C8  UNL     1       3.551  20.136   3.244  1.00  0.00     0.335 C 
HETATM    8  O5  UNL     1       4.739  19.630   3.386  1.00  0.00    -0.246 OA
HETATM    9  N3  UNL     1       2.508  19.221   3.484  1.00  0.00    -0.334 N 
ATOM     10  H3  UNL     1       1.541  19.535   3.394  1.00  0.00     0.164 HD
ENDROOT
BRANCH   9  11
HETATM   11  C9  UNL     1       2.768  17.869   3.850  1.00  0.00     0.124 C 
HETATM   12  C10 UNL     1       1.641  17.310   4.726  1.00  0.00     0.096 C 
HETATM   13  C11 UNL     1       2.213  16.057   5.364  1.00  0.00     0.163 C 
HETATM   14  C12 UNL     1       1.229  15.377   6.259  1.00  0.00     0.079 C 
HETATM   15  O7  UNL     1       2.739  15.235   4.397  1.00  0.00    -0.323 OA
HETATM   16  C13 UNL     1       2.410  15.574   3.108  1.00  0.00     0.291 C 
HETATM   17  C14 UNL     1       2.911  16.938   2.689  1.00  0.00     0.196 C 
BRANCH  13  18
HETATM   18  O6  UNL     1       3.278  16.491   6.181  1.00  0.00    -0.365 OA
ATOM     19  H6  UNL     1       4.000  16.676   5.593  1.00  0.00     0.213 HD
ENDBRANCH  13  18
BRANCH  16  20
HETATM   20  O8  UNL     1       3.005  14.649   2.252  1.00  0.00    -0.368 OA
ATOM     21  H8  UNL     1       3.946  14.707   2.364  1.00  0.00     0.212 HD
ENDBRANCH  16  20
BRANCH  17  22
HETATM   22  O9  UNL     1       4.216  16.904   2.212  1.00  0.00    -0.389 OA
ATOM     23  H9  UNL     1       4.258  16.572   1.323  1.00  0.00     0.210 HD
ENDBRANCH  17  22
ENDBRANCH   9  11
BRANCH   1  24
HETATM   24  C6  UNL     1       0.157  21.933   1.974  1.00  0.00     0.289 C 
HETATM   25  O3  UNL     1      -0.878  21.264   2.161  1.00  0.00    -0.278 OA
BRANCH  24  26
HETATM   26  C5  UNL     1       0.404  22.539   0.691  1.00  0.00     0.238 C 
HETATM   27  O2  UNL     1      -0.126  23.677   0.466  1.00  0.00    -0.285 OA
BRANCH  26  28
HETATM   28  C2  UNL     1       1.220  21.942  -0.372  1.00  0.00     0.121 C 
HETATM   29  C3  UNL     1       0.456  21.561  -1.600  1.00  0.00     0.055 C 
HETATM   30  C4  UNL     1       2.161  23.090  -0.837  1.00  0.00     0.055 C 
BRANCH  28  31
HETATM   31  O1  UNL     1       2.057  20.984   0.105  1.00  0.00    -0.378 OA
HETATM   32  C1  UNL     1       1.756  19.680  -0.123  1.00  0.00     0.203 C 
ENDBRANCH  28  31
ENDBRANCH  26  28
ENDBRANCH  24  26
ENDBRANCH   1  24
TORSDOF 8
ENDMDL
MODEL 2
REMARK VINA RESULT: -7.048694634      0.621      1.378
REMARK  8 active torsions:
REMARK  status: ('A' for Active; 'I' for Inactive)
REMARK    1  A    between atoms: O1_2  and  C2_3 
REMARK    2  A    between atoms: C2_3  and  C5_6 
REMARK    3  A    between atoms: C5_6  and  C6_8 
REMARK    4  A    between atoms: C6_8  and  C7_10 
REMARK       I    between atoms: C7_10  and  N1_12 
REMARK       I    between atoms: N2_14  and  C8_16 
REMARK       I    between atoms: C8_16  and  N3_18 
REMARK    5  A    between atoms: N3_18  and  C9_20 
REMARK    6  A    between atoms: C11_22  and  O6_24 
REMARK    7  A    between atoms: C13_27  and  O8_28 
REMARK    8  A    between atoms: C14_30  and  O9_31 
ROOT
HETATM    1  C7  UNL     1       1.154  22.160   3.095  1.00  0.00     0.314 C 
HETATM    2  O4  UNL     1       0.733  22.185   4.305  1.00  0.00    -0.262 OA
HETATM    3  N1  UNL     1       2.532  22.252   2.878  1.00  0.00    -0.259 N 
ATOM      4  H1  UNL     1       2.811  23.192   2.595  1.00  0.00     0.190 HD
HETATM    5  N2  UNL     1       3.464  21.511   2.940  1.00  0.00    -0.249 N 
ATOM      6  H2  UNL     1       4.356  21.945   2.702  1.00  0.00     0.192 HD
HETATM    7  C8  UNL     1       3.561  20.155   3.277  1.00  0.00     0.335 C 
HETATM    8  O5  UNL     1       4.737  19.624   3.426  1.00  0.00    -0.246 OA
HETATM    9  N3  UNL     1       2.498  19.254   3.482  1.00  0.00    -0.334 N 
ATOM     10  H3  UNL     1       1.539  19.588   3.385  1.00  0.00     0.164 HD
ENDROOT
BRANCH   9  11
HETATM   11  C9  UNL     1       2.728  17.891   3.822  1.00  0.00     0.124 C 
HETATM   12  C10 UNL     1       1.583  17.337   4.679  1.00  0.00     0.096 C 
HETATM   13  C11 UNL     1       2.125  16.061   5.296  1.00  0.00     0.163 C 
HETATM   14  C12 UNL     1       1.120  15.383   6.171  1.00  0.00     0.079 C 
HETATM   15  O7  UNL     1       2.641  15.247   4.317  1.00  0.00    -0.323 OA
HETATM   16  C13 UNL     1       2.329  15.619   3.032  1.00  0.00     0.291 C 
HETATM   17  C14 UNL     1       2.860  16.980   2.644  1.00  0.00     0.196 C 
BRANCH  13  18
HETATM   18  O6  UNL     1       3.192  16.456   6.130  1.00  0.00    -0.365 OA
ATOM     19  H6  UNL     1       3.987  16.256   5.649  1.00  0.00     0.213 HD
ENDBRANCH  13  18
BRANCH  16  20
HETATM   20  O8  UNL     1       2.912  14.699   2.162  1.00  0.00    -0.368 OA
ATOM     21  H8  UNL     1       2.796  15.018   1.275  1.00  0.00     0.212 HD
ENDBRANCH  16  20
BRANCH  17  22
HETATM   22  O9  UNL     1       4.169  16.929   2.176  1.00  0.00    -0.389 OA
ATOM     23  H9  UNL     1       4.209  16.638   1.273  1.00  0.00     0.210 HD
ENDBRANCH  17  22
ENDBRANCH   9  11
BRANCH   1  24
HETATM   24  C6  UNL     1       0.219  22.040   1.995  1.00  0.00     0.289 C 
HETATM   25  O3  UNL     1      -0.634  22.930   1.818  1.00  0.00    -0.278 OA
BRANCH  24  26
HETATM   26  C5  UNL     1       0.274  20.903   1.112  1.00  0.00     0.238 C 
HETATM   27  O2  UNL     1      -0.589  19.980   1.288  1.00  0.00    -0.285 OA
BRANCH  26  28
HETATM   28  C2  UNL     1       1.247  20.733   0.029  1.00  0.00     0.121 C 
HETATM   29  C3  UNL     1       1.775  19.341  -0.117  1.00  0.00     0.055 C 
HETATM   30  C4  UNL     1       0.434  20.982  -1.273  1.00  0.00     0.055 C 
BRANCH  28  31
HETATM   31  O1  UNL     1       2.193  21.709   0.035  1.00  0.00    -0.378 OA
HETATM   32  C1  UNL     1       2.018  22.795  -0.759  1.00  0.00     0.203 C 
ENDBRANCH  28  31
ENDBRANCH  26  28
ENDBRANCH  24  26
ENDBRANCH   1  24
TORSDOF 8
ENDMDL
MODEL 3
REMARK VINA RESULT: -6.902196824      1.086      1.478
REMARK  8 active torsions:
REMARK  status: ('A' for Active; 'I' for Inactive)
REMARK    1  A    between atoms: O1_2  and  C2_3 
REMARK    2  A    between atoms: C2_3  and  C5_6 
REMARK    3  A    between atoms: C5_6  and  C6_8 
REMARK    4  A    between atoms: C6_8  and  C7_10 
REMARK       I    between atoms: C7_10  and  N1_12 
REMARK       I    between atoms: N2_14  and  C8_16 
REMARK       I    between atoms: C8_16  and  N3_18 
REMARK    5  A    between atoms: N3_18  and  C9_20 
REMARK    6  A    between atoms: C11_22  and  O6_24 
REMARK    7  A    between atoms: C13_27  and  O8_28 
REMARK    8  A    between atoms: C14_30  and  O9_31 
ROOT
HETATM    1  C7  UNL     1       1.155  22.122   3.004  1.00  0.00     0.314 C 
HETATM    2  O4  UNL     1       0.730  22.170   4.212  1.00  0.00    -0.262 OA
HETATM    3  N1  UNL     1       2.532  22.220   2.788  1.00  0.00    -0.259 N 
ATOM      4  H1  UNL     1       2.805  23.156   2.486  1.00  0.00     0.190 HD
HETATM    5  N2  UNL     1       3.471  21.488   2.868  1.00  0.00    -0.249 N 
ATOM      6  H2  UNL     1       4.359  21.924   2.623  1.00  0.00     0.192 HD
HETATM    7  C8  UNL     1       3.578  20.140   3.234  1.00  0.00     0.335 C 
HETATM    8  O5  UNL     1       4.758  19.622   3.397  1.00  0.00    -0.246 OA
HETATM    9  N3  UNL     1       2.521  19.236   3.457  1.00  0.00    -0.334 N 
ATOM     10  H3  UNL     1       1.560  19.560   3.350  1.00  0.00     0.164 HD
ENDROOT
BRANCH   9  11
HETATM   11  C9  UNL     1       2.761  17.882   3.827  1.00  0.00     0.124 C 
HETATM   12  C10 UNL     1       1.624  17.340   4.702  1.00  0.00     0.096 C 
HETATM   13  C11 UNL     1       2.177  16.082   5.345  1.00  0.00     0.163 C 
HETATM   14  C12 UNL     1       1.181  15.419   6.240  1.00  0.00     0.079 C 
HETATM   15  O7  UNL     1       2.694  15.249   4.382  1.00  0.00    -0.323 OA
HETATM   16  C13 UNL     1       2.373  15.590   3.091  1.00  0.00     0.291 C 
HETATM   17  C14 UNL     1       2.894  16.945   2.669  1.00  0.00     0.196 C 
BRANCH  13  18
HETATM   18  O6  UNL     1       3.245  16.503   6.164  1.00  0.00    -0.365 OA
ATOM     19  H6  UNL     1       4.026  16.100   5.803  1.00  0.00     0.213 HD
ENDBRANCH  13  18
BRANCH  16  20
HETATM   20  O8  UNL     1       2.957  14.654   2.239  1.00  0.00    -0.368 OA
ATOM     21  H8  UNL     1       3.153  15.086   1.416  1.00  0.00     0.212 HD
ENDBRANCH  16  20
BRANCH  17  22
HETATM   22  O9  UNL     1       4.201  16.892   2.196  1.00  0.00    -0.389 OA
ATOM     23  H9  UNL     1       4.252  17.127   1.277  1.00  0.00     0.210 HD
ENDBRANCH  17  22
ENDBRANCH   9  11
BRANCH   1  24
HETATM   24  C6  UNL     1       0.224  21.970   1.905  1.00  0.00     0.289 C 
HETATM   25  O3  UNL     1      -0.915  22.467   1.996  1.00  0.00    -0.278 OA
BRANCH  24  26
HETATM   26  C5  UNL     1       0.608  21.253   0.717  1.00  0.00     0.238 C 
HETATM   27  O2  UNL     1       1.218  21.906  -0.193  1.00  0.00    -0.285 OA
BRANCH  26  28
HETATM   28  C2  UNL     1       0.349  19.829   0.480  1.00  0.00     0.121 C 
HETATM   29  C3  UNL     1      -0.672  19.552  -0.577  1.00  0.00     0.055 C 
HETATM   30  C4  UNL     1       1.680  19.279  -0.107  1.00  0.00     0.055 C 
BRANCH  28  31
HETATM   31  O1  UNL     1       0.175  19.142   1.641  1.00  0.00    -0.378 OA
HETATM   32  C1  UNL     1      -0.577  18.013   1.626  1.00  0.00     0.203 C 
ENDBRANCH  28  31
ENDBRANCH  26  28
ENDBRANCH  24  26
ENDBRANCH   1  24
TORSDOF 8
ENDMDL
MODEL 4
REMARK VINA RESULT: -6.849884536      0.870      1.471
REMARK  8 active torsions:
REMARK  status: ('A' for Active; 'I' for Inactive)
REMARK    1  A    between atoms: O1_2  and  C2_3 
REMARK    2  A    between atoms: C2_3  and  C5_6 
REMARK    3  A    between atoms: C5_6  and  C6_8 
REMARK    4  A    between atoms: C6_8  and  C7_10 
REMARK       I    between atoms: C7_10  and  N1_12 
REMARK       I    between atoms: N2_14  and  C8_16 
REMARK       I    between atoms: C8_16  and  N3_18 
REMARK    5  A    between atoms: N3_18  and  C9_20 
REMARK    6  A    between atoms: C11_22  and  O6_24 
REMARK    7  A    between atoms: C13_27  and  O8_28 
REMARK    8  A    between atoms: C14_30  and  O9_31 
ROOT
HETATM    1  C7  UNL     1       1.150  22.154   3.077  1.00  0.00     0.314 C 
HETATM    2  O4  UNL     1       0.748  22.196   4.294  1.00  0.00    -0.262 OA
HETATM    3  N1  UNL     1       2.524  22.248   2.837  1.00  0.00    -0.259 N 
ATOM      4  H1  UNL     1       2.795  23.185   2.536  1.00  0.00     0.190 HD
HETATM    5  N2  UNL     1       3.460  21.511   2.894  1.00  0.00    -0.249 N 
ATOM      6  H2  UNL     1       4.347  21.945   2.636  1.00  0.00     0.192 HD
HETATM    7  C8  UNL     1       3.568  20.161   3.250  1.00  0.00     0.335 C 
HETATM    8  O5  UNL     1       4.749  19.637   3.388  1.00  0.00    -0.246 OA
HETATM    9  N3  UNL     1       2.512  19.260   3.486  1.00  0.00    -0.334 N 
ATOM     10  H3  UNL     1       1.550  19.588   3.400  1.00  0.00     0.164 HD
ENDROOT
BRANCH   9  11
HETATM   11  C9  UNL     1       2.753  17.902   3.843  1.00  0.00     0.124 C 
HETATM   12  C10 UNL     1       1.623  17.356   4.724  1.00  0.00     0.096 C 
HETATM   13  C11 UNL     1       2.179  16.091   5.351  1.00  0.00     0.163 C 
HETATM   14  C12 UNL     1       1.190  15.422   6.250  1.00  0.00     0.079 C 
HETATM   15  O7  UNL     1       2.686  15.265   4.378  1.00  0.00    -0.323 OA
HETATM   16  C13 UNL     1       2.354  15.617   3.092  1.00  0.00     0.291 C 
HETATM   17  C14 UNL     1       2.874  16.975   2.677  1.00  0.00     0.196 C 
BRANCH  13  18
HETATM   18  O6  UNL     1       3.256  16.504   6.165  1.00  0.00    -0.365 OA
ATOM     19  H6  UNL     1       3.949  16.762   5.568  1.00  0.00     0.213 HD
ENDBRANCH  13  18
BRANCH  16  20
HETATM   20  O8  UNL     1       2.929  14.687   2.227  1.00  0.00    -0.368 OA
ATOM     21  H8  UNL     1       2.407  14.659   1.435  1.00  0.00     0.212 HD
ENDBRANCH  16  20
BRANCH  17  22
HETATM   22  O9  UNL     1       4.176  16.923   2.191  1.00  0.00    -0.389 OA
ATOM     23  H9  UNL     1       4.234  16.414   1.392  1.00  0.00     0.210 HD
ENDBRANCH  17  22
ENDBRANCH   9  11
BRANCH   1  24
HETATM   24  C6  UNL     1       0.199  22.014   1.995  1.00  0.00     0.289 C 
HETATM   25  O3  UNL     1      -0.687  22.877   1.844  1.00  0.00    -0.278 OA
BRANCH  24  26
HETATM   26  C5  UNL     1       0.273  20.888   1.099  1.00  0.00     0.238 C 
HETATM   27  O2  UNL     1      -0.025  19.741   1.570  1.00  0.00    -0.285 OA
BRANCH  26  28
HETATM   28  C2  UNL     1       0.666  20.968  -0.312  1.00  0.00     0.121 C 
HETATM   29  C3  UNL     1       1.632  22.065  -0.625  1.00  0.00     0.055 C 
HETATM   30  C4  UNL     1       1.462  19.658  -0.573  1.00  0.00     0.055 C 
BRANCH  28  31
HETATM   31  O1  UNL     1      -0.406  20.890  -1.144  1.00  0.00    -0.378 OA
HETATM   32  C1  UNL     1      -0.202  20.557  -2.444  1.00  0.00     0.203 C 
ENDBRANCH  28  31
ENDBRANCH  26  28
ENDBRANCH  24  26
ENDBRANCH   1  24
TORSDOF 8
ENDMDL
MODEL 5
REMARK VINA RESULT: -6.664814428      1.550      2.490
REMARK  8 active torsions:
REMARK  status: ('A' for Active; 'I' for Inactive)
REMARK    1  A    between atoms: O1_2  and  C2_3 
REMARK    2  A    between atoms: C2_3  and  C5_6 
REMARK    3  A    between atoms: C5_6  and  C6_8 
REMARK    4  A    between atoms: C6_8  and  C7_10 
REMARK       I    between atoms: C7_10  and  N1_12 
REMARK       I    between atoms: N2_14  and  C8_16 
REMARK       I    between atoms: C8_16  and  N3_18 
REMARK    5  A    between atoms: N3_18  and  C9_20 
REMARK    6  A    between atoms: C11_22  and  O6_24 
REMARK    7  A    between atoms: C13_27  and  O8_28 
REMARK    8  A    between atoms: C14_30  and  O9_31 
ROOT
HETATM    1  C7  UNL     1       1.482  21.409   1.127  1.00  0.00     0.314 C 
HETATM    2  O4  UNL     1       0.454  21.450   1.892  1.00  0.00    -0.262 OA
HETATM    3  N1  UNL     1       2.704  21.843   1.647  1.00  0.00    -0.259 N 
ATOM      4  H1  UNL     1       2.936  22.788   1.337  1.00  0.00     0.190 HD
HETATM    5  N2  UNL     1       3.546  21.390   2.361  1.00  0.00    -0.249 N 
ATOM      6  H2  UNL     1       4.331  22.019   2.528  1.00  0.00     0.192 HD
HETATM    7  C8  UNL     1       3.656  20.154   3.010  1.00  0.00     0.335 C 
HETATM    8  O5  UNL     1       4.611  19.977   3.873  1.00  0.00    -0.246 OA
HETATM    9  N3  UNL     1       2.827  19.029   2.838  1.00  0.00    -0.334 N 
ATOM     10  H3  UNL     1       2.050  19.081   2.178  1.00  0.00     0.164 HD
ENDROOT
BRANCH   9  11
HETATM   11  C9  UNL     1       3.044  17.822   3.562  1.00  0.00     0.124 C 
HETATM   12  C10 UNL     1       1.804  17.438   4.378  1.00  0.00     0.096 C 
HETATM   13  C11 UNL     1       2.287  16.409   5.383  1.00  0.00     0.163 C 
HETATM   14  C12 UNL     1       1.187  15.921   6.268  1.00  0.00     0.079 C 
HETATM   15  O7  UNL     1       2.963  15.402   4.737  1.00  0.00    -0.323 OA
HETATM   16  C13 UNL     1       2.829  15.400   3.370  1.00  0.00     0.291 C 
HETATM   17  C14 UNL     1       3.372  16.643   2.702  1.00  0.00     0.196 C 
BRANCH  13  18
HETATM   18  O6  UNL     1       3.210  17.081   6.211  1.00  0.00    -0.365 OA
ATOM     19  H6  UNL     1       4.072  16.805   5.919  1.00  0.00     0.213 HD
ENDBRANCH  13  18
BRANCH  16  20
HETATM   20  O8  UNL     1       3.558  14.324   2.866  1.00  0.00    -0.368 OA
ATOM     21  H8  UNL     1       3.267  14.162   1.976  1.00  0.00     0.212 HD
ENDBRANCH  16  20
BRANCH  17  22
HETATM   22  O9  UNL     1       4.735  16.558   2.441  1.00  0.00    -0.389 OA
ATOM     23  H9  UNL     1       5.184  17.370   2.643  1.00  0.00     0.210 HD
ENDBRANCH  17  22
ENDBRANCH   9  11
BRANCH   1  24
HETATM   24  C6  UNL     1       1.365  20.925  -0.233  1.00  0.00     0.289 C 
HETATM   25  O3  UNL     1       1.394  21.738  -1.177  1.00  0.00    -0.278 OA
BRANCH  24  26
HETATM   26  C5  UNL     1       1.215  19.516  -0.496  1.00  0.00     0.238 C 
HETATM   27  O2  UNL     1       2.170  18.747  -0.142  1.00  0.00    -0.285 OA
BRANCH  26  28
HETATM   28  C2  UNL     1       0.047  18.905  -1.139  1.00  0.00     0.121 C 
HETATM   29  C3  UNL     1      -0.044  19.143  -2.612  1.00  0.00     0.055 C 
HETATM   30  C4  UNL     1       0.279  17.374  -1.002  1.00  0.00     0.055 C 
BRANCH  28  31
HETATM   31  O1  UNL     1      -1.098  19.143  -0.446  1.00  0.00    -0.378 OA
HETATM   32  C1  UNL     1      -1.304  18.483   0.722  1.00  0.00     0.203 C 
ENDBRANCH  28  31
ENDBRANCH  26  28
ENDBRANCH  24  26
ENDBRANCH   1  24
TORSDOF 8
ENDMDL
