MODEL 1
REMARK VINA RESULT: -5.860503216      0.000      0.000
REMARK  7 active torsions:
REMARK  status: ('A' for Active; 'I' for Inactive)
REMARK       I    between atoms: C2_2  and  N1_4 
REMARK    1  A    between atoms: N1_4  and  C3_6 
REMARK    2  A    between atoms: C5_9  and  S1_10 
REMARK    3  A    between atoms: S1_10  and  S2_11 
REMARK    4  A    between atoms: S2_11  and  C6_12 
REMARK    5  A    between atoms: C9_18  and  O3_19 
REMARK    6  A    between atoms: C10_22  and  N3_23 
REMARK       I    between atoms: N3_23  and  C11_25 
REMARK    7  A    between atoms: C13_28  and  O6_29 
ROOT
HETATM    1  C3  UNL     1      -1.240  17.074   4.985  1.00  0.00     0.139 C 
HETATM    2  C4  UNL     1      -0.006  17.264   5.794  1.00  0.00     0.197 C 
HETATM    3  O2  UNL     1       1.163  16.967   5.153  1.00  0.00    -0.370 OA
HETATM    4  C5  UNL     1       1.179  15.796   4.421  1.00  0.00     0.219 C 
HETATM    5  C10 UNL     1       0.190  15.928   3.295  1.00  0.00     0.155 C 
HETATM    6  C13 UNL     1      -1.182  15.963   4.001  1.00  0.00     0.169 C 
ENDROOT
BRANCH   4   7
HETATM    7  S1  UNL     1       2.839  15.617   3.724  1.00  0.00    -0.061 SA
BRANCH   7   8
HETATM    8  S2  UNL     1       3.038  16.991   2.116  1.00  0.00    -0.061 SA
BRANCH   8   9
HETATM    9  C6  UNL     1       3.071  18.654   2.790  1.00  0.00     0.222 C 
HETATM   10  C7  UNL     1       1.701  19.272   2.600  1.00  0.00     0.276 C 
HETATM   11  N2  UNL     1       1.663  20.458   3.429  1.00  0.00    -0.067 N 
HETATM   12  C8  UNL     1       2.730  21.341   3.048  1.00  0.00     0.292 C 
ATOM     13  H22 UNL     1       0.753  20.918   3.403  1.00  0.00     0.277 HD
ATOM     14  H21 UNL     1       1.684  20.234   4.424  1.00  0.00     0.277 HD
HETATM   15  C9  UNL     1       4.064  20.651   2.923  1.00  0.00     0.284 C 
HETATM   16  O4  UNL     1       3.981  19.482   2.154  1.00  0.00    -0.342 OA
BRANCH  15  17
HETATM   17  O3  UNL     1       4.575  20.275   4.167  1.00  0.00    -0.369 OA
ATOM     18  H3  UNL     1       4.113  20.696   4.882  1.00  0.00     0.212 HD
ENDBRANCH  15  17
ENDBRANCH   8   9
ENDBRANCH   7   8
ENDBRANCH   4   7
BRANCH   5  19
HETATM   19  N3  UNL     1       0.258  14.723   2.493  1.00  0.00    -0.351 N 
HETATM   20  C11 UNL     1       0.052  14.789   1.104  1.00  0.00     0.214 C 
HETATM   21  C12 UNL     1       0.128  13.544   0.280  1.00  0.00     0.117 C 
HETATM   22  O5  UNL     1      -0.195  15.885   0.548  1.00  0.00    -0.274 OA
ATOM     23  H3  UNL     1       0.454  13.826   2.937  1.00  0.00     0.163 HD
ENDBRANCH   5  19
BRANCH   6  24
HETATM   24  O6  UNL     1      -1.234  14.747   4.720  1.00  0.00    -0.391 OA
ATOM     25  H6  UNL     1      -0.636  14.139   4.304  1.00  0.00     0.210 HD
ENDBRANCH   6  24
BRANCH   1  26
HETATM   26  N1  UNL     1      -2.322  16.748   5.928  1.00  0.00    -0.352 N 
HETATM   27  C2  UNL     1      -3.534  17.463   5.944  1.00  0.00     0.214 C 
HETATM   28  C1  UNL     1      -4.571  17.072   6.926  1.00  0.00     0.117 C 
HETATM   29  O1  UNL     1      -3.691  18.414   5.116  1.00  0.00    -0.274 OA
ATOM     30  H1  UNL     1      -2.190  15.983   6.590  1.00  0.00     0.163 HD
ENDBRANCH   1  26
TORSDOF 7
ENDMDL
MODEL 2
REMARK VINA RESULT: -5.680507563      2.144      5.540
REMARK  7 active torsions:
REMARK  status: ('A' for Active; 'I' for Inactive)
REMARK       I    between atoms: C2_2  and  N1_4 
REMARK    1  A    between atoms: N1_4  and  C3_6 
REMARK    2  A    between atoms: C5_9  and  S1_10 
REMARK    3  A    between atoms: S1_10  and  S2_11 
REMARK    4  A    between atoms: S2_11  and  C6_12 
REMARK    5  A    between atoms: C9_18  and  O3_19 
REMARK    6  A    between atoms: C10_22  and  N3_23 
REMARK       I    between atoms: N3_23  and  C11_25 
REMARK    7  A    between atoms: C13_28  and  O6_29 
ROOT
HETATM    1  C3  UNL     1       2.892  21.253   2.495  1.00  0.00     0.139 C 
HETATM    2  C4  UNL     1       3.980  20.623   3.291  1.00  0.00     0.197 C 
HETATM    3  O2  UNL     1       4.229  19.312   3.003  1.00  0.00    -0.370 OA
HETATM    4  C5  UNL     1       3.125  18.495   2.867  1.00  0.00     0.219 C 
HETATM    5  C10 UNL     1       2.330  18.965   1.681  1.00  0.00     0.155 C 
HETATM    6  C13 UNL     1       1.783  20.341   2.115  1.00  0.00     0.169 C 
ENDROOT
BRANCH   4   7
HETATM    7  S1  UNL     1       3.728  16.820   2.541  1.00  0.00    -0.061 SA
BRANCH   7   8
HETATM    8  S2  UNL     1       2.894  15.517   3.998  1.00  0.00    -0.061 SA
BRANCH   8   9
HETATM    9  C6  UNL     1       1.257  16.116   4.424  1.00  0.00     0.222 C 
HETATM   10  C7  UNL     1       0.857  15.505   5.751  1.00  0.00     0.276 C 
HETATM   11  N2  UNL     1      -0.295  16.246   6.218  1.00  0.00    -0.067 N 
HETATM   12  C8  UNL     1      -1.340  16.172   5.234  1.00  0.00     0.292 C 
ATOM     13  H22 UNL     1      -0.608  15.934   7.138  1.00  0.00     0.277 HD
ATOM     14  H21 UNL     1      -0.063  17.209   6.463  1.00  0.00     0.277 HD
HETATM   15  C9  UNL     1      -0.869  16.473   3.835  1.00  0.00     0.284 C 
HETATM   16  O4  UNL     1       0.287  15.753   3.503  1.00  0.00    -0.342 OA
BRANCH  15  17
HETATM   17  O3  UNL     1      -0.559  17.825   3.670  1.00  0.00    -0.369 OA
ATOM     18  H3  UNL     1       0.021  18.142   4.352  1.00  0.00     0.212 HD
ENDBRANCH  15  17
ENDBRANCH   8   9
ENDBRANCH   7   8
ENDBRANCH   4   7
BRANCH   5  19
HETATM   19  N3  UNL     1       1.208  18.066   1.504  1.00  0.00    -0.351 N 
HETATM   20  C11 UNL     1       0.904  17.560   0.228  1.00  0.00     0.214 C 
HETATM   21  C12 UNL     1      -0.252  16.628   0.053  1.00  0.00     0.117 C 
HETATM   22  O5  UNL     1       1.594  17.884  -0.767  1.00  0.00    -0.274 OA
ATOM     23  H3  UNL     1       0.637  17.799   2.307  1.00  0.00     0.163 HD
ENDBRANCH   5  19
BRANCH   6  24
HETATM   24  O6  UNL     1       1.034  20.065   3.281  1.00  0.00    -0.391 OA
ATOM     25  H6  UNL     1       0.478  19.317   3.098  1.00  0.00     0.210 HD
ENDBRANCH   6  24
BRANCH   1  26
HETATM   26  N1  UNL     1       2.305  22.308   3.338  1.00  0.00    -0.352 N 
HETATM   27  C2  UNL     1       1.403  23.255   2.819  1.00  0.00     0.214 C 
HETATM   28  C1  UNL     1       0.858  24.284   3.734  1.00  0.00     0.117 C 
HETATM   29  O1  UNL     1       1.092  23.191   1.589  1.00  0.00    -0.274 OA
ATOM     30  H1  UNL     1       2.558  22.353   4.325  1.00  0.00     0.163 HD
ENDBRANCH   1  26
TORSDOF 7
ENDMDL
MODEL 3
REMARK VINA RESULT: -5.536081301      3.744      7.530
REMARK  7 active torsions:
REMARK  status: ('A' for Active; 'I' for Inactive)
REMARK       I    between atoms: C2_2  and  N1_4 
REMARK    1  A    between atoms: N1_4  and  C3_6 
REMARK    2  A    between atoms: C5_9  and  S1_10 
REMARK    3  A    between atoms: S1_10  and  S2_11 
REMARK    4  A    between atoms: S2_11  and  C6_12 
REMARK    5  A    between atoms: C9_18  and  O3_19 
REMARK    6  A    between atoms: C10_22  and  N3_23 
REMARK       I    between atoms: N3_23  and  C11_25 
REMARK    7  A    between atoms: C13_28  and  O6_29 
ROOT
HETATM    1  C3  UNL     1       1.268  23.362  -0.031  1.00  0.00     0.139 C 
HETATM    2  C4  UNL     1      -0.099  23.211   0.539  1.00  0.00     0.197 C 
HETATM    3  O2  UNL     1      -0.187  22.402   1.635  1.00  0.00    -0.370 OA
HETATM    4  C5  UNL     1       0.499  21.206   1.570  1.00  0.00     0.219 C 
HETATM    5  C10 UNL     1       1.970  21.508   1.480  1.00  0.00     0.155 C 
HETATM    6  C13 UNL     1       2.135  22.163   0.092  1.00  0.00     0.169 C 
ENDROOT
BRANCH   4   7
HETATM    7  S1  UNL     1       0.178  20.313   3.111  1.00  0.00    -0.061 SA
BRANCH   7   8
HETATM    8  S2  UNL     1      -0.028  18.249   2.653  1.00  0.00    -0.061 SA
BRANCH   8   9
HETATM    9  C6  UNL     1       1.245  17.342   3.536  1.00  0.00     0.222 C 
HETATM   10  C7  UNL     1       1.240  15.910   3.042  1.00  0.00     0.276 C 
HETATM   11  N2  UNL     1       2.463  15.303   3.518  1.00  0.00    -0.067 N 
HETATM   12  C8  UNL     1       2.516  15.396   4.951  1.00  0.00     0.292 C 
ATOM     13  H22 UNL     1       2.572  14.343   3.190  1.00  0.00     0.277 HD
ATOM     14  H21 UNL     1       3.291  15.702   3.075  1.00  0.00     0.277 HD
HETATM   15  C9  UNL     1       2.201  16.774   5.474  1.00  0.00     0.284 C 
HETATM   16  O4  UNL     1       1.033  17.298   4.905  1.00  0.00    -0.342 OA
BRANCH  15  17
HETATM   17  O3  UNL     1       3.225  17.683   5.195  1.00  0.00    -0.369 OA
ATOM     18  H3  UNL     1       2.947  18.352   4.581  1.00  0.00     0.212 HD
ENDBRANCH  15  17
ENDBRANCH   8   9
ENDBRANCH   7   8
ENDBRANCH   4   7
BRANCH   5  19
HETATM   19  N3  UNL     1       2.689  20.250   1.476  1.00  0.00    -0.351 N 
HETATM   20  C11 UNL     1       3.797  20.069   2.323  1.00  0.00     0.214 C 
HETATM   21  C12 UNL     1       4.531  18.767   2.319  1.00  0.00     0.117 C 
HETATM   22  O5  UNL     1       4.175  20.991   3.083  1.00  0.00    -0.274 OA
ATOM     23  H3  UNL     1       2.391  19.494   0.859  1.00  0.00     0.163 HD
ENDBRANCH   5  19
BRANCH   6  24
HETATM   24  O6  UNL     1       1.656  21.189  -0.812  1.00  0.00    -0.391 OA
ATOM     25  H6  UNL     1       2.349  20.555  -0.949  1.00  0.00     0.210 HD
ENDBRANCH   6  24
BRANCH   1  26
HETATM   26  N1  UNL     1       1.102  23.619  -1.471  1.00  0.00    -0.352 N 
HETATM   27  C2  UNL     1       1.856  24.599  -2.142  1.00  0.00     0.214 C 
HETATM   28  C1  UNL     1       1.627  24.795  -3.592  1.00  0.00     0.117 C 
HETATM   29  O1  UNL     1       2.702  25.276  -1.478  1.00  0.00    -0.274 OA
ATOM     30  H1  UNL     1       0.421  23.071  -1.998  1.00  0.00     0.163 HD
ENDBRANCH   1  26
TORSDOF 7
ENDMDL
MODEL 4
REMARK VINA RESULT: -5.527952451      3.198      4.924
REMARK  7 active torsions:
REMARK  status: ('A' for Active; 'I' for Inactive)
REMARK       I    between atoms: C2_2  and  N1_4 
REMARK    1  A    between atoms: N1_4  and  C3_6 
REMARK    2  A    between atoms: C5_9  and  S1_10 
REMARK    3  A    between atoms: S1_10  and  S2_11 
REMARK    4  A    between atoms: S2_11  and  C6_12 
REMARK    5  A    between atoms: C9_18  and  O3_19 
REMARK    6  A    between atoms: C10_22  and  N3_23 
REMARK       I    between atoms: N3_23  and  C11_25 
REMARK    7  A    between atoms: C13_28  and  O6_29 
ROOT
HETATM    1  C3  UNL     1       1.076  16.284   0.925  1.00  0.00     0.139 C 
HETATM    2  C4  UNL     1       1.747  17.480   0.348  1.00  0.00     0.197 C 
HETATM    3  O2  UNL     1       2.745  18.015   1.112  1.00  0.00    -0.370 OA
HETATM    4  C5  UNL     1       2.477  18.152   2.459  1.00  0.00     0.219 C 
HETATM    5  C10 UNL     1       2.288  16.780   3.046  1.00  0.00     0.155 C 
HETATM    6  C13 UNL     1       0.978  16.274   2.408  1.00  0.00     0.169 C 
ENDROOT
BRANCH   4   7
HETATM    7  S1  UNL     1       3.926  18.922   3.223  1.00  0.00    -0.061 SA
BRANCH   7   8
HETATM    8  S2  UNL     1       3.788  21.024   2.942  1.00  0.00    -0.061 SA
BRANCH   8   9
HETATM    9  C6  UNL     1       2.065  21.504   3.089  1.00  0.00     0.222 C 
HETATM   10  C7  UNL     1       1.487  21.637   1.695  1.00  0.00     0.276 C 
HETATM   11  N2  UNL     1       0.049  21.699   1.847  1.00  0.00    -0.067 N 
HETATM   12  C8  UNL     1      -0.293  22.804   2.699  1.00  0.00     0.292 C 
ATOM     13  H22 UNL     1      -0.433  21.740   0.949  1.00  0.00     0.277 HD
ATOM     14  H21 UNL     1      -0.342  20.818   2.181  1.00  0.00     0.277 HD
HETATM   15  C9  UNL     1       0.519  22.858   3.967  1.00  0.00     0.284 C 
HETATM   16  O4  UNL     1       1.892  22.727   3.717  1.00  0.00    -0.342 OA
BRANCH  15  17
HETATM   17  O3  UNL     1       0.174  21.833   4.851  1.00  0.00    -0.369 OA
ATOM     18  H3  UNL     1       0.893  21.606   5.429  1.00  0.00     0.212 HD
ENDBRANCH  15  17
ENDBRANCH   8   9
ENDBRANCH   7   8
ENDBRANCH   4   7
BRANCH   5  19
HETATM   19  N3  UNL     1       2.072  16.927   4.472  1.00  0.00    -0.351 N 
HETATM   20  C11 UNL     1       2.577  15.964   5.364  1.00  0.00     0.214 C 
HETATM   21  C12 UNL     1       2.355  16.123   6.834  1.00  0.00     0.117 C 
HETATM   22  O5  UNL     1       3.213  14.972   4.937  1.00  0.00    -0.274 OA
ATOM     23  H3  UNL     1       1.552  17.728   4.829  1.00  0.00     0.163 HD
ENDBRANCH   5  19
BRANCH   6  24
HETATM   24  O6  UNL     1       0.014  17.236   2.782  1.00  0.00    -0.391 OA
ATOM     25  H6  UNL     1      -0.817  16.788   2.888  1.00  0.00     0.210 HD
ENDBRANCH   6  24
BRANCH   1  26
HETATM   26  N1  UNL     1      -0.303  16.279   0.410  1.00  0.00    -0.352 N 
HETATM   27  C2  UNL     1      -0.754  15.298  -0.493  1.00  0.00     0.214 C 
HETATM   28  C1  UNL     1      -2.156  15.366  -0.964  1.00  0.00     0.117 C 
HETATM   29  O1  UNL     1       0.058  14.395  -0.866  1.00  0.00    -0.274 OA
ATOM     30  H1  UNL     1      -0.949  17.007   0.714  1.00  0.00     0.163 HD
ENDBRANCH   1  26
TORSDOF 7
ENDMDL
MODEL 5
REMARK VINA RESULT: -5.503128866      3.801      7.409
REMARK  7 active torsions:
REMARK  status: ('A' for Active; 'I' for Inactive)
REMARK       I    between atoms: C2_2  and  N1_4 
REMARK    1  A    between atoms: N1_4  and  C3_6 
REMARK    2  A    between atoms: C5_9  and  S1_10 
REMARK    3  A    between atoms: S1_10  and  S2_11 
REMARK    4  A    between atoms: S2_11  and  C6_12 
REMARK    5  A    between atoms: C9_18  and  O3_19 
REMARK    6  A    between atoms: C10_22  and  N3_23 
REMARK       I    between atoms: N3_23  and  C11_25 
REMARK    7  A    between atoms: C13_28  and  O6_29 
ROOT
HETATM    1  C3  UNL     1       0.571  21.318  -0.507  1.00  0.00     0.139 C 
HETATM    2  C4  UNL     1       1.570  20.215  -0.484  1.00  0.00     0.197 C 
HETATM    3  O2  UNL     1       2.142  19.971   0.731  1.00  0.00    -0.370 OA
HETATM    4  C5  UNL     1       2.553  21.078   1.447  1.00  0.00     0.219 C 
HETATM    5  C10 UNL     1       1.340  21.895   1.794  1.00  0.00     0.155 C 
HETATM    6  C13 UNL     1       0.847  22.434   0.434  1.00  0.00     0.169 C 
ENDROOT
BRANCH   4   7
HETATM    7  S1  UNL     1       3.313  20.480   2.977  1.00  0.00    -0.061 SA
BRANCH   7   8
HETATM    8  S2  UNL     1       3.964  18.482   2.661  1.00  0.00    -0.061 SA
BRANCH   8   9
HETATM    9  C6  UNL     1       3.002  17.398   3.721  1.00  0.00     0.222 C 
HETATM   10  C7  UNL     1       1.566  17.880   3.718  1.00  0.00     0.276 C 
HETATM   11  N2  UNL     1       0.772  16.820   4.299  1.00  0.00    -0.067 N 
HETATM   12  C8  UNL     1       1.258  16.528   5.619  1.00  0.00     0.292 C 
ATOM     13  H22 UNL     1      -0.225  17.037   4.294  1.00  0.00     0.277 HD
ATOM     14  H21 UNL     1       0.743  15.990   3.706  1.00  0.00     0.277 HD
HETATM   15  C9  UNL     1       2.754  16.360   5.683  1.00  0.00     0.284 C 
HETATM   16  O4  UNL     1       3.429  17.406   5.039  1.00  0.00    -0.342 OA
BRANCH  15  17
HETATM   17  O3  UNL     1       3.172  15.177   5.071  1.00  0.00    -0.369 OA
ATOM     18  H3  UNL     1       2.587  14.914   4.370  1.00  0.00     0.212 HD
ENDBRANCH  15  17
ENDBRANCH   8   9
ENDBRANCH   7   8
ENDBRANCH   4   7
BRANCH   5  19
HETATM   19  N3  UNL     1       1.769  23.020   2.599  1.00  0.00    -0.351 N 
HETATM   20  C11 UNL     1       0.909  23.560   3.572  1.00  0.00     0.214 C 
HETATM   21  C12 UNL     1       1.360  24.717   4.405  1.00  0.00     0.117 C 
HETATM   22  O5  UNL     1      -0.235  23.078   3.749  1.00  0.00    -0.274 OA
ATOM     23  H3  UNL     1       2.696  23.422   2.461  1.00  0.00     0.163 HD
ENDBRANCH   5  19
BRANCH   6  24
HETATM   24  O6  UNL     1       1.949  23.161  -0.071  1.00  0.00    -0.391 OA
ATOM     25  H6  UNL     1       2.732  22.647   0.086  1.00  0.00     0.210 HD
ENDBRANCH   6  24
BRANCH   1  26
HETATM   26  N1  UNL     1       0.599  21.890  -1.863  1.00  0.00    -0.352 N 
HETATM   27  C2  UNL     1      -0.411  21.618  -2.804  1.00  0.00     0.214 C 
HETATM   28  C1  UNL     1      -0.307  22.233  -4.147  1.00  0.00     0.117 C 
HETATM   29  O1  UNL     1      -1.370  20.857  -2.464  1.00  0.00    -0.274 OA
ATOM     30  H1  UNL     1       1.372  22.501  -2.128  1.00  0.00     0.163 HD
ENDBRANCH   1  26
TORSDOF 7
ENDMDL
