MODEL 1
REMARK VINA RESULT: -5.714649346      0.000      0.000
REMARK  11 active torsions:
REMARK  status: ('A' for Active; 'I' for Inactive)
REMARK    1  A    between atoms: O1_2  and  C2_3 
REMARK    2  A    between atoms: C3_4  and  N1_5 
REMARK    3  A    between atoms: C5_10  and  N2_11 
REMARK    4  A    between atoms: C7_16  and  O2_17 
REMARK    5  A    between atoms: O2_17  and  C8_18 
REMARK    6  A    between atoms: C10_20  and  O3_21 
REMARK    7  A    between atoms: C11_23  and  C12_24 
REMARK    8  A    between atoms: C13_27  and  N3_28 
REMARK    9  A    between atoms: N3_28  and  N4_30 
REMARK   10  A    between atoms: N4_30  and  N5_31 
REMARK   11  A    between atoms: C15_35  and  N6_36 
ROOT
HETATM    1  C8  UNL     1       1.367  17.878   2.618  1.00  0.00     0.155 C 
HETATM    2  C9  UNL     1       1.750  16.406   2.589  1.00  0.00     0.067 C 
HETATM    3  C10 UNL     1       2.617  16.097   3.752  1.00  0.00     0.137 C 
HETATM    4  C11 UNL     1       1.934  15.622   4.978  1.00  0.00     0.140 C 
HETATM    5  C13 UNL     1       0.506  15.929   5.120  1.00  0.00     0.133 C 
HETATM    6  C14 UNL     1      -0.036  17.134   4.470  1.00  0.00     0.064 C 
HETATM    7  C15 UNL     1       0.926  18.185   4.032  1.00  0.00     0.214 C 
ENDROOT
BRANCH   1   8
HETATM    8  O2  UNL     1       0.324  18.104   1.770  1.00  0.00    -0.376 OA
BRANCH   8   9
HETATM    9  C7  UNL     1       0.600  18.830   0.642  1.00  0.00     0.155 C 
HETATM   10  C2  UNL     1      -0.652  19.702   0.420  1.00  0.00     0.180 C 
HETATM   11  C3  UNL     1      -0.695  20.288  -0.932  1.00  0.00     0.216 C 
HETATM   12  C4  UNL     1       0.719  20.313  -1.487  1.00  0.00     0.068 C 
HETATM   13  C5  UNL     1       1.734  20.717  -0.439  1.00  0.00     0.188 C 
HETATM   14  C6  UNL     1       1.799  19.717   0.707  1.00  0.00     0.067 C 
BRANCH  10  15
HETATM   15  O1  UNL     1      -0.722  20.566   1.475  1.00  0.00    -0.386 OA
HETATM   16  C1  UNL     1      -1.798  21.420   1.473  1.00  0.00     0.202 C 
ENDBRANCH  10  15
BRANCH  11  17
HETATM   17  N1  UNL     1      -1.453  19.412  -1.835  1.00  0.00    -0.072 N 
ATOM     18  H13 UNL     1      -1.130  18.445  -1.790  1.00  0.00     0.274 HD
ATOM     19  H12 UNL     1      -2.409  19.264  -1.510  1.00  0.00     0.274 HD
ATOM     20  H11 UNL     1      -1.425  19.781  -2.785  1.00  0.00     0.274 HD
ENDBRANCH  11  17
BRANCH  13  21
HETATM   21  N2  UNL     1       1.470  22.057   0.006  1.00  0.00    -0.075 N 
ATOM     22  H23 UNL     1       1.033  22.624  -0.722  1.00  0.00     0.274 HD
ATOM     23  H22 UNL     1       0.716  22.092   0.692  1.00  0.00     0.274 HD
ATOM     24  H21 UNL     1       2.327  22.482   0.359  1.00  0.00     0.274 HD
ENDBRANCH  13  21
ENDBRANCH   8   9
ENDBRANCH   1   8
BRANCH   7  25
HETATM   25  N6  UNL     1       0.227  19.457   4.007  1.00  0.00    -0.072 N 
ATOM     26  H63 UNL     1       0.612  20.109   3.323  1.00  0.00     0.274 HD
ATOM     27  H62 UNL     1      -0.711  19.387   3.612  1.00  0.00     0.274 HD
ATOM     28  H61 UNL     1       0.232  19.829   4.956  1.00  0.00     0.274 HD
ENDBRANCH   7  25
BRANCH   3  29
HETATM   29  O3  UNL     1       3.592  15.163   3.334  1.00  0.00    -0.395 OA
ATOM     30  H3  UNL     1       4.072  14.877   4.102  1.00  0.00     0.210 HD
ENDBRANCH   3  29
BRANCH   4  31
HETATM   31  C12 UNL     1       2.674  16.057   6.221  1.00  0.00     0.181 C 
HETATM   32  O4  UNL     1       2.474  15.565   7.339  1.00  0.00    -0.648 OA
HETATM   33  O5  UNL     1       3.613  17.059   6.043  1.00  0.00    -0.648 OA
ENDBRANCH   4  31
BRANCH   5  34
HETATM   34  N3  UNL     1      -0.282  14.756   4.701  1.00  0.00    -0.247 N 
ATOM     35  H3  UNL     1       0.143  13.835   4.597  1.00  0.00     0.197 HD
BRANCH  34  36
HETATM   36  N4  UNL     1      -1.481  14.947   4.483  1.00  0.00    -0.248 NA
BRANCH  36  37
HETATM   37  N5  UNL     1      -2.729  14.972   4.412  1.00  0.00    -0.261 N 
ATOM     38  H52 UNL     1      -2.734  13.953   4.451  1.00  0.00     0.193 HD
ATOM     39  H51 UNL     1      -3.726  15.177   4.349  1.00  0.00     0.193 HD
ENDBRANCH  36  37
ENDBRANCH  34  36
ENDBRANCH   5  34
TORSDOF 11
ENDMDL
MODEL 2
REMARK VINA RESULT: -5.427816297      2.899      4.384
REMARK  11 active torsions:
REMARK  status: ('A' for Active; 'I' for Inactive)
REMARK    1  A    between atoms: O1_2  and  C2_3 
REMARK    2  A    between atoms: C3_4  and  N1_5 
REMARK    3  A    between atoms: C5_10  and  N2_11 
REMARK    4  A    between atoms: C7_16  and  O2_17 
REMARK    5  A    between atoms: O2_17  and  C8_18 
REMARK    6  A    between atoms: C10_20  and  O3_21 
REMARK    7  A    between atoms: C11_23  and  C12_24 
REMARK    8  A    between atoms: C13_27  and  N3_28 
REMARK    9  A    between atoms: N3_28  and  N4_30 
REMARK   10  A    between atoms: N4_30  and  N5_31 
REMARK   11  A    between atoms: C15_35  and  N6_36 
ROOT
HETATM    1  C8  UNL     1       0.553  18.428   1.812  1.00  0.00     0.155 C 
HETATM    2  C9  UNL     1       0.735  18.840   3.266  1.00  0.00     0.067 C 
HETATM    3  C10 UNL     1       1.152  17.663   4.065  1.00  0.00     0.137 C 
HETATM    4  C11 UNL     1       2.610  17.450   4.219  1.00  0.00     0.140 C 
HETATM    5  C13 UNL     1       3.494  18.089   3.237  1.00  0.00     0.133 C 
HETATM    6  C14 UNL     1       2.989  18.344   1.877  1.00  0.00     0.064 C 
HETATM    7  C15 UNL     1       1.768  17.612   1.436  1.00  0.00     0.214 C 
ENDROOT
BRANCH   1   8
HETATM    8  O2  UNL     1       0.499  19.535   1.019  1.00  0.00    -0.376 OA
BRANCH   8   9
HETATM    9  C7  UNL     1       0.006  20.676   1.596  1.00  0.00     0.155 C 
HETATM   10  C2  UNL     1       1.048  21.764   1.265  1.00  0.00     0.180 C 
HETATM   11  C3  UNL     1       0.879  22.972   2.093  1.00  0.00     0.216 C 
HETATM   12  C4  UNL     1      -0.550  23.002   2.607  1.00  0.00     0.068 C 
HETATM   13  C5  UNL     1      -1.545  22.575   1.550  1.00  0.00     0.188 C 
HETATM   14  C6  UNL     1      -1.332  21.131   1.118  1.00  0.00     0.067 C 
BRANCH  10  15
HETATM   15  O1  UNL     1       1.026  21.929  -0.090  1.00  0.00    -0.386 OA
HETATM   16  C1  UNL     1       1.897  22.869  -0.588  1.00  0.00     0.202 C 
ENDBRANCH  10  15
BRANCH  11  17
HETATM   17  N1  UNL     1       1.724  22.882   3.290  1.00  0.00    -0.072 N 
ATOM     18  H13 UNL     1       1.769  21.931   3.656  1.00  0.00     0.274 HD
ATOM     19  H12 UNL     1       2.713  23.004   3.071  1.00  0.00     0.274 HD
ATOM     20  H11 UNL     1       1.404  23.548   3.994  1.00  0.00     0.274 HD
ENDBRANCH  11  17
BRANCH  13  21
HETATM   21  N2  UNL     1      -1.512  23.496   0.447  1.00  0.00    -0.075 N 
ATOM     22  H23 UNL     1      -1.649  24.461   0.750  1.00  0.00     0.274 HD
ATOM     23  H22 UNL     1      -0.574  23.594   0.058  1.00  0.00     0.274 HD
ATOM     24  H21 UNL     1      -2.192  23.216  -0.260  1.00  0.00     0.274 HD
ENDBRANCH  13  21
ENDBRANCH   8   9
ENDBRANCH   1   8
BRANCH   7  25
HETATM   25  N6  UNL     1       1.798  17.513  -0.012  1.00  0.00    -0.072 N 
ATOM     26  H63 UNL     1       2.667  17.111  -0.365  1.00  0.00     0.274 HD
ATOM     27  H62 UNL     1       1.165  16.800  -0.375  1.00  0.00     0.274 HD
ATOM     28  H61 UNL     1       1.609  18.442  -0.388  1.00  0.00     0.274 HD
ENDBRANCH   7  25
BRANCH   3  29
HETATM   29  O3  UNL     1       0.527  17.750   5.330  1.00  0.00    -0.395 OA
ATOM     30  H3  UNL     1       0.162  16.897   5.536  1.00  0.00     0.210 HD
ENDBRANCH   3  29
BRANCH   4  31
HETATM   31  C12 UNL     1       2.942  15.980   4.323  1.00  0.00     0.181 C 
HETATM   32  O4  UNL     1       3.451  15.331   3.400  1.00  0.00    -0.648 OA
HETATM   33  O5  UNL     1       2.643  15.381   5.535  1.00  0.00    -0.648 OA
ENDBRANCH   4  31
BRANCH   5  34
HETATM   34  N3  UNL     1       4.016  19.345   3.804  1.00  0.00    -0.247 N 
ATOM     35  H3  UNL     1       4.327  19.406   4.774  1.00  0.00     0.197 HD
BRANCH  34  36
HETATM   36  N4  UNL     1       4.055  20.317   3.046  1.00  0.00    -0.248 NA
BRANCH  36  37
HETATM   37  N5  UNL     1       4.321  21.286   2.301  1.00  0.00    -0.261 N 
ATOM     38  H52 UNL     1       4.360  20.644   1.510  1.00  0.00     0.193 HD
ATOM     39  H51 UNL     1       4.527  22.177   1.849  1.00  0.00     0.193 HD
ENDBRANCH  36  37
ENDBRANCH  34  36
ENDBRANCH   5  34
TORSDOF 11
ENDMDL
MODEL 3
REMARK VINA RESULT: -5.422869747      2.095      2.920
REMARK  11 active torsions:
REMARK  status: ('A' for Active; 'I' for Inactive)
REMARK    1  A    between atoms: O1_2  and  C2_3 
REMARK    2  A    between atoms: C3_4  and  N1_5 
REMARK    3  A    between atoms: C5_10  and  N2_11 
REMARK    4  A    between atoms: C7_16  and  O2_17 
REMARK    5  A    between atoms: O2_17  and  C8_18 
REMARK    6  A    between atoms: C10_20  and  O3_21 
REMARK    7  A    between atoms: C11_23  and  C12_24 
REMARK    8  A    between atoms: C13_27  and  N3_28 
REMARK    9  A    between atoms: N3_28  and  N4_30 
REMARK   10  A    between atoms: N4_30  and  N5_31 
REMARK   11  A    between atoms: C15_35  and  N6_36 
ROOT
HETATM    1  C8  UNL     1       2.864  18.554   1.043  1.00  0.00     0.155 C 
HETATM    2  C9  UNL     1       1.579  17.772   1.274  1.00  0.00     0.067 C 
HETATM    3  C10 UNL     1       1.907  16.425   1.800  1.00  0.00     0.137 C 
HETATM    4  C11 UNL     1       1.947  16.281   3.274  1.00  0.00     0.140 C 
HETATM    5  C13 UNL     1       2.129  17.502   4.068  1.00  0.00     0.133 C 
HETATM    6  C14 UNL     1       2.860  18.637   3.481  1.00  0.00     0.064 C 
HETATM    7  C15 UNL     1       3.710  18.377   2.284  1.00  0.00     0.214 C 
ENDROOT
BRANCH   1   8
HETATM    8  O2  UNL     1       2.580  19.877   0.884  1.00  0.00    -0.376 OA
BRANCH   8   9
HETATM    9  C7  UNL     1       1.332  20.182   0.411  1.00  0.00     0.155 C 
HETATM   10  C2  UNL     1       0.682  21.024   1.527  1.00  0.00     0.180 C 
HETATM   11  C3  UNL     1      -0.777  21.147   1.361  1.00  0.00     0.216 C 
HETATM   12  C4  UNL     1      -1.115  20.890  -0.098  1.00  0.00     0.068 C 
HETATM   13  C5  UNL     1      -0.116  21.535  -1.034  1.00  0.00     0.188 C 
HETATM   14  C6  UNL     1       1.281  20.954  -0.865  1.00  0.00     0.067 C 
BRANCH  10  15
HETATM   15  O1  UNL     1       1.399  22.183   1.612  1.00  0.00    -0.386 OA
HETATM   16  C1  UNL     1       0.988  23.067   2.580  1.00  0.00     0.202 C 
ENDBRANCH  10  15
BRANCH  11  17
HETATM   17  N1  UNL     1      -1.458  20.085   2.113  1.00  0.00    -0.072 N 
ATOM     18  H13 UNL     1      -0.882  19.248   2.201  1.00  0.00     0.274 HD
ATOM     19  H12 UNL     1      -1.544  20.312   3.104  1.00  0.00     0.274 HD
ATOM     20  H11 UNL     1      -2.363  19.882   1.688  1.00  0.00     0.274 HD
ENDBRANCH  11  17
BRANCH  13  21
HETATM   21  N2  UNL     1      -0.147  22.962  -0.876  1.00  0.00    -0.075 N 
ATOM     22  H23 UNL     1      -0.950  23.269  -0.325  1.00  0.00     0.274 HD
ATOM     23  H22 UNL     1       0.593  23.296  -0.258  1.00  0.00     0.274 HD
ATOM     24  H21 UNL     1      -0.115  23.414  -1.790  1.00  0.00     0.274 HD
ENDBRANCH  13  21
ENDBRANCH   8   9
ENDBRANCH   1   8
BRANCH   7  25
HETATM   25  N6  UNL     1       4.758  19.381   2.246  1.00  0.00    -0.072 N 
ATOM     26  H63 UNL     1       5.565  19.092   1.693  1.00  0.00     0.274 HD
ATOM     27  H62 UNL     1       4.504  20.200   1.694  1.00  0.00     0.274 HD
ATOM     28  H61 UNL     1       4.999  19.610   3.210  1.00  0.00     0.274 HD
ENDBRANCH   7  25
BRANCH   3  29
HETATM   29  O3  UNL     1       0.996  15.502   1.236  1.00  0.00    -0.395 OA
ATOM     30  H3  UNL     1       1.146  14.657   1.642  1.00  0.00     0.210 HD
ENDBRANCH   3  29
BRANCH   4  31
HETATM   31  C12 UNL     1       2.960  15.243   3.697  1.00  0.00     0.181 C 
HETATM   32  O4  UNL     1       3.588  14.539   2.895  1.00  0.00    -0.648 OA
HETATM   33  O5  UNL     1       3.157  15.116   5.061  1.00  0.00    -0.648 OA
ENDBRANCH   4  31
BRANCH   5  34
HETATM   34  N3  UNL     1       0.813  17.966   4.543  1.00  0.00    -0.247 N 
ATOM     35  H3  UNL     1       0.380  18.814   4.178  1.00  0.00     0.197 HD
BRANCH  34  36
HETATM   36  N4  UNL     1       0.264  17.275   5.406  1.00  0.00    -0.248 NA
BRANCH  36  37
HETATM   37  N5  UNL     1      -0.291  16.413   6.120  1.00  0.00    -0.261 N 
ATOM     38  H52 UNL     1      -0.700  16.004   5.279  1.00  0.00     0.193 HD
ATOM     39  H51 UNL     1      -0.661  15.797   6.844  1.00  0.00     0.193 HD
ENDBRANCH  36  37
ENDBRANCH  34  36
ENDBRANCH   5  34
TORSDOF 11
ENDMDL
MODEL 4
REMARK VINA RESULT: -5.384506925      2.132      2.963
REMARK  11 active torsions:
REMARK  status: ('A' for Active; 'I' for Inactive)
REMARK    1  A    between atoms: O1_2  and  C2_3 
REMARK    2  A    between atoms: C3_4  and  N1_5 
REMARK    3  A    between atoms: C5_10  and  N2_11 
REMARK    4  A    between atoms: C7_16  and  O2_17 
REMARK    5  A    between atoms: O2_17  and  C8_18 
REMARK    6  A    between atoms: C10_20  and  O3_21 
REMARK    7  A    between atoms: C11_23  and  C12_24 
REMARK    8  A    between atoms: C13_27  and  N3_28 
REMARK    9  A    between atoms: N3_28  and  N4_30 
REMARK   10  A    between atoms: N4_30  and  N5_31 
REMARK   11  A    between atoms: C15_35  and  N6_36 
ROOT
HETATM    1  C8  UNL     1       2.808  18.310   1.040  1.00  0.00     0.155 C 
HETATM    2  C9  UNL     1       1.518  17.568   1.360  1.00  0.00     0.067 C 
HETATM    3  C10 UNL     1       1.839  16.280   2.021  1.00  0.00     0.137 C 
HETATM    4  C11 UNL     1       1.888  16.290   3.501  1.00  0.00     0.140 C 
HETATM    5  C13 UNL     1       2.086  17.585   4.163  1.00  0.00     0.133 C 
HETATM    6  C14 UNL     1       2.822  18.646   3.456  1.00  0.00     0.064 C 
HETATM    7  C15 UNL     1       3.661  18.255   2.287  1.00  0.00     0.214 C 
ENDROOT
BRANCH   1   8
HETATM    8  O2  UNL     1       2.534  19.612   0.747  1.00  0.00    -0.376 OA
BRANCH   8   9
HETATM    9  C7  UNL     1       1.295  19.873   0.224  1.00  0.00     0.155 C 
HETATM   10  C2  UNL     1       1.107  21.393   0.398  1.00  0.00     0.180 C 
HETATM   11  C3  UNL     1      -0.296  21.809   0.224  1.00  0.00     0.216 C 
HETATM   12  C4  UNL     1      -1.012  20.745  -0.591  1.00  0.00     0.068 C 
HETATM   13  C5  UNL     1      -0.154  20.223  -1.723  1.00  0.00     0.188 C 
HETATM   14  C6  UNL     1       1.100  19.525  -1.214  1.00  0.00     0.067 C 
BRANCH  10  15
HETATM   15  O1  UNL     1       2.039  21.997  -0.396  1.00  0.00    -0.386 OA
HETATM   16  C1  UNL     1       1.914  23.359  -0.528  1.00  0.00     0.202 C 
ENDBRANCH  10  15
BRANCH  11  17
HETATM   17  N1  UNL     1      -0.978  21.830   1.524  1.00  0.00    -0.072 N 
ATOM     18  H13 UNL     1      -1.449  22.719   1.695  1.00  0.00     0.274 HD
ATOM     19  H12 UNL     1      -1.798  21.223   1.536  1.00  0.00     0.274 HD
ATOM     20  H11 UNL     1      -0.320  21.597   2.267  1.00  0.00     0.274 HD
ENDBRANCH  11  17
BRANCH  13  21
HETATM   21  N2  UNL     1       0.137  21.285  -2.646  1.00  0.00    -0.075 N 
ATOM     22  H23 UNL     1      -0.671  21.525  -3.221  1.00  0.00     0.274 HD
ATOM     23  H22 UNL     1       0.253  22.182  -2.174  1.00  0.00     0.274 HD
ATOM     24  H21 UNL     1       0.951  21.042  -3.211  1.00  0.00     0.274 HD
ENDBRANCH  13  21
ENDBRANCH   8   9
ENDBRANCH   1   8
BRANCH   7  25
HETATM   25  N6  UNL     1       4.717  19.240   2.139  1.00  0.00    -0.072 N 
ATOM     26  H63 UNL     1       5.102  19.271   1.195  1.00  0.00     0.274 HD
ATOM     27  H62 UNL     1       4.373  20.200   2.174  1.00  0.00     0.274 HD
ATOM     28  H61 UNL     1       5.422  19.044   2.849  1.00  0.00     0.274 HD
ENDBRANCH   7  25
BRANCH   3  29
HETATM   29  O3  UNL     1       0.916  15.312   1.562  1.00  0.00    -0.395 OA
ATOM     30  H3  UNL     1       1.062  15.186   0.631  1.00  0.00     0.210 HD
ENDBRANCH   3  29
BRANCH   4  31
HETATM   31  C12 UNL     1       2.896  15.292   4.023  1.00  0.00     0.181 C 
HETATM   32  O4  UNL     1       3.127  15.127   5.228  1.00  0.00    -0.648 OA
HETATM   33  O5  UNL     1       3.564  14.554   3.062  1.00  0.00    -0.648 OA
ENDBRANCH   4  31
BRANCH   5  34
HETATM   34  N3  UNL     1       0.777  18.108   4.595  1.00  0.00    -0.247 N 
ATOM     35  H3  UNL     1       0.418  19.000   4.256  1.00  0.00     0.197 HD
BRANCH  34  36
HETATM   36  N4  UNL     1       0.140  17.410   5.389  1.00  0.00    -0.248 NA
BRANCH  36  37
HETATM   37  N5  UNL     1      -0.645  16.666   6.016  1.00  0.00    -0.261 N 
ATOM     38  H52 UNL     1      -0.773  17.410   6.703  1.00  0.00     0.193 HD
ATOM     39  H51 UNL     1      -1.250  15.937   6.394  1.00  0.00     0.193 HD
ENDBRANCH  36  37
ENDBRANCH  34  36
ENDBRANCH   5  34
TORSDOF 11
ENDMDL
MODEL 5
REMARK VINA RESULT: -5.241800354      2.130      2.692
REMARK  11 active torsions:
REMARK  status: ('A' for Active; 'I' for Inactive)
REMARK    1  A    between atoms: O1_2  and  C2_3 
REMARK    2  A    between atoms: C3_4  and  N1_5 
REMARK    3  A    between atoms: C5_10  and  N2_11 
REMARK    4  A    between atoms: C7_16  and  O2_17 
REMARK    5  A    between atoms: O2_17  and  C8_18 
REMARK    6  A    between atoms: C10_20  and  O3_21 
REMARK    7  A    between atoms: C11_23  and  C12_24 
REMARK    8  A    between atoms: C13_27  and  N3_28 
REMARK    9  A    between atoms: N3_28  and  N4_30 
REMARK   10  A    between atoms: N4_30  and  N5_31 
REMARK   11  A    between atoms: C15_35  and  N6_36 
ROOT
HETATM    1  C8  UNL     1       1.592  18.091   2.285  1.00  0.00     0.155 C 
HETATM    2  C9  UNL     1       2.994  17.954   2.861  1.00  0.00     0.067 C 
HETATM    3  C10 UNL     1       2.905  17.557   4.287  1.00  0.00     0.137 C 
HETATM    4  C11 UNL     1       2.933  16.103   4.572  1.00  0.00     0.140 C 
HETATM    5  C13 UNL     1       2.579  15.192   3.477  1.00  0.00     0.133 C 
HETATM    6  C14 UNL     1       1.655  15.657   2.428  1.00  0.00     0.064 C 
HETATM    7  C15 UNL     1       0.824  16.861   2.713  1.00  0.00     0.214 C 
ENDROOT
BRANCH   1   8
HETATM    8  O2  UNL     1       1.651  18.126   0.924  1.00  0.00    -0.376 OA
BRANCH   8   9
HETATM    9  C7  UNL     1       1.696  19.366   0.346  1.00  0.00     0.155 C 
HETATM   10  C2  UNL     1       0.251  19.634  -0.122  1.00  0.00     0.180 C 
HETATM   11  C3  UNL     1       0.169  20.755  -1.076  1.00  0.00     0.216 C 
HETATM   12  C4  UNL     1       1.397  21.630  -0.891  1.00  0.00     0.068 C 
HETATM   13  C5  UNL     1       1.754  21.808   0.569  1.00  0.00     0.188 C 
HETATM   14  C6  UNL     1       2.132  20.489   1.228  1.00  0.00     0.067 C 
BRANCH  10  15
HETATM   15  O1  UNL     1      -0.517  19.717   1.004  1.00  0.00    -0.386 OA
HETATM   16  C1  UNL     1      -1.863  19.898   0.792  1.00  0.00     0.202 C 
ENDBRANCH  10  15
BRANCH  11  17
HETATM   17  N1  UNL     1       0.253  20.249  -2.453  1.00  0.00    -0.072 N 
ATOM     18  H13 UNL     1      -0.288  19.395  -2.580  1.00  0.00     0.274 HD
ATOM     19  H12 UNL     1      -0.251  20.844  -3.110  1.00  0.00     0.274 HD
ATOM     20  H11 UNL     1       1.230  20.126  -2.720  1.00  0.00     0.274 HD
ENDBRANCH  11  17
BRANCH  13  21
HETATM   21  N2  UNL     1       0.689  22.487   1.253  1.00  0.00    -0.075 N 
ATOM     22  H23 UNL     1       0.891  23.477   1.390  1.00  0.00     0.274 HD
ATOM     23  H22 UNL     1      -0.141  22.585   0.669  1.00  0.00     0.274 HD
ATOM     24  H21 UNL     1       0.483  22.012   2.133  1.00  0.00     0.274 HD
ENDBRANCH  13  21
ENDBRANCH   8   9
ENDBRANCH   1   8
BRANCH   7  25
HETATM   25  N6  UNL     1      -0.375  16.787   1.897  1.00  0.00    -0.072 N 
ATOM     26  H63 UNL     1      -0.197  16.420   0.962  1.00  0.00     0.274 HD
ATOM     27  H62 UNL     1      -1.021  16.060   2.205  1.00  0.00     0.274 HD
ATOM     28  H61 UNL     1      -0.797  17.715   1.885  1.00  0.00     0.274 HD
ENDBRANCH   7  25
BRANCH   3  29
HETATM   29  O3  UNL     1       3.937  18.220   4.990  1.00  0.00    -0.395 OA
ATOM     30  H3  UNL     1       3.659  19.115   5.144  1.00  0.00     0.210 HD
ENDBRANCH   3  29
BRANCH   4  31
HETATM   31  C12 UNL     1       2.116  15.768   5.797  1.00  0.00     0.181 C 
HETATM   32  O4  UNL     1       0.951  15.352   5.745  1.00  0.00    -0.648 OA
HETATM   33  O5  UNL     1       2.752  15.954   7.013  1.00  0.00    -0.648 OA
ENDBRANCH   4  31
BRANCH   5  34
HETATM   34  N3  UNL     1       3.815  14.693   2.848  1.00  0.00    -0.247 N 
ATOM     35  H3  UNL     1       4.699  15.196   2.929  1.00  0.00     0.197 HD
BRANCH  34  36
HETATM   36  N4  UNL     1       3.724  13.636   2.218  1.00  0.00    -0.248 NA
BRANCH  36  37
HETATM   37  N5  UNL     1       3.409  12.608   1.581  1.00  0.00    -0.261 N 
ATOM     38  H52 UNL     1       2.535  12.572   2.105  1.00  0.00     0.193 HD
ATOM     39  H51 UNL     1       3.315  11.791   0.976  1.00  0.00     0.193 HD
ENDBRANCH  36  37
ENDBRANCH  34  36
ENDBRANCH   5  34
TORSDOF 11
ENDMDL
