MODEL 1
REMARK VINA RESULT: -6.377689397      0.000      0.000
REMARK  10 active torsions:
REMARK  status: ('A' for Active; 'I' for Inactive)
REMARK    1  A    between atoms: O1_2  and  C2_3 
REMARK    2  A    between atoms: C3_4  and  O2_5 
REMARK    3  A    between atoms: O2_5  and  C4_6 
REMARK    4  A    between atoms: C5_8  and  C6_9 
REMARK    5  A    between atoms: C6_9  and  N1_10 
REMARK    6  A    between atoms: C7_14  and  O4_15 
REMARK    7  A    between atoms: C8_17  and  O5_18 
REMARK    8  A    between atoms: C9_20  and  O6_21 
REMARK    9  A    between atoms: C10_24  and  C11_25 
REMARK   10  A    between atoms: C17_31  and  O8_32 
ROOT
HETATM    1  C4  UNL     1       1.676  17.670   3.328  1.00  0.00     0.294 C 
HETATM    2  O3  UNL     1       0.579  17.361   4.133  1.00  0.00    -0.349 OA
HETATM    3  C5  UNL     1       0.526  16.001   4.375  1.00  0.00     0.181 C 
HETATM    4  C7  UNL     1       1.632  15.683   5.361  1.00  0.00     0.180 C 
HETATM    5  C8  UNL     1       2.929  15.915   4.622  1.00  0.00     0.183 C 
HETATM    6  C9  UNL     1       2.975  17.203   3.883  1.00  0.00     0.204 C 
ENDROOT
BRANCH   1   7
HETATM    7  O2  UNL     1       1.395  17.214   2.057  1.00  0.00    -0.326 OA
BRANCH   7   8
HETATM    8  C3  UNL     1       0.441  17.946   1.384  1.00  0.00     0.295 C 
HETATM    9  C2  UNL     1      -0.109  17.290   0.169  1.00  0.00     0.207 C 
HETATM   10  C17 UNL     1       0.462  18.185  -0.946  1.00  0.00     0.181 C 
HETATM   11  C10 UNL     1       0.502  19.476  -0.219  1.00  0.00     0.160 C 
HETATM   12  O7  UNL     1       1.025  19.153   1.004  1.00  0.00    -0.350 OA
BRANCH   9  13
HETATM   13  O1  UNL     1      -1.486  17.376   0.059  1.00  0.00    -0.383 OA
HETATM   14  C1  UNL     1      -2.149  17.216   1.255  1.00  0.00     0.202 C 
ENDBRANCH   9  13
BRANCH  10  15
HETATM   15  O8  UNL     1       1.691  17.653  -1.255  1.00  0.00    -0.390 OA
ATOM     16  H8  UNL     1       2.069  18.239  -1.901  1.00  0.00     0.210 HD
ENDBRANCH  10  15
BRANCH  11  17
HETATM   17  C11 UNL     1       1.174  20.604  -0.898  1.00  0.00     0.017 C 
HETATM   18  C12 UNL     1       0.514  21.133  -2.112  1.00  0.00     0.007 C 
HETATM   19  C13 UNL     1       0.044  22.578  -1.946  1.00  0.00     0.000 C 
HETATM   20  C14 UNL     1       1.253  23.470  -1.753  1.00  0.00     0.000 C 
HETATM   21  C15 UNL     1       2.065  22.897  -0.623  1.00  0.00     0.000 C 
HETATM   22  C16 UNL     1       1.353  21.761   0.084  1.00  0.00     0.007 C 
ENDBRANCH  11  17
ENDBRANCH   7   8
ENDBRANCH   1   7
BRANCH   6  23
HETATM   23  O6  UNL     1       3.495  18.178   4.763  1.00  0.00    -0.388 OA
ATOM     24  H6  UNL     1       3.957  17.752   5.476  1.00  0.00     0.210 HD
ENDBRANCH   6  23
BRANCH   3  25
HETATM   25  C6  UNL     1      -0.823  15.547   4.863  1.00  0.00     0.264 C 
BRANCH  25  26
HETATM   26  N1  UNL     1      -1.316  16.306   5.966  1.00  0.00    -0.077 N 
ATOM     27  H13 UNL     1      -1.382  17.294   5.723  1.00  0.00     0.274 HD
ATOM     28  H12 UNL     1      -2.303  16.105   6.130  1.00  0.00     0.274 HD
ATOM     29  H11 UNL     1      -0.777  16.179   6.822  1.00  0.00     0.274 HD
ENDBRANCH  25  26
ENDBRANCH   3  25
BRANCH   5  30
HETATM   30  O5  UNL     1       3.104  14.806   3.769  1.00  0.00    -0.390 OA
ATOM     31  H5  UNL     1       4.025  14.575   3.817  1.00  0.00     0.210 HD
ENDBRANCH   5  30
BRANCH   4  32
HETATM   32  O4  UNL     1       1.562  16.631   6.377  1.00  0.00    -0.390 OA
ATOM     33  H4  UNL     1       1.163  17.410   6.007  1.00  0.00     0.210 HD
ENDBRANCH   4  32
TORSDOF 10
ENDMDL
MODEL 2
REMARK VINA RESULT: -6.282966068      1.023      1.082
REMARK  10 active torsions:
REMARK  status: ('A' for Active; 'I' for Inactive)
REMARK    1  A    between atoms: O1_2  and  C2_3 
REMARK    2  A    between atoms: C3_4  and  O2_5 
REMARK    3  A    between atoms: O2_5  and  C4_6 
REMARK    4  A    between atoms: C5_8  and  C6_9 
REMARK    5  A    between atoms: C6_9  and  N1_10 
REMARK    6  A    between atoms: C7_14  and  O4_15 
REMARK    7  A    between atoms: C8_17  and  O5_18 
REMARK    8  A    between atoms: C9_20  and  O6_21 
REMARK    9  A    between atoms: C10_24  and  C11_25 
REMARK   10  A    between atoms: C17_31  and  O8_32 
ROOT
HETATM    1  C4  UNL     1       1.682  17.211   2.449  1.00  0.00     0.294 C 
HETATM    2  O3  UNL     1       1.169  17.046   3.736  1.00  0.00    -0.349 OA
HETATM    3  C5  UNL     1       1.272  15.725   4.132  1.00  0.00     0.181 C 
HETATM    4  C7  UNL     1       2.734  15.466   4.433  1.00  0.00     0.180 C 
HETATM    5  C8  UNL     1       3.454  15.552   3.107  1.00  0.00     0.183 C 
HETATM    6  C9  UNL     1       3.088  16.746   2.303  1.00  0.00     0.204 C 
ENDROOT
BRANCH   1   7
HETATM    7  O2  UNL     1       0.789  16.630   1.573  1.00  0.00    -0.326 OA
BRANCH   7   8
HETATM    8  C3  UNL     1      -0.033  17.522   0.919  1.00  0.00     0.295 C 
HETATM    9  C2  UNL     1      -0.496  17.079  -0.422  1.00  0.00     0.207 C 
HETATM   10  C17 UNL     1       0.254  18.060  -1.343  1.00  0.00     0.181 C 
HETATM   11  C10 UNL     1       0.309  19.237  -0.444  1.00  0.00     0.160 C 
HETATM   12  O7  UNL     1       0.674  18.714   0.767  1.00  0.00    -0.350 OA
BRANCH   9  13
HETATM   13  O1  UNL     1      -1.843  17.298  -0.652  1.00  0.00    -0.383 OA
HETATM   14  C1  UNL     1      -2.647  16.972   0.418  1.00  0.00     0.202 C 
ENDBRANCH   9  13
BRANCH  10  15
HETATM   15  O8  UNL     1       1.468  17.469  -1.603  1.00  0.00    -0.390 OA
ATOM     16  H8  UNL     1       1.920  17.436  -0.767  1.00  0.00     0.210 HD
ENDBRANCH  10  15
BRANCH  11  17
HETATM   17  C11 UNL     1       1.129  20.382  -0.893  1.00  0.00     0.017 C 
HETATM   18  C12 UNL     1       0.597  21.175  -2.023  1.00  0.00     0.007 C 
HETATM   19  C13 UNL     1       0.266  22.615  -1.629  1.00  0.00     0.000 C 
HETATM   20  C14 UNL     1       1.547  23.325  -1.239  1.00  0.00     0.000 C 
HETATM   21  C15 UNL     1       2.232  22.485  -0.195  1.00  0.00     0.000 C 
HETATM   22  C16 UNL     1       1.369  21.332   0.279  1.00  0.00     0.007 C 
ENDBRANCH  11  17
ENDBRANCH   7   8
ENDBRANCH   1   7
BRANCH   6  23
HETATM   23  O6  UNL     1       3.973  17.786   2.662  1.00  0.00    -0.388 OA
ATOM     24  H6  UNL     1       4.367  17.595   3.505  1.00  0.00     0.210 HD
ENDBRANCH   6  23
BRANCH   3  25
HETATM   25  C6  UNL     1       0.381  15.394   5.299  1.00  0.00     0.264 C 
BRANCH  25  26
HETATM   26  N1  UNL     1       0.155  16.497   6.176  1.00  0.00    -0.077 N 
ATOM     27  H13 UNL     1      -0.713  16.372   6.697  1.00  0.00     0.274 HD
ATOM     28  H12 UNL     1       0.820  16.484   6.949  1.00  0.00     0.274 HD
ATOM     29  H11 UNL     1       0.167  17.401   5.706  1.00  0.00     0.274 HD
ENDBRANCH  25  26
ENDBRANCH   3  25
BRANCH   5  30
HETATM   30  O5  UNL     1       3.179  14.348   2.427  1.00  0.00    -0.390 OA
ATOM     31  H5  UNL     1       3.901  14.209   1.826  1.00  0.00     0.210 HD
ENDBRANCH   5  30
BRANCH   4  32
HETATM   32  O4  UNL     1       3.186  16.524   5.215  1.00  0.00    -0.390 OA
ATOM     33  H4  UNL     1       2.453  16.815   5.744  1.00  0.00     0.210 HD
ENDBRANCH   4  32
TORSDOF 10
ENDMDL
MODEL 3
REMARK VINA RESULT: -6.138089169      1.754      2.923
REMARK  10 active torsions:
REMARK  status: ('A' for Active; 'I' for Inactive)
REMARK    1  A    between atoms: O1_2  and  C2_3 
REMARK    2  A    between atoms: C3_4  and  O2_5 
REMARK    3  A    between atoms: O2_5  and  C4_6 
REMARK    4  A    between atoms: C5_8  and  C6_9 
REMARK    5  A    between atoms: C6_9  and  N1_10 
REMARK    6  A    between atoms: C7_14  and  O4_15 
REMARK    7  A    between atoms: C8_17  and  O5_18 
REMARK    8  A    between atoms: C9_20  and  O6_21 
REMARK    9  A    between atoms: C10_24  and  C11_25 
REMARK   10  A    between atoms: C17_31  and  O8_32 
ROOT
HETATM    1  C4  UNL     1       1.472  18.087   3.996  1.00  0.00     0.294 C 
HETATM    2  O3  UNL     1       0.294  17.776   4.675  1.00  0.00    -0.349 OA
HETATM    3  C5  UNL     1      -0.144  16.511   4.327  1.00  0.00     0.181 C 
HETATM    4  C7  UNL     1       0.780  15.520   5.004  1.00  0.00     0.180 C 
HETATM    5  C8  UNL     1       2.126  15.683   4.338  1.00  0.00     0.183 C 
HETATM    6  C9  UNL     1       2.563  17.097   4.207  1.00  0.00     0.204 C 
ENDROOT
BRANCH   1   7
HETATM    7  O2  UNL     1       1.141  18.307   2.676  1.00  0.00    -0.326 OA
BRANCH   7   8
HETATM    8  C3  UNL     1       1.947  19.219   2.029  1.00  0.00     0.295 C 
HETATM    9  C2  UNL     1       2.362  20.383   2.854  1.00  0.00     0.207 C 
HETATM   10  C17 UNL     1       1.587  21.529   2.176  1.00  0.00     0.181 C 
HETATM   11  C10 UNL     1       1.571  21.016   0.785  1.00  0.00     0.160 C 
HETATM   12  O7  UNL     1       1.243  19.694   0.923  1.00  0.00    -0.350 OA
BRANCH   9  13
HETATM   13  O1  UNL     1       3.702  20.707   2.735  1.00  0.00    -0.383 OA
HETATM   14  C1  UNL     1       4.509  19.629   2.448  1.00  0.00     0.202 C 
ENDBRANCH   9  13
BRANCH  10  15
HETATM   15  O8  UNL     1       0.362  21.566   2.797  1.00  0.00    -0.390 OA
ATOM     16  H8  UNL     1      -0.242  21.916   2.152  1.00  0.00     0.210 HD
ENDBRANCH  10  15
BRANCH  11  17
HETATM   17  C11 UNL     1       0.743  21.757  -0.189  1.00  0.00     0.017 C 
HETATM   18  C12 UNL     1       1.009  23.207  -0.316  1.00  0.00     0.007 C 
HETATM   19  C13 UNL     1       1.534  23.592  -1.699  1.00  0.00     0.000 C 
HETATM   20  C14 UNL     1       0.458  23.314  -2.729  1.00  0.00     0.000 C 
HETATM   21  C15 UNL     1       0.019  21.885  -2.553  1.00  0.00     0.000 C 
HETATM   22  C16 UNL     1       0.893  21.127  -1.573  1.00  0.00     0.007 C 
ENDBRANCH  11  17
ENDBRANCH   7   8
ENDBRANCH   1   7
BRANCH   6  23
HETATM   23  O6  UNL     1       3.286  17.426   5.374  1.00  0.00    -0.388 OA
ATOM     24  H6  UNL     1       3.793  16.675   5.660  1.00  0.00     0.210 HD
ENDBRANCH   6  23
BRANCH   3  25
HETATM   25  C6  UNL     1      -1.589  16.277   4.676  1.00  0.00     0.264 C 
BRANCH  25  26
HETATM   26  N1  UNL     1      -1.920  16.648   6.014  1.00  0.00    -0.077 N 
ATOM     27  H13 UNL     1      -1.091  16.632   6.608  1.00  0.00     0.274 HD
ATOM     28  H12 UNL     1      -2.148  17.641   6.067  1.00  0.00     0.274 HD
ATOM     29  H11 UNL     1      -2.667  16.085   6.421  1.00  0.00     0.274 HD
ENDBRANCH  25  26
ENDBRANCH   3  25
BRANCH   5  30
HETATM   30  O5  UNL     1       2.031  15.037   3.087  1.00  0.00    -0.390 OA
ATOM     31  H5  UNL     1       1.428  15.553   2.565  1.00  0.00     0.210 HD
ENDBRANCH   5  30
BRANCH   4  32
HETATM   32  O4  UNL     1       0.924  15.928   6.326  1.00  0.00    -0.390 OA
ATOM     33  H4  UNL     1       0.080  16.260   6.610  1.00  0.00     0.210 HD
ENDBRANCH   4  32
TORSDOF 10
ENDMDL
MODEL 4
REMARK VINA RESULT: -6.115547763      1.529      2.711
REMARK  10 active torsions:
REMARK  status: ('A' for Active; 'I' for Inactive)
REMARK    1  A    between atoms: O1_2  and  C2_3 
REMARK    2  A    between atoms: C3_4  and  O2_5 
REMARK    3  A    between atoms: O2_5  and  C4_6 
REMARK    4  A    between atoms: C5_8  and  C6_9 
REMARK    5  A    between atoms: C6_9  and  N1_10 
REMARK    6  A    between atoms: C7_14  and  O4_15 
REMARK    7  A    between atoms: C8_17  and  O5_18 
REMARK    8  A    between atoms: C9_20  and  O6_21 
REMARK    9  A    between atoms: C10_24  and  C11_25 
REMARK   10  A    between atoms: C17_31  and  O8_32 
ROOT
HETATM    1  C4  UNL     1       1.709  17.929   3.685  1.00  0.00     0.294 C 
HETATM    2  O3  UNL     1       0.543  17.622   4.386  1.00  0.00    -0.349 OA
HETATM    3  C5  UNL     1       0.253  16.275   4.276  1.00  0.00     0.181 C 
HETATM    4  C7  UNL     1       1.247  15.536   5.150  1.00  0.00     0.180 C 
HETATM    5  C8  UNL     1       2.596  15.718   4.493  1.00  0.00     0.183 C 
HETATM    6  C9  UNL     1       2.887  17.122   4.104  1.00  0.00     0.204 C 
ENDROOT
BRANCH   1   7
HETATM    7  O2  UNL     1       1.412  17.859   2.340  1.00  0.00    -0.326 OA
BRANCH   7   8
HETATM    8  C3  UNL     1       2.120  18.741   1.553  1.00  0.00     0.295 C 
HETATM    9  C2  UNL     1       2.067  20.159   1.997  1.00  0.00     0.207 C 
HETATM   10  C17 UNL     1       1.232  20.800   0.873  1.00  0.00     0.181 C 
HETATM   11  C10 UNL     1       1.646  19.934  -0.256  1.00  0.00     0.160 C 
HETATM   12  O7  UNL     1       1.598  18.667   0.262  1.00  0.00    -0.350 OA
BRANCH   9  13
HETATM   13  O1  UNL     1       3.293  20.801   1.974  1.00  0.00    -0.383 OA
HETATM   14  C1  UNL     1       3.924  20.835   3.198  1.00  0.00     0.202 C 
ENDBRANCH   9  13
BRANCH  10  15
HETATM   15  O8  UNL     1      -0.079  20.663   1.262  1.00  0.00    -0.390 OA
ATOM     16  H8  UNL     1      -0.597  20.865   0.492  1.00  0.00     0.210 HD
ENDBRANCH  10  15
BRANCH  11  17
HETATM   17  C11 UNL     1       0.917  20.105  -1.530  1.00  0.00     0.017 C 
HETATM   18  C12 UNL     1      -0.319  19.310  -1.699  1.00  0.00     0.007 C 
HETATM   19  C13 UNL     1      -1.571  20.180  -1.808  1.00  0.00     0.000 C 
HETATM   20  C14 UNL     1      -1.482  21.014  -3.070  1.00  0.00     0.000 C 
HETATM   21  C15 UNL     1      -0.163  21.738  -3.045  1.00  0.00     0.000 C 
HETATM   22  C16 UNL     1       0.561  21.578  -1.723  1.00  0.00     0.007 C 
ENDBRANCH  11  17
ENDBRANCH   7   8
ENDBRANCH   1   7
BRANCH   6  23
HETATM   23  O6  UNL     1       3.524  17.741   5.202  1.00  0.00    -0.388 OA
ATOM     24  H6  UNL     1       4.457  17.565   5.173  1.00  0.00     0.210 HD
ENDBRANCH   6  23
BRANCH   3  25
HETATM   25  C6  UNL     1      -1.173  15.953   4.634  1.00  0.00     0.264 C 
BRANCH  25  26
HETATM   26  N1  UNL     1      -1.554  16.412   5.930  1.00  0.00    -0.077 N 
ATOM     27  H13 UNL     1      -0.792  16.283   6.597  1.00  0.00     0.274 HD
ATOM     28  H12 UNL     1      -1.623  17.429   5.946  1.00  0.00     0.274 HD
ATOM     29  H11 UNL     1      -2.413  15.987   6.277  1.00  0.00     0.274 HD
ENDBRANCH  25  26
ENDBRANCH   3  25
BRANCH   5  30
HETATM   30  O5  UNL     1       2.620  14.843   3.387  1.00  0.00    -0.390 OA
ATOM     31  H5  UNL     1       3.456  14.980   2.956  1.00  0.00     0.210 HD
ENDBRANCH   5  30
BRANCH   4  32
HETATM   32  O4  UNL     1       1.292  16.198   6.372  1.00  0.00    -0.390 OA
ATOM     33  H4  UNL     1       0.408  16.208   6.719  1.00  0.00     0.210 HD
ENDBRANCH   4  32
TORSDOF 10
ENDMDL
MODEL 5
REMARK VINA RESULT: -6.039773140      2.469      3.395
REMARK  10 active torsions:
REMARK  status: ('A' for Active; 'I' for Inactive)
REMARK    1  A    between atoms: O1_2  and  C2_3 
REMARK    2  A    between atoms: C3_4  and  O2_5 
REMARK    3  A    between atoms: O2_5  and  C4_6 
REMARK    4  A    between atoms: C5_8  and  C6_9 
REMARK    5  A    between atoms: C6_9  and  N1_10 
REMARK    6  A    between atoms: C7_14  and  O4_15 
REMARK    7  A    between atoms: C8_17  and  O5_18 
REMARK    8  A    between atoms: C9_20  and  O6_21 
REMARK    9  A    between atoms: C10_24  and  C11_25 
REMARK   10  A    between atoms: C17_31  and  O8_32 
ROOT
HETATM    1  C4  UNL     1       1.559  17.848   3.377  1.00  0.00     0.294 C 
HETATM    2  O3  UNL     1       1.175  16.536   3.099  1.00  0.00    -0.349 OA
HETATM    3  C5  UNL     1       1.937  16.019   2.067  1.00  0.00     0.181 C 
HETATM    4  C7  UNL     1       3.315  15.739   2.630  1.00  0.00     0.180 C 
HETATM    5  C8  UNL     1       3.918  17.089   2.945  1.00  0.00     0.183 C 
HETATM    6  C9  UNL     1       3.006  17.992   3.693  1.00  0.00     0.204 C 
ENDROOT
BRANCH   1   7
HETATM    7  O2  UNL     1       1.116  18.637   2.337  1.00  0.00    -0.326 OA
BRANCH   7   8
HETATM    8  C3  UNL     1       1.735  19.864   2.246  1.00  0.00     0.295 C 
HETATM    9  C2  UNL     1       0.975  20.995   2.842  1.00  0.00     0.207 C 
HETATM   10  C17 UNL     1       0.589  21.798   1.586  1.00  0.00     0.181 C 
HETATM   11  C10 UNL     1       1.759  21.484   0.732  1.00  0.00     0.160 C 
HETATM   12  O7  UNL     1       1.937  20.136   0.894  1.00  0.00    -0.350 OA
BRANCH   9  13
HETATM   13  O1  UNL     1       1.747  21.845   3.614  1.00  0.00    -0.383 OA
HETATM   14  C1  UNL     1       1.301  23.148   3.617  1.00  0.00     0.202 C 
ENDBRANCH   9  13
BRANCH  10  15
HETATM   15  O8  UNL     1      -0.603  21.264   1.158  1.00  0.00    -0.390 OA
ATOM     16  H8  UNL     1      -1.085  21.988   0.775  1.00  0.00     0.210 HD
ENDBRANCH  10  15
BRANCH  11  17
HETATM   17  C11 UNL     1       1.698  21.932  -0.675  1.00  0.00     0.017 C 
HETATM   18  C12 UNL     1       0.926  21.083  -1.607  1.00  0.00     0.007 C 
HETATM   19  C13 UNL     1      -0.299  21.797  -2.180  1.00  0.00     0.000 C 
HETATM   20  C14 UNL     1       0.164  22.965  -3.027  1.00  0.00     0.000 C 
HETATM   21  C15 UNL     1       1.092  23.798  -2.185  1.00  0.00     0.000 C 
HETATM   22  C16 UNL     1       1.123  23.346  -0.738  1.00  0.00     0.007 C 
ENDBRANCH  11  17
ENDBRANCH   7   8
ENDBRANCH   1   7
BRANCH   6  23
HETATM   23  O6  UNL     1       3.218  17.761   5.070  1.00  0.00    -0.388 OA
ATOM     24  H6  UNL     1       3.963  18.269   5.369  1.00  0.00     0.210 HD
ENDBRANCH   6  23
BRANCH   3  25
HETATM   25  C6  UNL     1       1.317  14.799   1.439  1.00  0.00     0.264 C 
BRANCH  25  26
HETATM   26  N1  UNL     1       2.189  13.669   1.406  1.00  0.00    -0.077 N 
ATOM     27  H13 UNL     1       2.888  13.731   2.146  1.00  0.00     0.274 HD
ATOM     28  H12 UNL     1       1.698  12.827   1.705  1.00  0.00     0.274 HD
ATOM     29  H11 UNL     1       2.634  13.524   0.500  1.00  0.00     0.274 HD
ENDBRANCH  25  26
ENDBRANCH   3  25
BRANCH   5  30
HETATM   30  O5  UNL     1       4.320  17.642   1.712  1.00  0.00    -0.390 OA
ATOM     31  H5  UNL     1       5.230  17.395   1.593  1.00  0.00     0.210 HD
ENDBRANCH   5  30
BRANCH   4  32
HETATM   32  O4  UNL     1       3.138  15.076   3.840  1.00  0.00    -0.390 OA
ATOM     33  H4  UNL     1       3.941  14.601   4.020  1.00  0.00     0.210 HD
ENDBRANCH   4  32
TORSDOF 10
ENDMDL
