MODEL 1
REMARK VINA RESULT: -6.238392897      0.000      0.000
REMARK  9 active torsions:
REMARK  status: ('A' for Active; 'I' for Inactive)
REMARK    1  A    between atoms: C2_2  and  C3_3 
REMARK    2  A    between atoms: C3_3  and  O1_4 
REMARK    3  A    between atoms: O1_4  and  C4_5 
REMARK    4  A    between atoms: C7_9  and  O3_10 
REMARK    5  A    between atoms: O3_10  and  C8_11 
REMARK    6  A    between atoms: C14_19  and  O6_20 
REMARK    7  A    between atoms: C15_22  and  O7_23 
REMARK    8  A    between atoms: C16_25  and  O8_26 
REMARK    9  A    between atoms: C17_28  and  O9_29 
ROOT
HETATM    1  C4  UNL     1       2.851  18.098   3.450  1.00  0.00     0.291 C 
HETATM    2  O2  UNL     1       2.077  18.110   2.293  1.00  0.00    -0.351 OA
HETATM    3  C5  UNL     1       1.445  19.326   2.133  1.00  0.00     0.152 C 
HETATM    4  C6  UNL     1       1.269  19.601   0.656  1.00  0.00     0.042 C 
HETATM    5  C7  UNL     1       2.114  20.464   2.822  1.00  0.00     0.184 C 
HETATM    6  C16 UNL     1       3.621  20.331   2.889  1.00  0.00     0.183 C 
HETATM    7  C17 UNL     1       4.082  18.938   3.163  1.00  0.00     0.204 C 
ENDROOT
BRANCH   5   8
HETATM    8  O3  UNL     1       1.870  21.622   2.056  1.00  0.00    -0.348 OA
BRANCH   8   9
HETATM    9  C8  UNL     1       1.087  22.539   2.755  1.00  0.00     0.294 C 
HETATM   10  O4  UNL     1       1.938  23.279   3.557  1.00  0.00    -0.328 OA
HETATM   11  C9  UNL     1       1.302  24.247   4.298  1.00  0.00     0.273 C 
HETATM   12  O5  UNL     1       0.594  23.754   5.382  1.00  0.00    -0.360 OA
HETATM   13  C12 UNL     1       0.397  25.139   3.515  1.00  0.00     0.036 C 
HETATM   14  C10 UNL     1      -0.434  24.655   5.638  1.00  0.00     0.172 C 
HETATM   15  C11 UNL     1      -0.940  24.921   4.217  1.00  0.00     0.043 C 
HETATM   16  C13 UNL     1       0.739  26.603   3.698  1.00  0.00     0.023 C 
HETATM   17  C14 UNL     1       0.336  24.835   2.060  1.00  0.00     0.164 C 
HETATM   18  C15 UNL     1       0.377  23.385   1.716  1.00  0.00     0.203 C 
BRANCH  17  19
HETATM   19  O6  UNL     1       1.351  25.519   1.403  1.00  0.00    -0.392 OA
ATOM     20  H6  UNL     1       1.787  24.930   0.798  1.00  0.00     0.210 HD
ENDBRANCH  17  19
BRANCH  18  21
HETATM   21  O7  UNL     1      -0.918  22.893   1.495  1.00  0.00    -0.388 OA
ATOM     22  H7  UNL     1      -1.321  23.350   0.766  1.00  0.00     0.210 HD
ENDBRANCH  18  21
ENDBRANCH   8   9
ENDBRANCH   5   8
BRANCH   6  23
HETATM   23  O8  UNL     1       4.067  21.141   3.954  1.00  0.00    -0.390 OA
ATOM     24  H8  UNL     1       3.831  22.038   3.746  1.00  0.00     0.210 HD
ENDBRANCH   6  23
BRANCH   7  25
HETATM   25  O9  UNL     1       4.719  18.451   2.023  1.00  0.00    -0.388 OA
ATOM     26  H9  UNL     1       4.501  19.001   1.280  1.00  0.00     0.210 HD
ENDBRANCH   7  25
BRANCH   1  27
HETATM   27  O1  UNL     1       3.283  16.815   3.720  1.00  0.00    -0.355 OA
BRANCH  27  28
HETATM   28  C3  UNL     1       2.450  16.110   4.571  1.00  0.00     0.197 C 
BRANCH  28  29
HETATM   29  C2  UNL     1       2.632  16.667   5.939  1.00  0.00    -0.011 C 
HETATM   30  C1  UNL     1       2.678  15.863   7.004  1.00  0.00     0.009 C 
ENDBRANCH  28  29
ENDBRANCH  27  28
ENDBRANCH   1  27
TORSDOF 9
ENDMDL
MODEL 2
REMARK VINA RESULT: -6.134292932      1.888      2.358
REMARK  9 active torsions:
REMARK  status: ('A' for Active; 'I' for Inactive)
REMARK    1  A    between atoms: C2_2  and  C3_3 
REMARK    2  A    between atoms: C3_3  and  O1_4 
REMARK    3  A    between atoms: O1_4  and  C4_5 
REMARK    4  A    between atoms: C7_9  and  O3_10 
REMARK    5  A    between atoms: O3_10  and  C8_11 
REMARK    6  A    between atoms: C14_19  and  O6_20 
REMARK    7  A    between atoms: C15_22  and  O7_23 
REMARK    8  A    between atoms: C16_25  and  O8_26 
REMARK    9  A    between atoms: C17_28  and  O9_29 
ROOT
HETATM    1  C4  UNL     1       2.643  18.548   3.485  1.00  0.00     0.291 C 
HETATM    2  O2  UNL     1       2.166  17.926   2.334  1.00  0.00    -0.351 OA
HETATM    3  C5  UNL     1       1.618  18.848   1.464  1.00  0.00     0.152 C 
HETATM    4  C6  UNL     1       1.804  18.358   0.045  1.00  0.00     0.042 C 
HETATM    5  C7  UNL     1       2.132  20.235   1.633  1.00  0.00     0.184 C 
HETATM    6  C16 UNL     1       3.577  20.296   2.083  1.00  0.00     0.183 C 
HETATM    7  C17 UNL     1       3.927  19.259   3.098  1.00  0.00     0.204 C 
ENDROOT
BRANCH   5   8
HETATM    8  O3  UNL     1       2.105  20.851   0.366  1.00  0.00    -0.348 OA
BRANCH   8   9
HETATM    9  C8  UNL     1       1.177  21.890   0.324  1.00  0.00     0.294 C 
HETATM   10  O4  UNL     1       1.338  22.632   1.481  1.00  0.00    -0.328 OA
HETATM   11  C9  UNL     1       0.493  23.713   1.570  1.00  0.00     0.273 C 
HETATM   12  O5  UNL     1      -0.815  23.383   1.881  1.00  0.00    -0.360 OA
HETATM   13  C12 UNL     1       0.480  24.596   0.368  1.00  0.00     0.036 C 
HETATM   14  C10 UNL     1      -1.623  24.383   1.350  1.00  0.00     0.172 C 
HETATM   15  C11 UNL     1      -0.991  24.553  -0.036  1.00  0.00     0.043 C 
HETATM   16  C13 UNL     1       0.783  26.039   0.714  1.00  0.00     0.023 C 
HETATM   17  C14 UNL     1       1.387  24.162  -0.729  1.00  0.00     0.164 C 
HETATM   18  C15 UNL     1       1.472  22.688  -0.931  1.00  0.00     0.203 C 
BRANCH  17  19
HETATM   19  O6  UNL     1       2.651  24.698  -0.522  1.00  0.00    -0.392 OA
ATOM     20  H6  UNL     1       3.282  24.234  -1.060  1.00  0.00     0.210 HD
ENDBRANCH  17  19
BRANCH  18  21
HETATM   21  O7  UNL     1       0.625  22.282  -1.973  1.00  0.00    -0.388 OA
ATOM     22  H7  UNL     1       0.512  21.339  -1.954  1.00  0.00     0.210 HD
ENDBRANCH  18  21
ENDBRANCH   8   9
ENDBRANCH   5   8
BRANCH   6  23
HETATM   23  O8  UNL     1       3.779  21.557   2.680  1.00  0.00    -0.390 OA
ATOM     24  H8  UNL     1       4.557  21.493   3.222  1.00  0.00     0.210 HD
ENDBRANCH   6  23
BRANCH   7  25
HETATM   25  O9  UNL     1       4.804  18.346   2.513  1.00  0.00    -0.388 OA
ATOM     26  H9  UNL     1       5.610  18.318   3.013  1.00  0.00     0.210 HD
ENDBRANCH   7  25
BRANCH   1  27
HETATM   27  O1  UNL     1       2.969  17.601   4.436  1.00  0.00    -0.355 OA
BRANCH  27  28
HETATM   28  C3  UNL     1       2.074  16.548   4.506  1.00  0.00     0.197 C 
BRANCH  28  29
HETATM   29  C2  UNL     1       2.568  15.610   5.552  1.00  0.00    -0.011 C 
HETATM   30  C1  UNL     1       2.681  16.003   6.824  1.00  0.00     0.009 C 
ENDBRANCH  28  29
ENDBRANCH  27  28
ENDBRANCH   1  27
TORSDOF 9
ENDMDL
MODEL 3
REMARK VINA RESULT: -6.086907152      3.859      6.817
REMARK  9 active torsions:
REMARK  status: ('A' for Active; 'I' for Inactive)
REMARK    1  A    between atoms: C2_2  and  C3_3 
REMARK    2  A    between atoms: C3_3  and  O1_4 
REMARK    3  A    between atoms: O1_4  and  C4_5 
REMARK    4  A    between atoms: C7_9  and  O3_10 
REMARK    5  A    between atoms: O3_10  and  C8_11 
REMARK    6  A    between atoms: C14_19  and  O6_20 
REMARK    7  A    between atoms: C15_22  and  O7_23 
REMARK    8  A    between atoms: C16_25  and  O8_26 
REMARK    9  A    between atoms: C17_28  and  O9_29 
ROOT
HETATM    1  C4  UNL     1       3.244  17.839   3.665  1.00  0.00     0.291 C 
HETATM    2  O2  UNL     1       3.425  17.326   4.947  1.00  0.00    -0.351 OA
HETATM    3  C5  UNL     1       2.236  16.850   5.463  1.00  0.00     0.152 C 
HETATM    4  C6  UNL     1       2.530  15.704   6.405  1.00  0.00     0.042 C 
HETATM    5  C7  UNL     1       1.230  16.466   4.435  1.00  0.00     0.184 C 
HETATM    6  C16 UNL     1       1.841  15.923   3.160  1.00  0.00     0.183 C 
HETATM    7  C17 UNL     1       3.075  16.649   2.738  1.00  0.00     0.204 C 
ENDROOT
BRANCH   5   8
HETATM    8  O3  UNL     1       0.467  15.407   4.968  1.00  0.00    -0.348 OA
BRANCH   8   9
HETATM    9  C8  UNL     1      -0.878  15.754   5.081  1.00  0.00     0.294 C 
HETATM   10  O4  UNL     1      -0.954  17.133   5.005  1.00  0.00    -0.328 OA
HETATM   11  C9  UNL     1      -2.236  17.624   5.084  1.00  0.00     0.273 C 
HETATM   12  O5  UNL     1      -2.775  17.594   6.359  1.00  0.00    -0.360 OA
HETATM   13  C12 UNL     1      -3.209  16.984   4.150  1.00  0.00     0.036 C 
HETATM   14  C10 UNL     1      -4.156  17.508   6.214  1.00  0.00     0.172 C 
HETATM   15  C11 UNL     1      -4.261  16.445   5.115  1.00  0.00     0.043 C 
HETATM   16  C13 UNL     1      -3.914  17.999   3.275  1.00  0.00     0.023 C 
HETATM   17  C14 UNL     1      -2.628  15.922   3.285  1.00  0.00     0.164 C 
HETATM   18  C15 UNL     1      -1.603  15.063   3.943  1.00  0.00     0.203 C 
BRANCH  17  19
HETATM   19  O6  UNL     1      -2.111  16.497   2.131  1.00  0.00    -0.392 OA
ATOM     20  H6  UNL     1      -2.177  17.442   2.193  1.00  0.00     0.210 HD
ENDBRANCH  17  19
BRANCH  18  21
HETATM   21  O7  UNL     1      -2.178  13.864   4.393  1.00  0.00    -0.388 OA
ATOM     22  H7  UNL     1      -3.103  13.844   4.177  1.00  0.00     0.210 HD
ENDBRANCH  18  21
ENDBRANCH   8   9
ENDBRANCH   5   8
BRANCH   6  23
HETATM   23  O8  UNL     1       0.886  16.080   2.135  1.00  0.00    -0.390 OA
ATOM     24  H8  UNL     1       1.271  16.643   1.473  1.00  0.00     0.210 HD
ENDBRANCH   6  23
BRANCH   7  25
HETATM   25  O9  UNL     1       4.164  15.791   2.882  1.00  0.00    -0.388 OA
ATOM     26  H9  UNL     1       4.415  15.751   3.797  1.00  0.00     0.210 HD
ENDBRANCH   7  25
BRANCH   1  27
HETATM   27  O1  UNL     1       4.376  18.517   3.261  1.00  0.00    -0.355 OA
BRANCH  27  28
HETATM   28  C3  UNL     1       4.129  19.517   2.336  1.00  0.00     0.197 C 
BRANCH  28  29
HETATM   29  C2  UNL     1       3.922  20.783   3.089  1.00  0.00    -0.011 C 
HETATM   30  C1  UNL     1       2.753  21.427   3.036  1.00  0.00     0.009 C 
ENDBRANCH  28  29
ENDBRANCH  27  28
ENDBRANCH   1  27
TORSDOF 9
ENDMDL
MODEL 4
REMARK VINA RESULT: -5.862166889      1.162      1.725
REMARK  9 active torsions:
REMARK  status: ('A' for Active; 'I' for Inactive)
REMARK    1  A    between atoms: C2_2  and  C3_3 
REMARK    2  A    between atoms: C3_3  and  O1_4 
REMARK    3  A    between atoms: O1_4  and  C4_5 
REMARK    4  A    between atoms: C7_9  and  O3_10 
REMARK    5  A    between atoms: O3_10  and  C8_11 
REMARK    6  A    between atoms: C14_19  and  O6_20 
REMARK    7  A    between atoms: C15_22  and  O7_23 
REMARK    8  A    between atoms: C16_25  and  O8_26 
REMARK    9  A    between atoms: C17_28  and  O9_29 
ROOT
HETATM    1  C4  UNL     1       3.049  18.394   3.255  1.00  0.00     0.291 C 
HETATM    2  O2  UNL     1       2.578  18.136   1.970  1.00  0.00    -0.351 OA
HETATM    3  C5  UNL     1       1.694  19.113   1.561  1.00  0.00     0.152 C 
HETATM    4  C6  UNL     1       1.784  19.263   0.058  1.00  0.00     0.042 C 
HETATM    5  C7  UNL     1       1.862  20.423   2.249  1.00  0.00     0.184 C 
HETATM    6  C16 UNL     1       3.295  20.728   2.631  1.00  0.00     0.183 C 
HETATM    7  C17 UNL     1       4.041  19.537   3.135  1.00  0.00     0.204 C 
ENDROOT
BRANCH   5   8
HETATM    8  O3  UNL     1       1.493  21.430   1.334  1.00  0.00    -0.348 OA
BRANCH   8   9
HETATM    9  C8  UNL     1       0.499  22.255   1.857  1.00  0.00     0.294 C 
HETATM   10  O4  UNL     1       0.142  21.737   3.090  1.00  0.00    -0.328 OA
HETATM   11  C9  UNL     1      -0.826  22.466   3.740  1.00  0.00     0.273 C 
HETATM   12  O5  UNL     1      -2.100  22.301   3.223  1.00  0.00    -0.360 OA
HETATM   13  C12 UNL     1      -0.547  23.930   3.836  1.00  0.00     0.036 C 
HETATM   14  C10 UNL     1      -2.806  23.465   3.505  1.00  0.00     0.172 C 
HETATM   15  C11 UNL     1      -1.765  24.527   3.136  1.00  0.00     0.043 C 
HETATM   16  C13 UNL     1      -0.590  24.428   5.265  1.00  0.00     0.023 C 
HETATM   17  C14 UNL     1       0.736  24.357   3.215  1.00  0.00     0.164 C 
HETATM   18  C15 UNL     1       1.095  23.646   1.955  1.00  0.00     0.203 C 
BRANCH  17  19
HETATM   19  O6  UNL     1       1.760  24.242   4.146  1.00  0.00    -0.392 OA
ATOM     20  H6  UNL     1       2.207  25.076   4.228  1.00  0.00     0.210 HD
ENDBRANCH  17  19
BRANCH  18  21
HETATM   21  O7  UNL     1       0.728  24.409   0.836  1.00  0.00    -0.388 OA
ATOM     22  H7  UNL     1       0.916  25.327   0.990  1.00  0.00     0.210 HD
ENDBRANCH  18  21
ENDBRANCH   8   9
ENDBRANCH   5   8
BRANCH   6  23
HETATM   23  O8  UNL     1       3.260  21.677   3.674  1.00  0.00    -0.390 OA
ATOM     24  H8  UNL     1       4.128  22.059   3.739  1.00  0.00     0.210 HD
ENDBRANCH   6  23
BRANCH   7  25
HETATM   25  O9  UNL     1       5.022  19.203   2.203  1.00  0.00    -0.388 OA
ATOM     26  H9  UNL     1       5.602  19.943   2.076  1.00  0.00     0.210 HD
ENDBRANCH   7  25
BRANCH   1  27
HETATM   27  O1  UNL     1       3.739  17.300   3.737  1.00  0.00    -0.355 OA
BRANCH  27  28
HETATM   28  C3  UNL     1       2.928  16.335   4.308  1.00  0.00     0.197 C 
BRANCH  28  29
HETATM   29  C2  UNL     1       2.644  16.759   5.706  1.00  0.00    -0.011 C 
HETATM   30  C1  UNL     1       2.694  15.880   6.711  1.00  0.00     0.009 C 
ENDBRANCH  28  29
ENDBRANCH  27  28
ENDBRANCH   1  27
TORSDOF 9
ENDMDL
MODEL 5
REMARK VINA RESULT: -5.756397872      2.531      3.352
REMARK  9 active torsions:
REMARK  status: ('A' for Active; 'I' for Inactive)
REMARK    1  A    between atoms: C2_2  and  C3_3 
REMARK    2  A    between atoms: C3_3  and  O1_4 
REMARK    3  A    between atoms: O1_4  and  C4_5 
REMARK    4  A    between atoms: C7_9  and  O3_10 
REMARK    5  A    between atoms: O3_10  and  C8_11 
REMARK    6  A    between atoms: C14_19  and  O6_20 
REMARK    7  A    between atoms: C15_22  and  O7_23 
REMARK    8  A    between atoms: C16_25  and  O8_26 
REMARK    9  A    between atoms: C17_28  and  O9_29 
ROOT
HETATM    1  C4  UNL     1       2.630  18.593   3.452  1.00  0.00     0.291 C 
HETATM    2  O2  UNL     1       2.167  17.852   2.367  1.00  0.00    -0.351 OA
HETATM    3  C5  UNL     1       1.608  18.673   1.409  1.00  0.00     0.152 C 
HETATM    4  C6  UNL     1       1.807  18.047   0.047  1.00  0.00     0.042 C 
HETATM    5  C7  UNL     1       2.099  20.078   1.440  1.00  0.00     0.184 C 
HETATM    6  C16 UNL     1       3.541  20.207   1.884  1.00  0.00     0.183 C 
HETATM    7  C17 UNL     1       3.903  19.282   2.999  1.00  0.00     0.204 C 
ENDROOT
BRANCH   5   8
HETATM    8  O3  UNL     1       2.067  20.564   0.117  1.00  0.00    -0.348 OA
BRANCH   8   9
HETATM    9  C8  UNL     1       1.284  21.713   0.015  1.00  0.00     0.294 C 
HETATM   10  O4  UNL     1       2.054  22.681  -0.604  1.00  0.00    -0.328 OA
HETATM   11  C9  UNL     1       1.399  23.876  -0.791  1.00  0.00     0.273 C 
HETATM   12  O5  UNL     1       1.256  24.628   0.362  1.00  0.00    -0.360 OA
HETATM   13  C12 UNL     1       0.062  23.760  -1.444  1.00  0.00     0.036 C 
HETATM   14  C10 UNL     1       0.123  25.417   0.193  1.00  0.00     0.172 C 
HETATM   15  C11 UNL     1      -0.852  24.394  -0.399  1.00  0.00     0.043 C 
HETATM   16  C13 UNL     1      -0.047  24.623  -2.683  1.00  0.00     0.023 C 
HETATM   17  C14 UNL     1      -0.341  22.369  -1.787  1.00  0.00     0.164 C 
HETATM   18  C15 UNL     1       0.057  21.333  -0.792  1.00  0.00     0.203 C 
BRANCH  17  19
HETATM   19  O6  UNL     1       0.147  22.045  -3.046  1.00  0.00    -0.392 OA
ATOM     20  H6  UNL     1      -0.190  21.196  -3.307  1.00  0.00     0.210 HD
ENDBRANCH  17  19
BRANCH  18  21
HETATM   21  O7  UNL     1      -1.012  21.035   0.066  1.00  0.00    -0.388 OA
ATOM     22  H7  UNL     1      -1.743  20.687  -0.432  1.00  0.00     0.210 HD
ENDBRANCH  18  21
ENDBRANCH   8   9
ENDBRANCH   5   8
BRANCH   6  23
HETATM   23  O8  UNL     1       3.720  21.525   2.353  1.00  0.00    -0.390 OA
ATOM     24  H8  UNL     1       4.622  21.603   2.640  1.00  0.00     0.210 HD
ENDBRANCH   6  23
BRANCH   7  25
HETATM   25  O9  UNL     1       4.797  18.331   2.510  1.00  0.00    -0.388 OA
ATOM     26  H9  UNL     1       4.882  18.431   1.570  1.00  0.00     0.210 HD
ENDBRANCH   7  25
BRANCH   1  27
HETATM   27  O1  UNL     1       2.966  17.752   4.493  1.00  0.00    -0.355 OA
BRANCH  27  28
HETATM   28  C3  UNL     1       1.989  16.822   4.801  1.00  0.00     0.197 C 
BRANCH  28  29
HETATM   29  C2  UNL     1       2.621  15.769   5.642  1.00  0.00    -0.011 C 
HETATM   30  C1  UNL     1       2.648  15.883   6.973  1.00  0.00     0.009 C 
ENDBRANCH  28  29
ENDBRANCH  27  28
ENDBRANCH   1  27
TORSDOF 9
ENDMDL
