MODEL 1
REMARK VINA RESULT: -7.987812551      0.000      0.000
REMARK  3 active torsions:
REMARK  status: ('A' for Active; 'I' for Inactive)
REMARK    1  A    between atoms: C9_9  and  O1_10 
REMARK    2  A    between atoms: C13_15  and  O2_16 
REMARK    3  A    between atoms: C16_20  and  O3_21 
ROOT
HETATM    1  C1  UNL     1       2.730  20.442   1.253  1.00  0.00     0.017 C 
HETATM    2  C2  UNL     1       1.664  20.451   0.667  1.00  0.00    -0.082 C 
HETATM    3  C3  UNL     1       0.398  20.477  -0.009  1.00  0.00    -0.002 C 
HETATM    4  C4  UNL     1      -0.732  20.104   0.577  1.00  0.00    -0.004 C 
HETATM    5  C5  UNL     1      -1.966  20.179  -0.229  1.00  0.00     0.028 C 
HETATM    6  C6  UNL     1      -2.131  21.512  -0.912  1.00  0.00     0.024 C 
HETATM    7  C7  UNL     1      -3.208  21.222  -1.932  1.00  0.00     0.016 C 
HETATM    8  C8  UNL     1      -2.781  19.885  -2.486  1.00  0.00     0.033 A 
HETATM    9  C9  UNL     1      -3.862  18.851  -2.453  1.00  0.00     0.067 A 
HETATM   10  C10 UNL     1      -3.499  17.388  -2.469  1.00  0.00     0.047 A 
HETATM   11  C11 UNL     1      -3.143  18.190  -1.290  1.00  0.00     0.035 A 
HETATM   12  C12 UNL     1      -2.051  19.210  -1.346  1.00  0.00     0.006 A 
HETATM   13  C13 UNL     1      -0.734  18.653  -1.808  1.00  0.00     0.129 C 
HETATM   14  C14 UNL     1       0.206  19.712  -2.319  1.00  0.00     0.045 C 
HETATM   15  C15 UNL     1       0.262  20.925  -1.427  1.00  0.00     0.058 C 
HETATM   16  C16 UNL     1      -0.875  21.869  -1.639  1.00  0.00     0.132 C 
ENDROOT
BRANCH  16  17
HETATM   17  O3  UNL     1      -0.469  23.136  -1.159  1.00  0.00    -0.394 OA
ATOM     18  H3  UNL     1      -0.693  23.166  -0.237  1.00  0.00     0.210 HD
ENDBRANCH  16  17
BRANCH  13  19
HETATM   19  O2  UNL     1      -0.142  17.856  -0.827  1.00  0.00    -0.395 OA
ATOM     20  H2  UNL     1      -0.663  17.084  -0.644  1.00  0.00     0.210 HD
ENDBRANCH  13  19
BRANCH   9  21
HETATM   21  O1  UNL     1      -5.188  19.219  -2.292  1.00  0.00    -0.389 OA
ATOM     22  H1  UNL     1      -5.429  20.133  -2.191  1.00  0.00     0.210 HD
ENDBRANCH   9  21
TORSDOF 3
ENDMDL
MODEL 2
REMARK VINA RESULT: -7.968109170      2.280      5.801
REMARK  3 active torsions:
REMARK  status: ('A' for Active; 'I' for Inactive)
REMARK    1  A    between atoms: C9_9  and  O1_10 
REMARK    2  A    between atoms: C13_15  and  O2_16 
REMARK    3  A    between atoms: C16_20  and  O3_21 
ROOT
HETATM    1  C1  UNL     1      -2.665  20.237  -1.233  1.00  0.00     0.017 C 
HETATM    2  C2  UNL     1      -1.606  20.276  -0.636  1.00  0.00    -0.082 C 
HETATM    3  C3  UNL     1      -0.348  20.339   0.053  1.00  0.00    -0.002 C 
HETATM    4  C4  UNL     1       0.793  19.967  -0.511  1.00  0.00    -0.004 C 
HETATM    5  C5  UNL     1       2.017  20.081   0.306  1.00  0.00     0.028 C 
HETATM    6  C6  UNL     1       2.155  21.434   0.955  1.00  0.00     0.024 C 
HETATM    7  C7  UNL     1       3.226  21.187   1.994  1.00  0.00     0.016 C 
HETATM    8  C8  UNL     1       2.811  19.859   2.578  1.00  0.00     0.033 A 
HETATM    9  C9  UNL     1       3.908  18.840   2.584  1.00  0.00     0.067 A 
HETATM   10  C10 UNL     1       3.565  17.372   2.635  1.00  0.00     0.047 A 
HETATM   11  C11 UNL     1       3.211  18.139   1.431  1.00  0.00     0.035 A 
HETATM   12  C12 UNL     1       2.104  19.143   1.449  1.00  0.00     0.006 A 
HETATM   13  C13 UNL     1       0.790  18.579   1.911  1.00  0.00     0.129 C 
HETATM   14  C14 UNL     1      -0.171  19.637   2.384  1.00  0.00     0.045 C 
HETATM   15  C15 UNL     1      -0.235  20.826   1.460  1.00  0.00     0.058 C 
HETATM   16  C16 UNL     1       0.887  21.791   1.659  1.00  0.00     0.132 C 
ENDROOT
BRANCH  16  17
HETATM   17  O3  UNL     1       0.468  23.039   1.142  1.00  0.00    -0.394 OA
ATOM     18  H3  UNL     1       0.389  22.935   0.201  1.00  0.00     0.210 HD
ENDBRANCH  16  17
BRANCH  13  19
HETATM   19  O2  UNL     1       0.220  17.749   0.945  1.00  0.00    -0.395 OA
ATOM     20  H2  UNL     1      -0.035  18.238   0.171  1.00  0.00     0.210 HD
ENDBRANCH  13  19
BRANCH   9  21
HETATM   21  O1  UNL     1       5.229  19.223   2.428  1.00  0.00    -0.389 OA
ATOM     22  H1  UNL     1       5.797  18.771   1.815  1.00  0.00     0.210 HD
ENDBRANCH   9  21
TORSDOF 3
ENDMDL
MODEL 3
REMARK VINA RESULT: -7.898280511      1.361      2.952
REMARK  3 active torsions:
REMARK  status: ('A' for Active; 'I' for Inactive)
REMARK    1  A    between atoms: C9_9  and  O1_10 
REMARK    2  A    between atoms: C13_15  and  O2_16 
REMARK    3  A    between atoms: C16_20  and  O3_21 
ROOT
HETATM    1  C1  UNL     1       2.563  21.569   0.947  1.00  0.00     0.017 C 
HETATM    2  C2  UNL     1       1.777  20.982   0.228  1.00  0.00    -0.082 C 
HETATM    3  C3  UNL     1       0.866  20.288  -0.637  1.00  0.00    -0.002 C 
HETATM    4  C4  UNL     1       0.476  20.781  -1.806  1.00  0.00    -0.004 C 
HETATM    5  C5  UNL     1      -0.464  19.966  -2.600  1.00  0.00     0.028 C 
HETATM    6  C6  UNL     1      -0.010  18.536  -2.746  1.00  0.00     0.024 C 
HETATM    7  C7  UNL     1      -1.263  17.849  -3.241  1.00  0.00     0.016 C 
HETATM    8  C8  UNL     1      -2.333  18.452  -2.365  1.00  0.00     0.033 A 
HETATM    9  C9  UNL     1      -3.485  19.020  -3.134  1.00  0.00     0.067 A 
HETATM   10  C10 UNL     1      -4.354  20.080  -2.505  1.00  0.00     0.047 A 
HETATM   11  C11 UNL     1      -2.958  20.410  -2.823  1.00  0.00     0.035 A 
HETATM   12  C12 UNL     1      -1.825  19.838  -2.032  1.00  0.00     0.006 A 
HETATM   13  C13 UNL     1      -1.928  20.106  -0.557  1.00  0.00     0.129 C 
HETATM   14  C14 UNL     1      -1.099  19.162   0.272  1.00  0.00     0.045 C 
HETATM   15  C15 UNL     1       0.287  18.958  -0.282  1.00  0.00     0.058 C 
HETATM   16  C16 UNL     1       0.338  17.976  -1.405  1.00  0.00     0.132 C 
ENDROOT
BRANCH  16  17
HETATM   17  O3  UNL     1       1.667  17.500  -1.492  1.00  0.00    -0.394 OA
ATOM     18  H3  UNL     1       1.964  17.675  -2.377  1.00  0.00     0.210 HD
ENDBRANCH  16  17
BRANCH  13  19
HETATM   19  O2  UNL     1      -1.654  21.442  -0.259  1.00  0.00    -0.395 OA
ATOM     20  H2  UNL     1      -2.391  21.861   0.170  1.00  0.00     0.210 HD
ENDBRANCH  13  19
BRANCH   9  21
HETATM   21  O1  UNL     1      -3.693  18.670  -4.457  1.00  0.00    -0.389 OA
ATOM     22  H1  UNL     1      -3.736  19.334  -5.135  1.00  0.00     0.210 HD
ENDBRANCH   9  21
TORSDOF 3
ENDMDL
MODEL 4
REMARK VINA RESULT: -7.897078313      2.575      6.097
REMARK  3 active torsions:
REMARK  status: ('A' for Active; 'I' for Inactive)
REMARK    1  A    between atoms: C9_9  and  O1_10 
REMARK    2  A    between atoms: C13_15  and  O2_16 
REMARK    3  A    between atoms: C16_20  and  O3_21 
ROOT
HETATM    1  C1  UNL     1      -2.548  21.575  -0.891  1.00  0.00     0.017 C 
HETATM    2  C2  UNL     1      -1.760  20.985  -0.177  1.00  0.00    -0.082 C 
HETATM    3  C3  UNL     1      -0.846  20.287   0.682  1.00  0.00    -0.002 C 
HETATM    4  C4  UNL     1      -0.450  20.776   1.850  1.00  0.00    -0.004 C 
HETATM    5  C5  UNL     1       0.492  19.958   2.638  1.00  0.00     0.028 C 
HETATM    6  C6  UNL     1       0.037  18.528   2.782  1.00  0.00     0.024 C 
HETATM    7  C7  UNL     1       1.290  17.837   3.270  1.00  0.00     0.016 C 
HETATM    8  C8  UNL     1       2.357  18.441   2.390  1.00  0.00     0.033 A 
HETATM    9  C9  UNL     1       3.514  19.005   3.155  1.00  0.00     0.067 A 
HETATM   10  C10 UNL     1       4.382  20.065   2.525  1.00  0.00     0.047 A 
HETATM   11  C11 UNL     1       2.988  20.397   2.850  1.00  0.00     0.035 A 
HETATM   12  C12 UNL     1       1.851  19.828   2.064  1.00  0.00     0.006 A 
HETATM   13  C13 UNL     1       1.947  20.100   0.589  1.00  0.00     0.129 C 
HETATM   14  C14 UNL     1       1.113  19.160  -0.239  1.00  0.00     0.045 C 
HETATM   15  C15 UNL     1      -0.272  18.957   0.321  1.00  0.00     0.058 C 
HETATM   16  C16 UNL     1      -0.319  17.972   1.442  1.00  0.00     0.132 C 
ENDROOT
BRANCH  16  17
HETATM   17  O3  UNL     1      -1.648  17.499   1.534  1.00  0.00    -0.394 OA
ATOM     18  H3  UNL     1      -2.168  18.017   0.931  1.00  0.00     0.210 HD
ENDBRANCH  16  17
BRANCH  13  19
HETATM   19  O2  UNL     1       1.674  21.438   0.295  1.00  0.00    -0.395 OA
ATOM     20  H2  UNL     1       1.059  21.518  -0.424  1.00  0.00     0.210 HD
ENDBRANCH  13  19
BRANCH   9  21
HETATM   21  O1  UNL     1       3.728  18.651   4.477  1.00  0.00    -0.389 OA
ATOM     22  H1  UNL     1       4.266  17.900   4.697  1.00  0.00     0.210 HD
ENDBRANCH   9  21
TORSDOF 3
ENDMDL
MODEL 5
REMARK VINA RESULT: -7.851090457      3.730      6.634
REMARK  3 active torsions:
REMARK  status: ('A' for Active; 'I' for Inactive)
REMARK    1  A    between atoms: C9_9  and  O1_10 
REMARK    2  A    between atoms: C13_15  and  O2_16 
REMARK    3  A    between atoms: C16_20  and  O3_21 
ROOT
HETATM    1  C1  UNL     1      -1.564  21.033   0.378  1.00  0.00     0.017 C 
HETATM    2  C2  UNL     1      -0.797  20.165   0.751  1.00  0.00    -0.082 C 
HETATM    3  C3  UNL     1       0.096  19.125   1.176  1.00  0.00    -0.002 C 
HETATM    4  C4  UNL     1      -0.320  18.055   1.841  1.00  0.00    -0.004 C 
HETATM    5  C5  UNL     1       0.701  17.059   2.221  1.00  0.00     0.028 C 
HETATM    6  C6  UNL     1       1.581  16.663   1.063  1.00  0.00     0.024 C 
HETATM    7  C7  UNL     1       2.730  15.966   1.755  1.00  0.00     0.016 C 
HETATM    8  C8  UNL     1       3.005  16.876   2.927  1.00  0.00     0.033 A 
HETATM    9  C9  UNL     1       3.027  16.165   4.243  1.00  0.00     0.067 A 
HETATM   10  C10 UNL     1       2.773  16.936   5.514  1.00  0.00     0.047 A 
HETATM   11  C11 UNL     1       1.672  16.776   4.553  1.00  0.00     0.035 A 
HETATM   12  C12 UNL     1       1.668  17.506   3.249  1.00  0.00     0.006 A 
HETATM   13  C13 UNL     1       1.800  18.996   3.395  1.00  0.00     0.129 C 
HETATM   14  C14 UNL     1       2.272  19.672   2.136  1.00  0.00     0.045 C 
HETATM   15  C15 UNL     1       1.563  19.175   0.903  1.00  0.00     0.058 C 
HETATM   16  C16 UNL     1       2.108  17.885   0.385  1.00  0.00     0.132 C 
ENDROOT
BRANCH  16  17
HETATM   17  O3  UNL     1       1.744  17.788  -0.978  1.00  0.00    -0.394 OA
ATOM     18  H3  UNL     1       1.243  16.986  -1.073  1.00  0.00     0.210 HD
ENDBRANCH  16  17
BRANCH  13  19
HETATM   19  O2  UNL     1       0.625  19.568   3.887  1.00  0.00    -0.395 OA
ATOM     20  H2  UNL     1       0.472  19.324   4.792  1.00  0.00     0.210 HD
ENDBRANCH  13  19
BRANCH   9  21
HETATM   21  O1  UNL     1       3.164  14.788   4.301  1.00  0.00    -0.389 OA
ATOM     22  H1  UNL     1       3.036  14.321   5.119  1.00  0.00     0.210 HD
ENDBRANCH   9  21
TORSDOF 3
ENDMDL
