MODEL 1
REMARK VINA RESULT: -7.706647204      0.000      0.000
REMARK  2 active torsions:
REMARK  status: ('A' for Active; 'I' for Inactive)
REMARK    1  A    between atoms: C8_8  and  O1_9 
REMARK    2  A    between atoms: C16_19  and  O2_20 
ROOT
HETATM    1  C1  UNL     1       2.875  20.248   1.460  1.00  0.00     0.011 C 
HETATM    2  C2  UNL     1       1.536  20.192   0.674  1.00  0.00    -0.009 C 
HETATM    3  C3  UNL     1       1.248  21.666   0.394  1.00  0.00    -0.005 C 
HETATM    4  C4  UNL     1       0.504  21.835   1.737  1.00  0.00     0.016 C 
HETATM    5  C5  UNL     1      -0.557  20.871   1.432  1.00  0.00    -0.023 A 
HETATM    6  C6  UNL     1       0.410  19.754   1.540  1.00  0.00     0.006 A 
HETATM    7  C7  UNL     1      -0.937  19.532   1.374  1.00  0.00     0.031 A 
HETATM    8  C8  UNL     1      -1.339  18.798   0.116  1.00  0.00     0.160 C 
HETATM    9  C9  UNL     1      -2.075  19.567  -0.906  1.00  0.00     0.286 C 
HETATM   10  N1  UNL     1      -1.693  19.405  -2.284  1.00  0.00     0.095 N 
HETATM   11  C10 UNL     1      -1.321  18.145  -2.715  1.00  0.00     0.310 C 
HETATM   12  C11 UNL     1      -0.786  20.513  -2.678  1.00  0.00     0.280 C 
HETATM   13  C12 UNL     1      -0.387  20.925  -1.369  1.00  0.00     0.055 C 
HETATM   14  C13 UNL     1       0.386  21.966  -0.798  1.00  0.00    -0.001 C 
HETATM   15  C14 UNL     1      -0.758  22.810  -0.185  1.00  0.00     0.014 C 
HETATM   16  C15 UNL     1      -1.394  21.595   0.525  1.00  0.00     0.032 C 
HETATM   17  C16 UNL     1      -1.805  20.977  -0.734  1.00  0.00     0.101 C 
ENDROOT
BRANCH   8  18
HETATM   18  O1  UNL     1      -2.208  17.725   0.465  1.00  0.00    -0.393 OA
ATOM     19  H1  UNL     1      -1.733  17.109   1.011  1.00  0.00     0.210 HD
ENDBRANCH   8  18
BRANCH  17  20
HETATM   20  O2  UNL     1      -2.711  21.719  -1.362  1.00  0.00    -0.387 OA
ATOM     21  H2  UNL     1      -2.848  22.546  -0.914  1.00  0.00     0.210 HD
ENDBRANCH  17  20
TORSDOF 2
ENDMDL
MODEL 2
REMARK VINA RESULT: -7.658097289      2.520      4.189
REMARK  2 active torsions:
REMARK  status: ('A' for Active; 'I' for Inactive)
REMARK    1  A    between atoms: C8_8  and  O1_9 
REMARK    2  A    between atoms: C16_19  and  O2_20 
ROOT
HETATM    1  C1  UNL     1      -2.810  20.122  -1.261  1.00  0.00     0.011 C 
HETATM    2  C2  UNL     1      -1.527  20.043  -0.388  1.00  0.00    -0.009 C 
HETATM    3  C3  UNL     1      -1.381  21.473   0.126  1.00  0.00    -0.005 C 
HETATM    4  C4  UNL     1      -0.565  21.898  -1.114  1.00  0.00     0.016 C 
HETATM    5  C5  UNL     1       0.549  20.976  -0.871  1.00  0.00    -0.023 A 
HETATM    6  C6  UNL     1      -0.313  19.823  -1.219  1.00  0.00     0.006 A 
HETATM    7  C7  UNL     1       1.033  19.675  -0.981  1.00  0.00     0.031 A 
HETATM    8  C8  UNL     1       1.408  18.788   0.183  1.00  0.00     0.160 C 
HETATM    9  C9  UNL     1       2.009  19.443   1.361  1.00  0.00     0.286 C 
HETATM   10  N1  UNL     1       1.550  19.045   2.666  1.00  0.00     0.095 N 
HETATM   11  C10 UNL     1       1.255  17.711   2.877  1.00  0.00     0.310 C 
HETATM   12  C11 UNL     1       0.530  20.013   3.146  1.00  0.00     0.280 C 
HETATM   13  C12 UNL     1       0.188  20.590   1.884  1.00  0.00     0.055 C 
HETATM   14  C13 UNL     1      -0.629  21.649   1.414  1.00  0.00    -0.001 C 
HETATM   15  C14 UNL     1       0.481  22.656   1.023  1.00  0.00     0.014 C 
HETATM   16  C15 UNL     1       1.261  21.611   0.194  1.00  0.00     0.032 C 
HETATM   17  C16 UNL     1       1.636  20.839   1.378  1.00  0.00     0.101 C 
ENDROOT
BRANCH   8  18
HETATM   18  O1  UNL     1       2.385  17.845  -0.251  1.00  0.00    -0.393 OA
ATOM     19  H1  UNL     1       2.608  18.028  -1.156  1.00  0.00     0.210 HD
ENDBRANCH   8  18
BRANCH  17  20
HETATM   20  O2  UNL     1       2.433  21.540   2.177  1.00  0.00    -0.387 OA
ATOM     21  H2  UNL     1       2.715  22.346   1.761  1.00  0.00     0.210 HD
ENDBRANCH  17  20
TORSDOF 2
ENDMDL
MODEL 3
REMARK VINA RESULT: -7.565875323      1.429      2.210
REMARK  2 active torsions:
REMARK  status: ('A' for Active; 'I' for Inactive)
REMARK    1  A    between atoms: C8_8  and  O1_9 
REMARK    2  A    between atoms: C16_19  and  O2_20 
ROOT
HETATM    1  C1  UNL     1       1.931  21.896  -0.104  1.00  0.00     0.011 C 
HETATM    2  C2  UNL     1       0.867  20.791  -0.350  1.00  0.00    -0.009 C 
HETATM    3  C3  UNL     1       0.022  21.383  -1.477  1.00  0.00    -0.005 C 
HETATM    4  C4  UNL     1      -0.903  22.113  -0.479  1.00  0.00     0.016 C 
HETATM    5  C5  UNL     1      -1.399  20.895   0.169  1.00  0.00    -0.023 A 
HETATM    6  C6  UNL     1      -0.075  20.673   0.795  1.00  0.00     0.006 A 
HETATM    7  C7  UNL     1      -1.162  19.889   1.102  1.00  0.00     0.031 A 
HETATM    8  C8  UNL     1      -1.034  18.419   0.780  1.00  0.00     0.160 C 
HETATM    9  C9  UNL     1      -1.877  17.894  -0.311  1.00  0.00     0.286 C 
HETATM   10  N1  UNL     1      -1.274  17.001  -1.265  1.00  0.00     0.095 N 
HETATM   11  C10 UNL     1      -0.346  16.084  -0.806  1.00  0.00     0.310 C 
HETATM   12  C11 UNL     1      -0.879  17.765  -2.476  1.00  0.00     0.280 C 
HETATM   13  C12 UNL     1      -0.880  19.072  -1.900  1.00  0.00     0.055 C 
HETATM   14  C13 UNL     1      -0.710  20.405  -2.351  1.00  0.00    -0.001 C 
HETATM   15  C14 UNL     1      -2.178  20.887  -2.241  1.00  0.00     0.014 C 
HETATM   16  C15 UNL     1      -2.329  20.382  -0.789  1.00  0.00     0.032 C 
HETATM   17  C16 UNL     1      -2.258  18.978  -1.189  1.00  0.00     0.101 C 
ENDROOT
BRANCH   8  18
HETATM   18  O1  UNL     1      -1.405  17.660   1.928  1.00  0.00    -0.393 OA
ATOM     19  H1  UNL     1      -2.352  17.597   1.962  1.00  0.00     0.210 HD
ENDBRANCH   8  18
BRANCH  17  20
HETATM   20  O2  UNL     1      -3.296  18.640  -1.946  1.00  0.00    -0.387 OA
ATOM     21  H2  UNL     1      -3.436  17.700  -1.938  1.00  0.00     0.210 HD
ENDBRANCH  17  20
TORSDOF 2
ENDMDL
MODEL 4
REMARK VINA RESULT: -7.548255963      1.739      3.460
REMARK  2 active torsions:
REMARK  status: ('A' for Active; 'I' for Inactive)
REMARK    1  A    between atoms: C8_8  and  O1_9 
REMARK    2  A    between atoms: C16_19  and  O2_20 
ROOT
HETATM    1  C1  UNL     1      -0.437  21.820   1.797  1.00  0.00     0.011 C 
HETATM    2  C2  UNL     1      -0.884  21.067   0.514  1.00  0.00    -0.009 C 
HETATM    3  C3  UNL     1       0.073  19.877   0.472  1.00  0.00    -0.005 C 
HETATM    4  C4  UNL     1       1.131  20.680  -0.315  1.00  0.00     0.016 C 
HETATM    5  C5  UNL     1       0.288  20.910  -1.492  1.00  0.00    -0.023 A 
HETATM    6  C6  UNL     1      -0.564  21.841  -0.715  1.00  0.00     0.006 A 
HETATM    7  C7  UNL     1      -0.733  21.662  -2.068  1.00  0.00     0.031 A 
HETATM    8  C8  UNL     1      -2.073  21.117  -2.503  1.00  0.00     0.160 C 
HETATM    9  C9  UNL     1      -2.096  19.748  -3.052  1.00  0.00     0.286 C 
HETATM   10  N1  UNL     1      -3.143  18.861  -2.620  1.00  0.00     0.095 N 
HETATM   11  C10 UNL     1      -4.406  19.388  -2.421  1.00  0.00     0.310 C 
HETATM   12  C11 UNL     1      -2.633  17.988  -1.532  1.00  0.00     0.280 C 
HETATM   13  C12 UNL     1      -1.503  18.776  -1.152  1.00  0.00     0.055 C 
HETATM   14  C13 UNL     1      -0.406  18.657  -0.263  1.00  0.00    -0.001 C 
HETATM   15  C14 UNL     1       0.721  18.422  -1.298  1.00  0.00     0.014 C 
HETATM   16  C15 UNL     1       0.313  19.642  -2.153  1.00  0.00     0.032 C 
HETATM   17  C16 UNL     1      -0.940  19.020  -2.579  1.00  0.00     0.101 C 
ENDROOT
BRANCH   8  18
HETATM   18  O1  UNL     1      -2.589  21.940  -3.546  1.00  0.00    -0.393 OA
ATOM     19  H1  UNL     1      -3.395  21.554  -3.872  1.00  0.00     0.210 HD
ENDBRANCH   8  18
BRANCH  17  20
HETATM   20  O2  UNL     1      -0.714  17.942  -3.322  1.00  0.00    -0.387 OA
ATOM     21  H2  UNL     1      -0.009  17.417  -2.961  1.00  0.00     0.210 HD
ENDBRANCH  17  20
TORSDOF 2
ENDMDL
MODEL 5
REMARK VINA RESULT: -7.539197584      2.481      4.195
REMARK  2 active torsions:
REMARK  status: ('A' for Active; 'I' for Inactive)
REMARK    1  A    between atoms: C8_8  and  O1_9 
REMARK    2  A    between atoms: C16_19  and  O2_20 
ROOT
HETATM    1  C1  UNL     1      -1.871  22.027   0.173  1.00  0.00     0.011 C 
HETATM    2  C2  UNL     1      -0.860  20.882   0.456  1.00  0.00    -0.009 C 
HETATM    3  C3  UNL     1      -0.070  21.417   1.649  1.00  0.00    -0.005 C 
HETATM    4  C4  UNL     1       0.939  22.140   0.731  1.00  0.00     0.016 C 
HETATM    5  C5  UNL     1       1.437  20.923   0.083  1.00  0.00    -0.023 A 
HETATM    6  C6  UNL     1       0.149  20.761  -0.631  1.00  0.00     0.006 A 
HETATM    7  C7  UNL     1       1.228  19.949  -0.891  1.00  0.00     0.031 A 
HETATM    8  C8  UNL     1       1.034  18.477  -0.616  1.00  0.00     0.160 C 
HETATM    9  C9  UNL     1       1.788  17.897   0.511  1.00  0.00     0.286 C 
HETATM   10  N1  UNL     1       1.098  17.000   1.400  1.00  0.00     0.095 N 
HETATM   11  C10 UNL     1       0.173  16.127   0.859  1.00  0.00     0.310 C 
HETATM   12  C11 UNL     1       0.651  17.746   2.604  1.00  0.00     0.280 C 
HETATM   13  C12 UNL     1       0.730  19.067   2.065  1.00  0.00     0.055 C 
HETATM   14  C13 UNL     1       0.574  20.393   2.540  1.00  0.00    -0.001 C 
HETATM   15  C14 UNL     1       2.060  20.829   2.536  1.00  0.00     0.014 C 
HETATM   16  C15 UNL     1       2.287  20.356   1.083  1.00  0.00     0.032 C 
HETATM   17  C16 UNL     1       2.147  18.945   1.440  1.00  0.00     0.101 C 
ENDROOT
BRANCH   8  18
HETATM   18  O1  UNL     1       1.452  17.735  -1.759  1.00  0.00    -0.393 OA
ATOM     19  H1  UNL     1       2.121  18.229  -2.219  1.00  0.00     0.210 HD
ENDBRANCH   8  18
BRANCH  17  20
HETATM   20  O2  UNL     1       3.123  18.554   2.251  1.00  0.00    -0.387 OA
ATOM     21  H2  UNL     1       3.803  19.215   2.314  1.00  0.00     0.210 HD
ENDBRANCH  17  20
TORSDOF 2
ENDMDL
