MODEL 1
REMARK VINA RESULT: -6.942333576      0.000      0.000
REMARK  5 active torsions:
REMARK  status: ('A' for Active; 'I' for Inactive)
REMARK    1  A    between atoms: N1_1  and  C1_5 
REMARK    2  A    between atoms: N2_8  and  C4_9 
REMARK    3  A    between atoms: C4_9  and  O1_10 
REMARK    4  A    between atoms: C4_9  and  N3_12 
REMARK    5  A    between atoms: C9_17  and  O2_18 
ROOT
HETATM    1  C4  UNL     1       1.202  18.674   3.453  1.00  0.00     0.221 C 
ENDROOT
BRANCH   1   2
HETATM    2  N2  UNL     1       1.447  17.593   4.320  1.00  0.00    -0.327 N 
HETATM    3  C3  UNL     1       2.748  16.944   4.168  1.00  0.00     0.133 C 
HETATM    4  C2  UNL     1       2.815  15.557   4.690  1.00  0.00     0.053 C 
HETATM    5  C1  UNL     1       2.208  15.473   6.073  1.00  0.00     0.189 C 
HETATM    6  C13 UNL     1       0.790  15.906   6.024  1.00  0.00     0.077 C 
HETATM    7  C12 UNL     1       0.500  17.161   5.269  1.00  0.00     0.069 C 
BRANCH   5   8
HETATM    8  N1  UNL     1       2.955  16.229   7.044  1.00  0.00    -0.075 N 
ATOM      9  H13 UNL     1       3.852  16.531   6.664  1.00  0.00     0.274 HD
ATOM     10  H12 UNL     1       2.531  17.144   7.204  1.00  0.00     0.274 HD
ATOM     11  H11 UNL     1       3.076  15.721   7.920  1.00  0.00     0.274 HD
ENDBRANCH   5   8
ENDBRANCH   1   2
BRANCH   1  12
HETATM   12  O1  UNL     1       0.727  19.775   3.990  1.00  0.00    -0.332 OA
ATOM     13  H1  UNL     1       0.771  20.566   3.466  1.00  0.00     0.221 HD
ENDBRANCH   1  12
BRANCH   1  14
HETATM   14  N3  UNL     1       1.384  18.780   2.071  1.00  0.00    -0.346 N 
HETATM   15  C5  UNL     1       2.028  19.688   1.161  1.00  0.00     0.131 C 
HETATM   16  C6  UNL     1       0.784  20.130   0.363  1.00  0.00     0.012 C 
HETATM   17  C7  UNL     1       1.142  20.667  -0.977  1.00  0.00     0.009 C 
HETATM   18  C10 UNL     1       0.140  18.757   0.133  1.00  0.00     0.038 C 
HETATM   19  C8  UNL     1       0.382  19.820  -1.970  1.00  0.00     0.032 C 
HETATM   20  C9  UNL     1       0.391  18.449  -1.322  1.00  0.00     0.124 C 
HETATM   21  C11 UNL     1       0.841  17.798   1.063  1.00  0.00     0.134 C 
BRANCH  20  22
HETATM   22  O2  UNL     1       1.554  17.751  -1.545  1.00  0.00    -0.395 OA
ATOM     23  H2  UNL     1       1.421  16.813  -1.620  1.00  0.00     0.210 HD
ENDBRANCH  20  22
ENDBRANCH   1  14
TORSDOF 5
ENDMDL
MODEL 2
REMARK VINA RESULT: -6.936822630      4.612      8.149
REMARK  5 active torsions:
REMARK  status: ('A' for Active; 'I' for Inactive)
REMARK    1  A    between atoms: N1_1  and  C1_5 
REMARK    2  A    between atoms: N2_8  and  C4_9 
REMARK    3  A    between atoms: C4_9  and  O1_10 
REMARK    4  A    between atoms: C4_9  and  N3_12 
REMARK    5  A    between atoms: C9_17  and  O2_18 
ROOT
HETATM    1  C4  UNL     1      -1.144  18.656  -3.494  1.00  0.00     0.221 C 
ENDROOT
BRANCH   1   2
HETATM    2  N2  UNL     1      -1.406  17.575  -4.357  1.00  0.00    -0.327 N 
HETATM    3  C3  UNL     1      -2.714  16.943  -4.199  1.00  0.00     0.133 C 
HETATM    4  C2  UNL     1      -2.801  15.556  -4.716  1.00  0.00     0.053 C 
HETATM    5  C1  UNL     1      -2.200  15.460  -6.101  1.00  0.00     0.189 C 
HETATM    6  C13 UNL     1      -0.776  15.875  -6.059  1.00  0.00     0.077 C 
HETATM    7  C12 UNL     1      -0.468  17.128  -5.308  1.00  0.00     0.069 C 
BRANCH   5   8
HETATM    8  N1  UNL     1      -2.940  16.223  -7.072  1.00  0.00    -0.075 N 
ATOM      9  H13 UNL     1      -3.941  16.045  -6.994  1.00  0.00     0.274 HD
ATOM     10  H12 UNL     1      -2.934  17.217  -6.842  1.00  0.00     0.274 HD
ATOM     11  H11 UNL     1      -2.609  16.063  -8.024  1.00  0.00     0.274 HD
ENDBRANCH   5   8
ENDBRANCH   1   2
BRANCH   1  12
HETATM   12  O1  UNL     1      -0.622  19.735  -4.031  1.00  0.00    -0.332 OA
ATOM     13  H1  UNL     1      -1.118  20.541  -3.951  1.00  0.00     0.221 HD
ENDBRANCH   1  12
BRANCH   1  14
HETATM   14  N3  UNL     1      -1.353  18.781  -2.118  1.00  0.00    -0.346 N 
HETATM   15  C5  UNL     1      -2.027  19.693  -1.234  1.00  0.00     0.131 C 
HETATM   16  C6  UNL     1      -0.805  20.168  -0.421  1.00  0.00     0.012 C 
HETATM   17  C7  UNL     1      -1.195  20.720   0.903  1.00  0.00     0.009 C 
HETATM   18  C10 UNL     1      -0.143  18.809  -0.158  1.00  0.00     0.038 C 
HETATM   19  C8  UNL     1      -0.439  19.900   1.923  1.00  0.00     0.032 C 
HETATM   20  C9  UNL     1      -0.415  18.519   1.297  1.00  0.00     0.124 C 
HETATM   21  C11 UNL     1      -0.812  17.823  -1.085  1.00  0.00     0.134 C 
BRANCH  20  22
HETATM   22  O2  UNL     1      -1.571  17.806   1.511  1.00  0.00    -0.395 OA
ATOM     23  H2  UNL     1      -1.620  17.421   2.378  1.00  0.00     0.210 HD
ENDBRANCH  20  22
ENDBRANCH   1  14
TORSDOF 5
ENDMDL
MODEL 3
REMARK VINA RESULT: -6.886365480      2.639      6.114
REMARK  5 active torsions:
REMARK  status: ('A' for Active; 'I' for Inactive)
REMARK    1  A    between atoms: N1_1  and  C1_5 
REMARK    2  A    between atoms: N2_8  and  C4_9 
REMARK    3  A    between atoms: C4_9  and  O1_10 
REMARK    4  A    between atoms: C4_9  and  N3_12 
REMARK    5  A    between atoms: C9_17  and  O2_18 
ROOT
HETATM    1  C4  UNL     1      -0.658  18.462   2.027  1.00  0.00     0.221 C 
ENDROOT
BRANCH   1   2
HETATM    2  N2  UNL     1      -0.490  19.851   1.867  1.00  0.00    -0.327 N 
HETATM    3  C3  UNL     1       0.429  20.488   2.807  1.00  0.00     0.133 C 
HETATM    4  C2  UNL     1       0.234  21.949   2.972  1.00  0.00     0.053 C 
HETATM    5  C1  UNL     1       0.108  22.631   1.628  1.00  0.00     0.189 C 
HETATM    6  C13 UNL     1      -1.047  22.067   0.887  1.00  0.00     0.077 C 
HETATM    7  C12 UNL     1      -1.166  20.579   0.869  1.00  0.00     0.069 C 
BRANCH   5   8
HETATM    8  N1  UNL     1       1.320  22.544   0.856  1.00  0.00    -0.075 N 
ATOM      9  H13 UNL     1       2.119  22.890   1.386  1.00  0.00     0.274 HD
ATOM     10  H12 UNL     1       1.612  21.574   0.736  1.00  0.00     0.274 HD
ATOM     11  H11 UNL     1       1.240  23.019  -0.044  1.00  0.00     0.274 HD
ENDBRANCH   5   8
ENDBRANCH   1   2
BRANCH   1  12
HETATM   12  O1  UNL     1      -1.573  17.882   1.285  1.00  0.00    -0.332 OA
ATOM     13  H1  UNL     1      -1.478  17.958   0.343  1.00  0.00     0.221 HD
ENDBRANCH   1  12
BRANCH   1  14
HETATM   14  N3  UNL     1       0.007  17.566   2.869  1.00  0.00    -0.346 N 
HETATM   15  C5  UNL     1      -0.260  16.892   4.111  1.00  0.00     0.131 C 
HETATM   16  C6  UNL     1       0.885  17.498   4.949  1.00  0.00     0.012 C 
HETATM   17  C7  UNL     1       1.226  16.652   6.123  1.00  0.00     0.009 C 
HETATM   18  C10 UNL     1       2.033  17.344   3.943  1.00  0.00     0.038 C 
HETATM   19  C8  UNL     1       2.695  16.329   5.978  1.00  0.00     0.032 C 
HETATM   20  C9  UNL     1       2.867  16.207   4.476  1.00  0.00     0.124 C 
HETATM   21  C11 UNL     1       1.393  17.027   2.613  1.00  0.00     0.134 C 
BRANCH  20  22
HETATM   22  O2  UNL     1       2.499  14.976   3.986  1.00  0.00    -0.395 OA
ATOM     23  H2  UNL     1       3.139  14.603   3.391  1.00  0.00     0.210 HD
ENDBRANCH  20  22
ENDBRANCH   1  14
TORSDOF 5
ENDMDL
MODEL 4
REMARK VINA RESULT: -6.874280024      5.473      7.292
REMARK  5 active torsions:
REMARK  status: ('A' for Active; 'I' for Inactive)
REMARK    1  A    between atoms: N1_1  and  C1_5 
REMARK    2  A    between atoms: N2_8  and  C4_9 
REMARK    3  A    between atoms: C4_9  and  O1_10 
REMARK    4  A    between atoms: C4_9  and  N3_12 
REMARK    5  A    between atoms: C9_17  and  O2_18 
ROOT
HETATM    1  C4  UNL     1       0.635  18.455  -2.064  1.00  0.00     0.221 C 
ENDROOT
BRANCH   1   2
HETATM    2  N2  UNL     1       0.463  19.844  -1.906  1.00  0.00    -0.327 N 
HETATM    3  C3  UNL     1      -0.453  20.478  -2.852  1.00  0.00     0.133 C 
HETATM    4  C2  UNL     1      -0.260  21.939  -3.018  1.00  0.00     0.053 C 
HETATM    5  C1  UNL     1      -0.142  22.623  -1.675  1.00  0.00     0.189 C 
HETATM    6  C13 UNL     1       1.010  22.063  -0.927  1.00  0.00     0.077 C 
HETATM    7  C12 UNL     1       1.132  20.575  -0.906  1.00  0.00     0.069 C 
BRANCH   5   8
HETATM    8  N1  UNL     1      -1.358  22.535  -0.909  1.00  0.00    -0.075 N 
ATOM      9  H13 UNL     1      -2.024  21.900  -1.348  1.00  0.00     0.274 HD
ATOM     10  H12 UNL     1      -1.207  22.031  -0.034  1.00  0.00     0.274 HD
ATOM     11  H11 UNL     1      -1.776  23.450  -0.739  1.00  0.00     0.274 HD
ENDBRANCH   5   8
ENDBRANCH   1   2
BRANCH   1  12
HETATM   12  O1  UNL     1       1.553  17.879  -1.322  1.00  0.00    -0.332 OA
ATOM     13  H1  UNL     1       2.370  17.647  -1.747  1.00  0.00     0.221 HD
ENDBRANCH   1  12
BRANCH   1  14
HETATM   14  N3  UNL     1      -0.028  17.555  -2.902  1.00  0.00    -0.346 N 
HETATM   15  C5  UNL     1       0.242  16.872  -4.138  1.00  0.00     0.131 C 
HETATM   16  C6  UNL     1      -0.896  17.476  -4.986  1.00  0.00     0.012 C 
HETATM   17  C7  UNL     1      -1.234  16.623  -6.156  1.00  0.00     0.009 C 
HETATM   18  C10 UNL     1      -2.050  17.332  -3.985  1.00  0.00     0.038 C 
HETATM   19  C8  UNL     1      -2.704  16.305  -6.016  1.00  0.00     0.032 C 
HETATM   20  C9  UNL     1      -2.884  16.193  -4.514  1.00  0.00     0.124 C 
HETATM   21  C11 UNL     1      -1.418  17.022  -2.650  1.00  0.00     0.134 C 
BRANCH  20  22
HETATM   22  O2  UNL     1      -2.523  14.965  -4.014  1.00  0.00    -0.395 OA
ATOM     23  H2  UNL     1      -3.194  14.569  -3.470  1.00  0.00     0.210 HD
ENDBRANCH  20  22
ENDBRANCH   1  14
TORSDOF 5
ENDMDL
MODEL 5
REMARK VINA RESULT: -6.814032146      4.695      6.802
REMARK  5 active torsions:
REMARK  status: ('A' for Active; 'I' for Inactive)
REMARK    1  A    between atoms: N1_1  and  C1_5 
REMARK    2  A    between atoms: N2_8  and  C4_9 
REMARK    3  A    between atoms: C4_9  and  O1_10 
REMARK    4  A    between atoms: C4_9  and  N3_12 
REMARK    5  A    between atoms: C9_17  and  O2_18 
ROOT
HETATM    1  C4  UNL     1      -0.331  19.647  -3.019  1.00  0.00     0.221 C 
ENDROOT
BRANCH   1   2
HETATM    2  N2  UNL     1       0.364  20.012  -1.851  1.00  0.00    -0.327 N 
HETATM    3  C3  UNL     1       0.370  21.440  -1.539  1.00  0.00     0.133 C 
HETATM    4  C2  UNL     1       1.469  21.876  -0.645  1.00  0.00     0.053 C 
HETATM    5  C1  UNL     1       1.591  20.954   0.548  1.00  0.00     0.189 C 
HETATM    6  C13 UNL     1       1.860  19.570   0.085  1.00  0.00     0.077 C 
HETATM    7  C12 UNL     1       1.015  19.065  -1.037  1.00  0.00     0.069 C 
BRANCH   5   8
HETATM    8  N1  UNL     1       0.431  21.006   1.399  1.00  0.00    -0.075 N 
ATOM      9  H13 UNL     1       0.398  21.879   1.923  1.00  0.00     0.274 HD
ATOM     10  H12 UNL     1      -0.424  21.113   0.852  1.00  0.00     0.274 HD
ATOM     11  H11 UNL     1       0.371  20.199   2.021  1.00  0.00     0.274 HD
ENDBRANCH   5   8
ENDBRANCH   1   2
BRANCH   1  12
HETATM   12  O1  UNL     1      -0.770  20.622  -3.783  1.00  0.00    -0.332 OA
ATOM     13  H1  UNL     1      -1.625  20.509  -4.179  1.00  0.00     0.221 HD
ENDBRANCH   1  12
BRANCH   1  14
HETATM   14  N3  UNL     1      -0.644  18.382  -3.523  1.00  0.00    -0.346 N 
HETATM   15  C5  UNL     1       0.026  17.350  -4.267  1.00  0.00     0.131 C 
HETATM   16  C6  UNL     1      -0.884  17.341  -5.513  1.00  0.00     0.012 C 
HETATM   17  C7  UNL     1      -0.797  16.057  -6.259  1.00  0.00     0.009 C 
HETATM   18  C10 UNL     1      -2.251  17.359  -4.818  1.00  0.00     0.038 C 
HETATM   19  C8  UNL     1      -2.211  15.526  -6.317  1.00  0.00     0.032 C 
HETATM   20  C9  UNL     1      -2.791  15.961  -4.985  1.00  0.00     0.124 C 
HETATM   21  C11 UNL     1      -1.990  17.715  -3.375  1.00  0.00     0.134 C 
BRANCH  20  22
HETATM   22  O2  UNL     1      -2.466  15.116  -3.950  1.00  0.00    -0.395 OA
ATOM     23  H2  UNL     1      -1.530  14.983  -3.854  1.00  0.00     0.210 HD
ENDBRANCH  20  22
ENDBRANCH   1  14
TORSDOF 5
ENDMDL
