MODEL 1
REMARK VINA RESULT: -7.148643462      0.000      0.000
REMARK  4 active torsions:
REMARK  status: ('A' for Active; 'I' for Inactive)
REMARK    1  A    between atoms: C3_3  and  O1_4 
REMARK    2  A    between atoms: C3_3  and  C4_6 
REMARK    3  A    between atoms: C5_7  and  C6_8 
REMARK    4  A    between atoms: N2_15  and  C12_16 
ROOT
HETATM    1  C1  UNL     1       4.054  20.814   3.205  1.00  0.00     0.015 C 
HETATM    2  C2  UNL     1       2.904  21.160   3.104  1.00  0.00    -0.073 C 
HETATM    3  C3  UNL     1       1.485  21.565   2.986  1.00  0.00     0.276 C 
ENDROOT
BRANCH   3   4
HETATM    4  O1  UNL     1       0.956  21.784   4.237  1.00  0.00    -0.372 OA
ATOM      5  H1  UNL     1       0.061  22.094   4.160  1.00  0.00     0.212 HD
ENDBRANCH   3   4
BRANCH   3   6
HETATM    6  C4  UNL     1       0.703  20.497   2.351  1.00  0.00    -0.057 C 
HETATM    7  C5  UNL     1       0.069  19.620   1.816  1.00  0.00    -0.075 C 
BRANCH   7   8
HETATM    8  C6  UNL     1      -0.663  18.563   1.182  1.00  0.00     0.069 C 
HETATM    9  C7  UNL     1      -1.596  18.884   0.311  1.00  0.00    -0.054 C 
HETATM   10  C8  UNL     1      -1.887  20.279  -0.011  1.00  0.00     0.039 C 
HETATM   11  C13 UNL     1      -2.383  17.828  -0.374  1.00  0.00     0.161 C 
HETATM   12  C9  UNL     1      -2.555  20.516  -1.311  1.00  0.00     0.045 C 
HETATM   13  C10 UNL     1      -2.430  19.437  -2.318  1.00  0.00     0.194 C 
HETATM   14  C11 UNL     1      -3.590  19.527  -3.236  1.00  0.00     0.084 C 
HETATM   15  N2  UNL     1      -2.328  18.115  -1.792  1.00  0.00    -0.339 N 
HETATM   16  N1  UNL     1      -4.509  19.595  -3.938  1.00  0.00    -0.195 NA
BRANCH  15  17
HETATM   17  C12 UNL     1      -2.167  17.030  -2.698  1.00  0.00     0.184 C 
HETATM   18  N3  UNL     1      -1.025  16.893  -3.532  1.00  0.00    -0.070 NA
HETATM   19  S1  UNL     1      -3.311  15.849  -2.835  1.00  0.00    -0.044 SA
ENDBRANCH  15  17
ENDBRANCH   7   8
ENDBRANCH   3   6
TORSDOF 4
ENDMDL
MODEL 2
REMARK VINA RESULT: -7.148418984      4.607      7.147
REMARK  4 active torsions:
REMARK  status: ('A' for Active; 'I' for Inactive)
REMARK    1  A    between atoms: C3_3  and  O1_4 
REMARK    2  A    between atoms: C3_3  and  C4_6 
REMARK    3  A    between atoms: C5_7  and  C6_8 
REMARK    4  A    between atoms: N2_15  and  C12_16 
ROOT
HETATM    1  C1  UNL     1      -4.092  20.806  -3.166  1.00  0.00     0.015 C 
HETATM    2  C2  UNL     1      -2.939  21.142  -3.066  1.00  0.00    -0.073 C 
HETATM    3  C3  UNL     1      -1.516  21.534  -2.949  1.00  0.00     0.276 C 
ENDROOT
BRANCH   3   4
HETATM    4  O1  UNL     1      -0.990  21.759  -4.200  1.00  0.00    -0.372 OA
ATOM      5  H1  UNL     1      -1.428  22.497  -4.606  1.00  0.00     0.212 HD
ENDBRANCH   3   4
BRANCH   3   6
HETATM    6  C4  UNL     1      -0.742  20.455  -2.324  1.00  0.00    -0.057 C 
HETATM    7  C5  UNL     1      -0.106  19.575  -1.796  1.00  0.00    -0.075 C 
BRANCH   7   8
HETATM    8  C6  UNL     1       0.630  18.523  -1.157  1.00  0.00     0.069 C 
HETATM    9  C7  UNL     1       1.577  18.852  -0.304  1.00  0.00    -0.054 C 
HETATM   10  C8  UNL     1       1.881  20.250  -0.009  1.00  0.00     0.039 C 
HETATM   11  C13 UNL     1       2.367  17.801   0.385  1.00  0.00     0.161 C 
HETATM   12  C9  UNL     1       2.570  20.502   1.278  1.00  0.00     0.045 C 
HETATM   13  C10 UNL     1       2.453  19.440   2.304  1.00  0.00     0.194 C 
HETATM   14  C11 UNL     1       3.626  19.537   3.203  1.00  0.00     0.084 C 
HETATM   15  N2  UNL     1       2.335  18.110   1.800  1.00  0.00    -0.339 N 
HETATM   16  N1  UNL     1       4.555  19.610   3.891  1.00  0.00    -0.195 NA
BRANCH  15  17
HETATM   17  C12 UNL     1       2.179  17.041   2.724  1.00  0.00     0.184 C 
HETATM   18  N3  UNL     1       1.063  16.939   3.596  1.00  0.00    -0.070 NA
HETATM   19  S1  UNL     1       3.303  15.837   2.841  1.00  0.00    -0.044 SA
ENDBRANCH  15  17
ENDBRANCH   7   8
ENDBRANCH   3   6
TORSDOF 4
ENDMDL
MODEL 3
REMARK VINA RESULT: -6.802630565      4.488      6.987
REMARK  4 active torsions:
REMARK  status: ('A' for Active; 'I' for Inactive)
REMARK    1  A    between atoms: C3_3  and  O1_4 
REMARK    2  A    between atoms: C3_3  and  C4_6 
REMARK    3  A    between atoms: C5_7  and  C6_8 
REMARK    4  A    between atoms: N2_15  and  C12_16 
ROOT
HETATM    1  C1  UNL     1      -4.173  18.452  -2.726  1.00  0.00     0.015 C 
HETATM    2  C2  UNL     1      -3.961  19.626  -2.554  1.00  0.00    -0.073 C 
HETATM    3  C3  UNL     1      -3.680  21.064  -2.342  1.00  0.00     0.276 C 
ENDROOT
BRANCH   3   4
HETATM    4  O1  UNL     1      -3.196  21.621  -3.502  1.00  0.00    -0.372 OA
ATOM      5  H1  UNL     1      -3.060  22.554  -3.380  1.00  0.00     0.212 HD
ENDBRANCH   3   4
BRANCH   3   6
HETATM    6  C4  UNL     1      -2.657  21.232  -1.304  1.00  0.00    -0.057 C 
HETATM    7  C5  UNL     1      -1.806  21.360  -0.456  1.00  0.00    -0.075 C 
BRANCH   7   8
HETATM    8  C6  UNL     1      -0.781  21.521   0.534  1.00  0.00     0.069 C 
HETATM    9  C7  UNL     1      -0.489  20.495   1.304  1.00  0.00    -0.054 C 
HETATM   10  C8  UNL     1      -1.184  19.217   1.164  1.00  0.00     0.039 C 
HETATM   11  C13 UNL     1       0.565  20.609   2.343  1.00  0.00     0.161 C 
HETATM   12  C9  UNL     1      -0.471  18.032   1.692  1.00  0.00     0.045 C 
HETATM   13  C10 UNL     1       0.995  18.169   1.857  1.00  0.00     0.194 C 
HETATM   14  C11 UNL     1       1.430  17.223   2.910  1.00  0.00     0.084 C 
HETATM   15  N2  UNL     1       1.459  19.483   2.163  1.00  0.00    -0.339 N 
HETATM   16  N1  UNL     1       1.759  16.491   3.746  1.00  0.00    -0.195 NA
BRANCH  15  17
HETATM   17  C12 UNL     1       2.857  19.700   2.297  1.00  0.00     0.184 C 
HETATM   18  N3  UNL     1       3.825  18.778   1.815  1.00  0.00    -0.070 NA
HETATM   19  S1  UNL     1       3.450  21.055   3.030  1.00  0.00    -0.044 SA
ENDBRANCH  15  17
ENDBRANCH   7   8
ENDBRANCH   3   6
TORSDOF 4
ENDMDL
MODEL 4
REMARK VINA RESULT: -6.793744609      2.368      3.196
REMARK  4 active torsions:
REMARK  status: ('A' for Active; 'I' for Inactive)
REMARK    1  A    between atoms: C3_3  and  O1_4 
REMARK    2  A    between atoms: C3_3  and  C4_6 
REMARK    3  A    between atoms: C5_7  and  C6_8 
REMARK    4  A    between atoms: N2_15  and  C12_16 
ROOT
HETATM    1  C1  UNL     1       4.070  18.432   2.791  1.00  0.00     0.015 C 
HETATM    2  C2  UNL     1       3.909  19.612   2.604  1.00  0.00    -0.073 C 
HETATM    3  C3  UNL     1       3.690  21.058   2.374  1.00  0.00     0.276 C 
ENDROOT
BRANCH   3   4
HETATM    4  O1  UNL     1       3.256  21.655   3.534  1.00  0.00    -0.372 OA
ATOM      5  H1  UNL     1       2.516  21.174   3.887  1.00  0.00     0.212 HD
ENDBRANCH   3   4
BRANCH   3   6
HETATM    6  C4  UNL     1       2.655  21.257   1.353  1.00  0.00    -0.057 C 
HETATM    7  C5  UNL     1       1.805  21.407   0.508  1.00  0.00    -0.075 C 
BRANCH   7   8
HETATM    8  C6  UNL     1       0.780  21.569  -0.482  1.00  0.00     0.069 C 
HETATM    9  C7  UNL     1       0.505  20.552  -1.270  1.00  0.00    -0.054 C 
HETATM   10  C8  UNL     1       1.219  19.282  -1.148  1.00  0.00     0.039 C 
HETATM   11  C13 UNL     1      -0.547  20.668  -2.310  1.00  0.00     0.161 C 
HETATM   12  C9  UNL     1       0.523  18.096  -1.698  1.00  0.00     0.045 C 
HETATM   13  C10 UNL     1      -0.943  18.214  -1.865  1.00  0.00     0.194 C 
HETATM   14  C11 UNL     1      -1.362  17.279  -2.935  1.00  0.00     0.084 C 
HETATM   15  N2  UNL     1      -1.425  19.527  -2.151  1.00  0.00    -0.339 N 
HETATM   16  N1  UNL     1      -1.678  16.557  -3.784  1.00  0.00    -0.195 NA
BRANCH  15  17
HETATM   17  C12 UNL     1      -2.826  19.726  -2.285  1.00  0.00     0.184 C 
HETATM   18  N3  UNL     1      -3.782  18.804  -1.782  1.00  0.00    -0.070 NA
HETATM   19  S1  UNL     1      -3.435  21.059  -3.046  1.00  0.00    -0.044 SA
ENDBRANCH  15  17
ENDBRANCH   7   8
ENDBRANCH   3   6
TORSDOF 4
ENDMDL
MODEL 5
REMARK VINA RESULT: -6.761209919      3.799      4.530
REMARK  4 active torsions:
REMARK  status: ('A' for Active; 'I' for Inactive)
REMARK    1  A    between atoms: C3_3  and  O1_4 
REMARK    2  A    between atoms: C3_3  and  C4_6 
REMARK    3  A    between atoms: C5_7  and  C6_8 
REMARK    4  A    between atoms: N2_15  and  C12_16 
ROOT
HETATM    1  C1  UNL     1       2.546  15.922   6.953  1.00  0.00     0.015 C 
HETATM    2  C2  UNL     1       1.481  16.233   6.484  1.00  0.00    -0.073 C 
HETATM    3  C3  UNL     1       0.181  16.614   5.887  1.00  0.00     0.276 C 
ENDROOT
BRANCH   3   4
HETATM    4  O1  UNL     1      -0.450  15.498   5.389  1.00  0.00    -0.372 OA
ATOM      5  H1  UNL     1      -1.392  15.603   5.456  1.00  0.00     0.212 HD
ENDBRANCH   3   4
BRANCH   3   6
HETATM    6  C4  UNL     1       0.388  17.546   4.772  1.00  0.00    -0.057 C 
HETATM    7  C5  UNL     1       0.567  18.323   3.864  1.00  0.00    -0.075 C 
BRANCH   7   8
HETATM    8  C6  UNL     1       0.803  19.238   2.787  1.00  0.00     0.069 C 
HETATM    9  C7  UNL     1       0.214  19.011   1.632  1.00  0.00    -0.054 C 
HETATM   10  C8  UNL     1      -0.662  17.857   1.441  1.00  0.00     0.039 C 
HETATM   11  C13 UNL     1       0.425  19.929   0.485  1.00  0.00     0.161 C 
HETATM   12  C9  UNL     1      -1.636  17.963   0.330  1.00  0.00     0.045 C 
HETATM   13  C10 UNL     1      -1.948  19.332  -0.140  1.00  0.00     0.194 C 
HETATM   14  C11 UNL     1      -2.390  19.245  -1.551  1.00  0.00     0.084 C 
HETATM   15  N2  UNL     1      -0.886  20.278  -0.021  1.00  0.00    -0.339 N 
HETATM   16  N1  UNL     1      -2.719  19.169  -2.659  1.00  0.00    -0.195 NA
BRANCH  15  17
HETATM   17  C12 UNL     1      -1.123  21.624  -0.416  1.00  0.00     0.184 C 
HETATM   18  N3  UNL     1      -2.115  22.437   0.194  1.00  0.00    -0.070 NA
HETATM   19  S1  UNL     1      -0.249  22.330  -1.625  1.00  0.00    -0.044 SA
ENDBRANCH  15  17
ENDBRANCH   7   8
ENDBRANCH   3   6
TORSDOF 4
ENDMDL
