MODEL 1
REMARK VINA RESULT: -6.919369735      0.000      0.000
REMARK  5 active torsions:
REMARK  status: ('A' for Active; 'I' for Inactive)
REMARK    1  A    between atoms: O1_1  and  C1_3 
REMARK    2  A    between atoms: C1_3  and  C2_4 
REMARK    3  A    between atoms: C3_5  and  C4_6 
REMARK    4  A    between atoms: C8_13  and  C9_14 
REMARK    5  A    between atoms: C10_15  and  C11_16 
ROOT
HETATM    1  C1  UNL     1       3.505  18.254   2.439  1.00  0.00     0.170 C 
HETATM    2  C7  UNL     1       4.168  19.472   2.990  1.00  0.00     0.288 C 
HETATM    3  N1  UNL     1       3.252  20.405   3.609  1.00  0.00    -0.049 N 
ATOM      4  H11 UNL     1       3.714  21.273   3.882  1.00  0.00     0.279 HD
ATOM      5  H12 UNL     1       2.958  20.098   4.536  1.00  0.00     0.279 HD
HETATM    6  C8  UNL     1       2.130  20.639   2.733  1.00  0.00     0.211 C 
HETATM    7  C13 UNL     1       2.542  20.760   1.298  1.00  0.00     0.221 C 
HETATM    8  O3  UNL     1       2.488  19.526   0.713  1.00  0.00    -0.378 OA
HETATM    9  C14 UNL     1       2.229  18.580   1.688  1.00  0.00     0.173 C 
HETATM   10  C15 UNL     1       1.338  19.323   2.694  1.00  0.00     0.090 C 
ENDROOT
BRANCH   1  11
HETATM   11  O1  UNL     1       4.400  17.637   1.564  1.00  0.00    -0.373 OA
ATOM     12  H1  UNL     1       5.149  18.197   1.393  1.00  0.00     0.212 HD
ENDBRANCH   1  11
BRANCH   1  13
HETATM   13  C2  UNL     1       3.182  17.367   3.575  1.00  0.00    -0.063 C 
HETATM   14  C3  UNL     1       2.910  16.631   4.490  1.00  0.00    -0.099 C 
BRANCH  14  15
HETATM   15  C4  UNL     1       2.564  15.723   5.584  1.00  0.00     0.065 A 
HETATM   16  C5  UNL     1       2.634  16.151   6.990  1.00  0.00     0.018 A 
HETATM   17  C6  UNL     1       1.280  16.082   6.393  1.00  0.00     0.018 A 
ENDBRANCH  14  15
ENDBRANCH   1  13
BRANCH   6  18
HETATM   18  C9  UNL     1       1.343  21.739   3.220  1.00  0.00    -0.062 C 
HETATM   19  C10 UNL     1       0.696  22.677   3.637  1.00  0.00    -0.070 C 
BRANCH  19  20
HETATM   20  C11 UNL     1      -0.063  23.822   4.142  1.00  0.00     0.224 A 
HETATM   21  C12 UNL     1       0.741  24.961   4.641  1.00  0.00     0.214 A 
HETATM   22  O2  UNL     1       0.088  24.971   3.383  1.00  0.00    -0.368 OA
ENDBRANCH  19  20
ENDBRANCH   6  18
TORSDOF 5
ENDMDL
MODEL 2
REMARK VINA RESULT: -6.912501504      7.437      9.139
REMARK  5 active torsions:
REMARK  status: ('A' for Active; 'I' for Inactive)
REMARK    1  A    between atoms: O1_1  and  C1_3 
REMARK    2  A    between atoms: C1_3  and  C2_4 
REMARK    3  A    between atoms: C3_5  and  C4_6 
REMARK    4  A    between atoms: C8_13  and  C9_14 
REMARK    5  A    between atoms: C10_15  and  C11_16 
ROOT
HETATM    1  C1  UNL     1      -3.500  18.311  -2.422  1.00  0.00     0.170 C 
HETATM    2  C7  UNL     1      -4.162  19.526  -2.982  1.00  0.00     0.288 C 
HETATM    3  N1  UNL     1      -3.245  20.454  -3.608  1.00  0.00    -0.049 N 
ATOM      4  H11 UNL     1      -3.706  21.320  -3.887  1.00  0.00     0.279 HD
ATOM      5  H12 UNL     1      -2.951  20.139  -4.532  1.00  0.00     0.279 HD
HETATM    6  C8  UNL     1      -2.123  20.693  -2.733  1.00  0.00     0.211 C 
HETATM    7  C13 UNL     1      -2.536  20.825  -1.299  1.00  0.00     0.221 C 
HETATM    8  O3  UNL     1      -2.483  19.595  -0.705  1.00  0.00    -0.378 OA
HETATM    9  C14 UNL     1      -2.223  18.642  -1.673  1.00  0.00     0.173 C 
HETATM   10  C15 UNL     1      -1.332  19.377  -2.684  1.00  0.00     0.090 C 
ENDROOT
BRANCH   1  11
HETATM   11  O1  UNL     1      -4.395  17.701  -1.543  1.00  0.00    -0.373 OA
ATOM     12  H1  UNL     1      -3.943  17.102  -0.959  1.00  0.00     0.212 HD
ENDBRANCH   1  11
BRANCH   1  13
HETATM   13  C2  UNL     1      -3.177  17.416  -3.552  1.00  0.00    -0.063 C 
HETATM   14  C3  UNL     1      -2.914  16.670  -4.461  1.00  0.00    -0.099 C 
BRANCH  14  15
HETATM   15  C4  UNL     1      -2.589  15.745  -5.548  1.00  0.00     0.065 A 
HETATM   16  C5  UNL     1      -2.684  16.153  -6.958  1.00  0.00     0.018 A 
HETATM   17  C6  UNL     1      -1.319  16.091  -6.386  1.00  0.00     0.018 A 
ENDBRANCH  14  15
ENDBRANCH   1  13
BRANCH   6  18
HETATM   18  C9  UNL     1      -1.335  21.788  -3.228  1.00  0.00    -0.062 C 
HETATM   19  C10 UNL     1      -0.684  22.727  -3.638  1.00  0.00    -0.070 C 
BRANCH  19  20
HETATM   20  C11 UNL     1       0.086  23.874  -4.119  1.00  0.00     0.224 A 
HETATM   21  C12 UNL     1      -0.706  25.025  -4.608  1.00  0.00     0.214 A 
HETATM   22  O2  UNL     1      -0.066  25.013  -3.344  1.00  0.00    -0.368 OA
ENDBRANCH  19  20
ENDBRANCH   6  18
TORSDOF 5
ENDMDL
MODEL 3
REMARK VINA RESULT: -6.687815897      3.448      6.388
REMARK  5 active torsions:
REMARK  status: ('A' for Active; 'I' for Inactive)
REMARK    1  A    between atoms: O1_1  and  C1_3 
REMARK    2  A    between atoms: C1_3  and  C2_4 
REMARK    3  A    between atoms: C3_5  and  C4_6 
REMARK    4  A    between atoms: C8_13  and  C9_14 
REMARK    5  A    between atoms: C10_15  and  C11_16 
ROOT
HETATM    1  C1  UNL     1       1.500  21.440   0.347  1.00  0.00     0.170 C 
HETATM    2  C7  UNL     1       2.421  20.368   0.826  1.00  0.00     0.288 C 
HETATM    3  N1  UNL     1       1.745  19.257   1.459  1.00  0.00    -0.049 N 
ATOM      4  H11 UNL     1       2.401  18.593   1.870  1.00  0.00     0.279 HD
ATOM      5  H12 UNL     1       1.310  18.634   0.780  1.00  0.00     0.279 HD
HETATM    6  C8  UNL     1       0.797  19.753   2.427  1.00  0.00     0.211 C 
HETATM    7  C13 UNL     1       1.335  20.911   3.212  1.00  0.00     0.221 C 
HETATM    8  O3  UNL     1       0.996  22.074   2.578  1.00  0.00    -0.378 OA
HETATM    9  C14 UNL     1       0.418  21.768   1.360  1.00  0.00     0.173 C 
HETATM   10  C15 UNL     1      -0.314  20.443   1.622  1.00  0.00     0.090 C 
ENDROOT
BRANCH   1  11
HETATM   11  O1  UNL     1       2.259  22.586   0.110  1.00  0.00    -0.373 OA
ATOM     12  H1  UNL     1       2.055  23.266   0.742  1.00  0.00     0.212 HD
ENDBRANCH   1  11
BRANCH   1  13
HETATM   13  C2  UNL     1       0.865  20.962  -0.898  1.00  0.00    -0.063 C 
HETATM   14  C3  UNL     1       0.328  20.573  -1.905  1.00  0.00    -0.099 C 
BRANCH  14  15
HETATM   15  C4  UNL     1      -0.345  20.099  -3.114  1.00  0.00     0.065 A 
HETATM   16  C5  UNL     1      -0.424  18.666  -3.440  1.00  0.00     0.018 A 
HETATM   17  C6  UNL     1      -1.656  19.282  -2.894  1.00  0.00     0.018 A 
ENDBRANCH  14  15
ENDBRANCH   1  13
BRANCH   6  18
HETATM   18  C9  UNL     1       0.299  18.671   3.232  1.00  0.00    -0.062 C 
HETATM   19  C10 UNL     1      -0.136  17.754   3.896  1.00  0.00    -0.070 C 
BRANCH  19  20
HETATM   20  C11 UNL     1      -0.676  16.641   4.679  1.00  0.00     0.224 A 
HETATM   21  C12 UNL     1       0.056  16.310   5.923  1.00  0.00     0.214 A 
HETATM   22  O2  UNL     1      -1.172  17.018   5.916  1.00  0.00    -0.368 OA
ENDBRANCH  19  20
ENDBRANCH   6  18
TORSDOF 5
ENDMDL
MODEL 4
REMARK VINA RESULT: -6.645950481      5.137      7.686
REMARK  5 active torsions:
REMARK  status: ('A' for Active; 'I' for Inactive)
REMARK    1  A    between atoms: O1_1  and  C1_3 
REMARK    2  A    between atoms: C1_3  and  C2_4 
REMARK    3  A    between atoms: C3_5  and  C4_6 
REMARK    4  A    between atoms: C8_13  and  C9_14 
REMARK    5  A    between atoms: C10_15  and  C11_16 
ROOT
HETATM    1  C1  UNL     1      -1.460  21.533  -0.325  1.00  0.00     0.170 C 
HETATM    2  C7  UNL     1      -2.414  20.499  -0.825  1.00  0.00     0.288 C 
HETATM    3  N1  UNL     1      -1.772  19.384  -1.486  1.00  0.00    -0.049 N 
ATOM      4  H11 UNL     1      -2.448  18.748  -1.909  1.00  0.00     0.279 HD
ATOM      5  H12 UNL     1      -1.352  18.734  -0.823  1.00  0.00     0.279 HD
HETATM    6  C8  UNL     1      -0.813  19.875  -2.446  1.00  0.00     0.211 C 
HETATM    7  C13 UNL     1      -1.320  21.065  -3.202  1.00  0.00     0.221 C 
HETATM    8  O3  UNL     1      -0.946  22.203  -2.543  1.00  0.00    -0.378 OA
HETATM    9  C14 UNL     1      -0.374  21.853  -1.334  1.00  0.00     0.173 C 
HETATM   10  C15 UNL     1       0.320  20.515  -1.629  1.00  0.00     0.090 C 
ENDROOT
BRANCH   1  11
HETATM   11  O1  UNL     1      -2.186  22.694  -0.059  1.00  0.00    -0.373 OA
ATOM     12  H1  UNL     1      -3.116  22.553  -0.198  1.00  0.00     0.212 HD
ENDBRANCH   1  11
BRANCH   1  13
HETATM   13  C2  UNL     1      -0.835  21.008   0.906  1.00  0.00    -0.063 C 
HETATM   14  C3  UNL     1      -0.310  20.593   1.908  1.00  0.00    -0.099 C 
BRANCH  14  15
HETATM   15  C4  UNL     1       0.349  20.103   3.119  1.00  0.00     0.065 A 
HETATM   16  C5  UNL     1       0.437  18.665   3.419  1.00  0.00     0.018 A 
HETATM   17  C6  UNL     1       1.671  19.303   2.905  1.00  0.00     0.018 A 
ENDBRANCH  14  15
ENDBRANCH   1  13
BRANCH   6  18
HETATM   18  C9  UNL     1      -0.349  18.798  -3.277  1.00  0.00    -0.062 C 
HETATM   19  C10 UNL     1       0.057  17.884  -3.964  1.00  0.00    -0.070 C 
BRANCH  19  20
HETATM   20  C11 UNL     1       0.563  16.775  -4.774  1.00  0.00     0.224 A 
HETATM   21  C12 UNL     1      -0.281  16.378  -5.925  1.00  0.00     0.214 A 
HETATM   22  O2  UNL     1       0.907  17.138  -6.066  1.00  0.00    -0.368 OA
ENDBRANCH  19  20
ENDBRANCH   6  18
TORSDOF 5
ENDMDL
MODEL 5
REMARK VINA RESULT: -6.558875041      2.857      6.230
REMARK  5 active torsions:
REMARK  status: ('A' for Active; 'I' for Inactive)
REMARK    1  A    between atoms: O1_1  and  C1_3 
REMARK    2  A    between atoms: C1_3  and  C2_4 
REMARK    3  A    between atoms: C3_5  and  C4_6 
REMARK    4  A    between atoms: C8_13  and  C9_14 
REMARK    5  A    between atoms: C10_15  and  C11_16 
ROOT
HETATM    1  C1  UNL     1       2.013  21.017   1.223  1.00  0.00     0.170 C 
HETATM    2  C7  UNL     1       2.704  19.769   0.784  1.00  0.00     0.288 C 
HETATM    3  N1  UNL     1       2.464  18.634   1.647  1.00  0.00    -0.049 N 
ATOM      4  H11 UNL     1       3.029  17.826   1.386  1.00  0.00     0.279 HD
ATOM      5  H12 UNL     1       1.543  18.224   1.495  1.00  0.00     0.279 HD
HETATM    6  C8  UNL     1       2.668  19.018   3.023  1.00  0.00     0.211 C 
HETATM    7  C13 UNL     1       3.857  19.912   3.196  1.00  0.00     0.221 C 
HETATM    8  O3  UNL     1       3.452  21.215   3.099  1.00  0.00    -0.378 OA
HETATM    9  C14 UNL     1       2.123  21.243   2.719  1.00  0.00     0.173 C 
HETATM   10  C15 UNL     1       1.527  19.986   3.369  1.00  0.00     0.090 C 
ENDROOT
BRANCH   1  11
HETATM   11  O1  UNL     1       2.603  22.092   0.558  1.00  0.00    -0.373 OA
ATOM     12  H1  UNL     1       3.284  22.488   1.090  1.00  0.00     0.212 HD
ENDBRANCH   1  11
BRANCH   1  13
HETATM   13  C2  UNL     1       0.587  20.890   0.859  1.00  0.00    -0.063 C 
HETATM   14  C3  UNL     1      -0.573  20.796   0.544  1.00  0.00    -0.099 C 
BRANCH  14  15
HETATM   15  C4  UNL     1      -1.977  20.698   0.143  1.00  0.00     0.065 A 
HETATM   16  C5  UNL     1      -2.416  21.062  -1.213  1.00  0.00     0.018 A 
HETATM   17  C6  UNL     1      -2.310  19.612  -0.927  1.00  0.00     0.018 A 
ENDBRANCH  14  15
ENDBRANCH   1  13
BRANCH   6  18
HETATM   18  C9  UNL     1       2.673  17.853   3.866  1.00  0.00    -0.062 C 
HETATM   19  C10 UNL     1       2.660  16.877   4.586  1.00  0.00    -0.070 C 
BRANCH  19  20
HETATM   20  C11 UNL     1       2.621  15.706   5.463  1.00  0.00     0.224 A 
HETATM   21  C12 UNL     1       2.732  15.980   6.914  1.00  0.00     0.214 A 
HETATM   22  O2  UNL     1       1.505  15.659   6.283  1.00  0.00    -0.368 OA
ENDBRANCH  19  20
ENDBRANCH   6  18
TORSDOF 5
ENDMDL
