MODEL 1
REMARK VINA RESULT: -8.060495211      0.000      0.000
REMARK  11 active torsions:
REMARK  status: ('A' for Active; 'I' for Inactive)
REMARK    1  A    between atoms: C2_2  and  C3_3 
REMARK    2  A    between atoms: C3_3  and  C4_4 
REMARK    3  A    between atoms: C16_18  and  C17_19 
REMARK       I    between atoms: C17_19  and  N2_21 
REMARK    4  A    between atoms: N2_21  and  C18_23 
REMARK    5  A    between atoms: C20_25  and  C21_26 
REMARK       I    between atoms: C21_26  and  N3_28 
REMARK    6  A    between atoms: N3_28  and  C22_30 
REMARK    7  A    between atoms: C22_30  and  C23_31 
REMARK    8  A    between atoms: C22_30  and  C25_35 
REMARK    9  A    between atoms: C23_31  and  C24_32 
REMARK   10  A    between atoms: C29_43  and  C30_44 
REMARK   11  A    between atoms: C30_44  and  C31_45 
ROOT
HETATM    1  C18 UNL     1       6.361  25.025   3.565  1.00  0.00     0.036 A 
HETATM    2  C19 UNL     1       7.530  24.349   3.401  1.00  0.00     0.049 A 
HETATM    3  C20 UNL     1       8.681  24.539   4.182  1.00  0.00     0.061 A 
HETATM    4  C26 UNL     1       8.606  25.484   5.181  1.00  0.00     0.059 A 
HETATM    5  N5  UNL     1       9.483  25.948   6.084  1.00  0.00    -0.358 N 
ATOM      6  H5  UNL     1      10.443  25.621   6.187  1.00  0.00     0.166 HD
HETATM    7  C27 UNL     1       8.902  26.924   6.848  1.00  0.00     0.013 A 
HETATM    8  C28 UNL     1       9.559  27.671   7.946  1.00  0.00     0.068 C 
HETATM    9  C29 UNL     1       7.626  27.090   6.424  1.00  0.00    -0.015 A 
HETATM   10  C32 UNL     1       7.408  26.193   5.369  1.00  0.00     0.002 A 
HETATM   11  C33 UNL     1       6.318  25.969   4.582  1.00  0.00     0.044 A 
ENDROOT
BRANCH   1  12
HETATM   12  N2  UNL     1       5.195  24.886   2.763  1.00  0.00    -0.326 N 
HETATM   13  C17 UNL     1       4.109  24.014   3.009  1.00  0.00     0.231 C 
HETATM   14  O2  UNL     1       4.173  23.298   4.011  1.00  0.00    -0.272 OA
ATOM     15  H2  UNL     1       5.137  25.471   1.930  1.00  0.00     0.169 HD
BRANCH  13  16
HETATM   16  C16 UNL     1       2.996  24.044   2.036  1.00  0.00     0.051 C 
HETATM   17  C8  UNL     1       1.634  23.804   2.538  1.00  0.00     0.034 C 
HETATM   18  C7  UNL     1       1.268  22.370   2.323  1.00  0.00     0.033 C 
HETATM   19  C9  UNL     1       1.266  24.341   3.865  1.00  0.00     0.093 C 
HETATM   20  C6  UNL     1       1.494  21.436   3.451  1.00  0.00     0.009 C 
HETATM   21  C35 UNL     1       2.030  22.045   1.069  1.00  0.00     0.109 C 
HETATM   22  C5  UNL     1       1.525  19.988   3.109  1.00  0.00     0.005 C 
HETATM   23  C4  UNL     1       1.640  19.627   1.679  1.00  0.00    -0.008 C 
HETATM   24  C36 UNL     1       2.458  20.625   0.958  1.00  0.00     0.049 C 
HETATM   25  C34 UNL     1       3.251  22.917   1.052  1.00  0.00     0.063 C 
HETATM   26  F1  UNL     1       1.281  22.352  -0.052  1.00  0.00    -0.242 F 
HETATM   27  C10 UNL     1      -0.270  24.426   3.923  1.00  0.00     0.027 C 
HETATM   28  N1  UNL     1       1.575  25.727   4.036  1.00  0.00    -0.347 N 
HETATM   29  C11 UNL     1      -0.543  25.556   4.906  1.00  0.00     0.022 C 
HETATM   30  C12 UNL     1       0.817  26.130   5.223  1.00  0.00     0.126 C 
HETATM   31  C13 UNL     1       2.400  26.596   3.293  1.00  0.00     0.220 C 
HETATM   32  O1  UNL     1       2.911  27.530   4.001  1.00  0.00    -0.273 OA
HETATM   33  C14 UNL     1       2.739  26.575   1.890  1.00  0.00     0.104 C 
HETATM   34  C15 UNL     1       3.026  25.320   1.222  1.00  0.00     0.029 C 
BRANCH  23  35
HETATM   35  C3  UNL     1       0.310  19.300   1.033  1.00  0.00     0.031 C 
BRANCH  35  36
HETATM   36  C2  UNL     1       0.487  19.035  -0.412  1.00  0.00    -0.037 C 
HETATM   37  C1  UNL     1      -0.327  19.611  -1.280  1.00  0.00     0.007 C 
ENDBRANCH  35  36
ENDBRANCH  23  35
ENDBRANCH  13  16
ENDBRANCH   1  12
BRANCH   3  38
HETATM   38  C21 UNL     1       9.829  23.708   3.947  1.00  0.00     0.254 C 
HETATM   39  O3  UNL     1      10.223  23.664   2.717  1.00  0.00    -0.268 OA
HETATM   40  N3  UNL     1      10.543  22.962   4.866  1.00  0.00    -0.342 N 
ATOM     41  H3  UNL     1      10.270  22.955   5.848  1.00  0.00     0.163 HD
BRANCH  40  42
HETATM   42  C22 UNL     1      11.728  22.160   4.400  1.00  0.00     0.194 C 
BRANCH  42  43
HETATM   43  C23 UNL     1      12.891  23.087   4.456  1.00  0.00     0.135 C 
BRANCH  43  44
HETATM   44  C24 UNL     1      13.175  23.600   5.798  1.00  0.00     0.233 C 
HETATM   45  N4  UNL     1      12.436  24.763   6.254  1.00  0.00    -0.062 NA
HETATM   46  O4  UNL     1      13.997  23.149   6.628  1.00  0.00    -0.277 OA
ENDBRANCH  43  44
ENDBRANCH  42  43
BRANCH  42  47
HETATM   47  C25 UNL     1      11.834  20.993   5.313  1.00  0.00     0.197 C 
HETATM   48  O5  UNL     1      11.032  20.885   6.306  1.00  0.00    -0.646 OA
HETATM   49  O6  UNL     1      12.744  19.970   5.196  1.00  0.00    -0.646 OA
ENDBRANCH  42  47
ENDBRANCH  40  42
ENDBRANCH   3  38
BRANCH   9  50
HETATM   50  C30 UNL     1       6.586  28.021   6.923  1.00  0.00     0.141 C 
BRANCH  50  51
HETATM   51  C31 UNL     1       5.498  27.305   7.627  1.00  0.00     0.235 C 
HETATM   52  N6  UNL     1       4.214  27.899   7.712  1.00  0.00    -0.062 NA
HETATM   53  O7  UNL     1       5.700  26.181   8.148  1.00  0.00    -0.277 OA
ENDBRANCH  50  51
ENDBRANCH   9  50
TORSDOF 11
ENDMDL
MODEL 2
REMARK VINA RESULT: -7.880024413      4.709     11.563
REMARK  11 active torsions:
REMARK  status: ('A' for Active; 'I' for Inactive)
REMARK    1  A    between atoms: C2_2  and  C3_3 
REMARK    2  A    between atoms: C3_3  and  C4_4 
REMARK    3  A    between atoms: C16_18  and  C17_19 
REMARK       I    between atoms: C17_19  and  N2_21 
REMARK    4  A    between atoms: N2_21  and  C18_23 
REMARK    5  A    between atoms: C20_25  and  C21_26 
REMARK       I    between atoms: C21_26  and  N3_28 
REMARK    6  A    between atoms: N3_28  and  C22_30 
REMARK    7  A    between atoms: C22_30  and  C23_31 
REMARK    8  A    between atoms: C22_30  and  C25_35 
REMARK    9  A    between atoms: C23_31  and  C24_32 
REMARK   10  A    between atoms: C29_43  and  C30_44 
REMARK   11  A    between atoms: C30_44  and  C31_45 
ROOT
HETATM    1  C18 UNL     1      11.759  24.112   5.750  1.00  0.00     0.036 A 
HETATM    2  C19 UNL     1      10.903  24.094   4.693  1.00  0.00     0.049 A 
HETATM    3  C20 UNL     1       9.562  24.502   4.743  1.00  0.00     0.061 A 
HETATM    4  C26 UNL     1       9.092  24.949   5.957  1.00  0.00     0.059 A 
HETATM    5  N5  UNL     1       7.896  25.381   6.386  1.00  0.00    -0.358 N 
ATOM      6  H5  UNL     1       7.064  25.468   5.803  1.00  0.00     0.166 HD
HETATM    7  C27 UNL     1       7.955  25.689   7.718  1.00  0.00     0.013 A 
HETATM    8  C28 UNL     1       6.832  26.197   8.540  1.00  0.00     0.068 C 
HETATM    9  C29 UNL     1       9.215  25.448   8.153  1.00  0.00    -0.015 A 
HETATM   10  C32 UNL     1       9.959  24.977   7.062  1.00  0.00     0.002 A 
HETATM   11  C33 UNL     1      11.256  24.569   6.960  1.00  0.00     0.044 A 
ENDROOT
BRANCH   1  12
HETATM   12  N2  UNL     1      13.109  23.664   5.741  1.00  0.00    -0.326 N 
HETATM   13  C17 UNL     1      13.599  22.470   6.320  1.00  0.00     0.231 C 
HETATM   14  O2  UNL     1      12.785  21.743   6.894  1.00  0.00    -0.272 OA
ATOM     15  H2  UNL     1      13.790  24.261   5.272  1.00  0.00     0.169 HD
BRANCH  13  16
HETATM   16  C16 UNL     1      15.048  22.207   6.180  1.00  0.00     0.051 C 
HETATM   17  C8  UNL     1      15.490  20.805   6.110  1.00  0.00     0.034 C 
HETATM   18  C7  UNL     1      15.934  20.353   7.464  1.00  0.00     0.033 C 
HETATM   19  C9  UNL     1      14.646  19.834   5.383  1.00  0.00     0.093 C 
HETATM   20  C6  UNL     1      14.936  19.651   8.305  1.00  0.00     0.009 C 
HETATM   21  C35 UNL     1      16.473  21.627   8.051  1.00  0.00     0.109 C 
HETATM   22  C5  UNL     1      15.238  19.577   9.761  1.00  0.00     0.005 C 
HETATM   23  C4  UNL     1      16.313  20.453  10.280  1.00  0.00    -0.008 C 
HETATM   24  C36 UNL     1      16.348  21.727   9.529  1.00  0.00     0.049 C 
HETATM   25  C34 UNL     1      15.710  22.760   7.428  1.00  0.00     0.063 C 
HETATM   26  F1  UNL     1      17.806  21.791   7.724  1.00  0.00    -0.242 F 
HETATM   27  C10 UNL     1      15.535  18.635   5.006  1.00  0.00     0.027 C 
HETATM   28  N1  UNL     1      14.274  20.259   4.068  1.00  0.00    -0.347 N 
HETATM   29  C11 UNL     1      14.884  18.068   3.752  1.00  0.00     0.022 C 
HETATM   30  C12 UNL     1      13.783  19.044   3.413  1.00  0.00     0.126 C 
HETATM   31  C13 UNL     1      14.327  21.524   3.449  1.00  0.00     0.220 C 
HETATM   32  O1  UNL     1      13.422  21.686   2.560  1.00  0.00    -0.273 OA
HETATM   33  C14 UNL     1      15.231  22.627   3.674  1.00  0.00     0.104 C 
HETATM   34  C15 UNL     1      15.629  22.988   5.021  1.00  0.00     0.029 C 
BRANCH  23  35
HETATM   35  C3  UNL     1      17.647  19.751  10.415  1.00  0.00     0.031 C 
BRANCH  35  36
HETATM   36  C2  UNL     1      17.451  18.331  10.783  1.00  0.00    -0.037 C 
HETATM   37  C1  UNL     1      18.116  17.395  10.127  1.00  0.00     0.007 C 
ENDBRANCH  35  36
ENDBRANCH  23  35
ENDBRANCH  13  16
ENDBRANCH   1  12
BRANCH   3  38
HETATM   38  C21 UNL     1       8.785  24.497   3.534  1.00  0.00     0.254 C 
HETATM   39  O3  UNL     1       8.756  23.364   2.913  1.00  0.00    -0.268 OA
HETATM   40  N3  UNL     1       8.084  25.546   2.967  1.00  0.00    -0.342 N 
ATOM     41  H3  UNL     1       8.081  26.463   3.411  1.00  0.00     0.163 HD
BRANCH  40  42
HETATM   42  C22 UNL     1       7.327  25.317   1.688  1.00  0.00     0.194 C 
BRANCH  42  43
HETATM   43  C23 UNL     1       5.938  24.970   2.096  1.00  0.00     0.135 C 
BRANCH  43  44
HETATM   44  C24 UNL     1       5.200  26.088   2.689  1.00  0.00     0.233 C 
HETATM   45  N4  UNL     1       3.892  26.406   2.144  1.00  0.00    -0.062 NA
HETATM   46  O4  UNL     1       5.562  26.824   3.634  1.00  0.00    -0.277 OA
ENDBRANCH  43  44
ENDBRANCH  42  43
BRANCH  42  47
HETATM   47  C25 UNL     1       7.436  26.572   0.901  1.00  0.00     0.197 C 
HETATM   48  O5  UNL     1       8.041  27.586   1.399  1.00  0.00    -0.646 OA
HETATM   49  O6  UNL     1       6.933  26.767  -0.363  1.00  0.00    -0.646 OA
ENDBRANCH  42  47
ENDBRANCH  40  42
ENDBRANCH   3  38
BRANCH   9  50
HETATM   50  C30 UNL     1       9.787  25.620   9.510  1.00  0.00     0.141 C 
BRANCH  50  51
HETATM   51  C31 UNL     1      10.227  27.013   9.750  1.00  0.00     0.235 C 
HETATM   52  N6  UNL     1       9.297  27.962  10.240  1.00  0.00    -0.062 NA
HETATM   53  O7  UNL     1      11.412  27.360   9.523  1.00  0.00    -0.277 OA
ENDBRANCH  50  51
ENDBRANCH   9  50
TORSDOF 11
ENDMDL
MODEL 3
REMARK VINA RESULT: -7.649103058      3.575      6.895
REMARK  11 active torsions:
REMARK  status: ('A' for Active; 'I' for Inactive)
REMARK    1  A    between atoms: C2_2  and  C3_3 
REMARK    2  A    between atoms: C3_3  and  C4_4 
REMARK    3  A    between atoms: C16_18  and  C17_19 
REMARK       I    between atoms: C17_19  and  N2_21 
REMARK    4  A    between atoms: N2_21  and  C18_23 
REMARK    5  A    between atoms: C20_25  and  C21_26 
REMARK       I    between atoms: C21_26  and  N3_28 
REMARK    6  A    between atoms: N3_28  and  C22_30 
REMARK    7  A    between atoms: C22_30  and  C23_31 
REMARK    8  A    between atoms: C22_30  and  C25_35 
REMARK    9  A    between atoms: C23_31  and  C24_32 
REMARK   10  A    between atoms: C29_43  and  C30_44 
REMARK   11  A    between atoms: C30_44  and  C31_45 
ROOT
HETATM    1  C18 UNL     1       5.282  26.468   4.794  1.00  0.00     0.036 A 
HETATM    2  C19 UNL     1       6.315  26.602   5.669  1.00  0.00     0.049 A 
HETATM    3  C20 UNL     1       7.636  26.203   5.414  1.00  0.00     0.061 A 
HETATM    4  C26 UNL     1       7.889  25.634   4.186  1.00  0.00     0.059 A 
HETATM    5  N5  UNL     1       8.987  25.121   3.612  1.00  0.00    -0.358 N 
ATOM      6  H5  UNL     1       9.910  25.086   4.044  1.00  0.00     0.166 HD
HETATM    7  C27 UNL     1       8.690  24.652   2.360  1.00  0.00     0.013 A 
HETATM    8  C28 UNL     1       9.646  24.016   1.424  1.00  0.00     0.068 C 
HETATM    9  C29 UNL     1       7.373  24.868   2.129  1.00  0.00    -0.015 A 
HETATM   10  C32 UNL     1       6.837  25.487   3.267  1.00  0.00     0.002 A 
HETATM   11  C33 UNL     1       5.570  25.893   3.564  1.00  0.00     0.044 A 
ENDROOT
BRANCH   1  12
HETATM   12  N2  UNL     1       3.927  26.822   5.040  1.00  0.00    -0.326 N 
HETATM   13  C17 UNL     1       2.952  26.015   5.671  1.00  0.00     0.231 C 
HETATM   14  O2  UNL     1       3.301  24.892   6.043  1.00  0.00    -0.272 OA
ATOM     15  H2  UNL     1       3.629  27.747   4.731  1.00  0.00     0.169 HD
BRANCH  13  16
HETATM   16  C16 UNL     1       1.601  26.598   5.824  1.00  0.00     0.051 C 
HETATM   17  C8  UNL     1       1.192  27.646   4.876  1.00  0.00     0.034 C 
HETATM   18  C7  UNL     1       1.418  28.990   5.490  1.00  0.00     0.033 C 
HETATM   19  C9  UNL     1       1.625  27.533   3.467  1.00  0.00     0.093 C 
HETATM   20  C6  UNL     1       2.697  29.671   5.181  1.00  0.00     0.009 C 
HETATM   21  C35 UNL     1       1.189  28.704   6.947  1.00  0.00     0.109 C 
HETATM   22  C5  UNL     1       3.090  30.779   6.094  1.00  0.00     0.005 C 
HETATM   23  C4  UNL     1       2.358  30.900   7.375  1.00  0.00    -0.008 C 
HETATM   24  C36 UNL     1       1.970  29.563   7.875  1.00  0.00     0.049 C 
HETATM   25  C34 UNL     1       1.572  27.272   7.183  1.00  0.00     0.063 C 
HETATM   26  F1  UNL     1      -0.149  28.837   7.268  1.00  0.00    -0.242 F 
HETATM   27  C10 UNL     1       0.677  28.398   2.617  1.00  0.00     0.027 C 
HETATM   28  N1  UNL     1       1.355  26.257   2.878  1.00  0.00    -0.347 N 
HETATM   29  C11 UNL     1       0.694  27.733   1.247  1.00  0.00     0.022 C 
HETATM   30  C12 UNL     1       1.509  26.476   1.437  1.00  0.00     0.126 C 
HETATM   31  C13 UNL     1       1.010  25.019   3.457  1.00  0.00     0.220 C 
HETATM   32  O1  UNL     1       1.410  24.017   2.770  1.00  0.00    -0.273 OA
HETATM   33  C14 UNL     1       0.294  24.736   4.677  1.00  0.00     0.104 C 
HETATM   34  C15 UNL     1       0.548  25.513   5.876  1.00  0.00     0.029 C 
BRANCH  23  35
HETATM   35  C3  UNL     1       1.240  31.919   7.334  1.00  0.00     0.031 C 
BRANCH  35  36
HETATM   36  C2  UNL     1       1.220  32.615   6.029  1.00  0.00    -0.037 C 
HETATM   37  C1  UNL     1       0.109  32.616   5.313  1.00  0.00     0.007 C 
ENDBRANCH  35  36
ENDBRANCH  23  35
ENDBRANCH  13  16
ENDBRANCH   1  12
BRANCH   3  38
HETATM   38  C21 UNL     1       8.647  26.465   6.402  1.00  0.00     0.254 C 
HETATM   39  O3  UNL     1       8.980  27.707   6.520  1.00  0.00    -0.268 OA
HETATM   40  N3  UNL     1       9.295  25.556   7.219  1.00  0.00    -0.342 N 
ATOM     41  H3  UNL     1       9.076  24.562   7.160  1.00  0.00     0.163 HD
BRANCH  40  42
HETATM   42  C22 UNL     1      10.327  26.052   8.195  1.00  0.00     0.194 C 
BRANCH  42  43
HETATM   43  C23 UNL     1       9.699  25.939   9.540  1.00  0.00     0.135 C 
BRANCH  43  44
HETATM   44  C24 UNL     1       8.862  27.085   9.900  1.00  0.00     0.233 C 
HETATM   45  N4  UNL     1       9.368  28.014  10.894  1.00  0.00    -0.062 NA
HETATM   46  O4  UNL     1       7.732  27.376   9.446  1.00  0.00    -0.277 OA
ENDBRANCH  43  44
ENDBRANCH  42  43
BRANCH  42  47
HETATM   47  C25 UNL     1      11.529  25.199   8.009  1.00  0.00     0.197 C 
HETATM   48  O5  UNL     1      12.696  25.727   8.034  1.00  0.00    -0.646 OA
HETATM   49  O6  UNL     1      11.518  23.840   7.807  1.00  0.00    -0.646 OA
ENDBRANCH  42  47
ENDBRANCH  40  42
ENDBRANCH   3  38
BRANCH   9  50
HETATM   50  C30 UNL     1       6.567  24.542   0.929  1.00  0.00     0.141 C 
BRANCH  50  51
HETATM   51  C31 UNL     1       6.098  25.762   0.232  1.00  0.00     0.235 C 
HETATM   52  N6  UNL     1       7.048  26.699  -0.243  1.00  0.00    -0.062 NA
HETATM   53  O7  UNL     1       4.873  25.972   0.060  1.00  0.00    -0.277 OA
ENDBRANCH  50  51
ENDBRANCH   9  50
TORSDOF 11
ENDMDL
MODEL 4
REMARK VINA RESULT: -7.638489677      4.017      7.240
REMARK  11 active torsions:
REMARK  status: ('A' for Active; 'I' for Inactive)
REMARK    1  A    between atoms: C2_2  and  C3_3 
REMARK    2  A    between atoms: C3_3  and  C4_4 
REMARK    3  A    between atoms: C16_18  and  C17_19 
REMARK       I    between atoms: C17_19  and  N2_21 
REMARK    4  A    between atoms: N2_21  and  C18_23 
REMARK    5  A    between atoms: C20_25  and  C21_26 
REMARK       I    between atoms: C21_26  and  N3_28 
REMARK    6  A    between atoms: N3_28  and  C22_30 
REMARK    7  A    between atoms: C22_30  and  C23_31 
REMARK    8  A    between atoms: C22_30  and  C25_35 
REMARK    9  A    between atoms: C23_31  and  C24_32 
REMARK   10  A    between atoms: C29_43  and  C30_44 
REMARK   11  A    between atoms: C30_44  and  C31_45 
ROOT
HETATM    1  C18 UNL     1       6.382  26.353   6.788  1.00  0.00     0.036 A 
HETATM    2  C19 UNL     1       6.763  25.978   5.537  1.00  0.00     0.049 A 
HETATM    3  C20 UNL     1       8.028  25.470   5.203  1.00  0.00     0.061 A 
HETATM    4  C26 UNL     1       8.940  25.351   6.227  1.00  0.00     0.059 A 
HETATM    5  N5  UNL     1      10.217  24.944   6.288  1.00  0.00    -0.358 N 
ATOM      6  H5  UNL     1      10.761  24.609   5.492  1.00  0.00     0.166 HD
HETATM    7  C27 UNL     1      10.685  25.043   7.570  1.00  0.00     0.013 A 
HETATM    8  C28 UNL     1      12.049  24.687   8.025  1.00  0.00     0.068 C 
HETATM    9  C29 UNL     1       9.686  25.525   8.349  1.00  0.00    -0.015 A 
HETATM   10  C32 UNL     1       8.569  25.731   7.528  1.00  0.00     0.002 A 
HETATM   11  C33 UNL     1       7.325  26.218   7.798  1.00  0.00     0.044 A 
ENDROOT
BRANCH   1  12
HETATM   12  N2  UNL     1       5.125  26.912   7.147  1.00  0.00    -0.326 N 
HETATM   13  C17 UNL     1       4.302  27.718   6.327  1.00  0.00     0.231 C 
HETATM   14  O2  UNL     1       4.707  27.970   5.190  1.00  0.00    -0.272 OA
ATOM     15  H2  UNL     1       4.785  26.712   8.088  1.00  0.00     0.169 HD
BRANCH  13  16
HETATM   16  C16 UNL     1       3.027  28.184   6.916  1.00  0.00     0.051 C 
HETATM   17  C8  UNL     1       1.973  28.647   5.999  1.00  0.00     0.034 C 
HETATM   18  C7  UNL     1       2.021  30.137   5.896  1.00  0.00     0.033 C 
HETATM   19  C9  UNL     1       1.801  27.946   4.709  1.00  0.00     0.093 C 
HETATM   20  C6  UNL     1       2.795  30.715   4.771  1.00  0.00     0.009 C 
HETATM   21  C35 UNL     1       2.509  30.524   7.263  1.00  0.00     0.109 C 
HETATM   22  C5  UNL     1       3.180  32.146   4.904  1.00  0.00     0.005 C 
HETATM   23  C4  UNL     1       3.040  32.769   6.239  1.00  0.00    -0.008 C 
HETATM   24  C36 UNL     1       3.309  31.777   7.302  1.00  0.00     0.049 C 
HETATM   25  C34 UNL     1       3.361  29.395   7.766  1.00  0.00     0.063 C 
HETATM   26  F1  UNL     1       1.448  30.669   8.138  1.00  0.00    -0.242 F 
HETATM   27  C10 UNL     1       0.377  28.243   4.204  1.00  0.00     0.027 C 
HETATM   28  N1  UNL     1       1.704  26.523   4.830  1.00  0.00    -0.347 N 
HETATM   29  C11 UNL     1       0.026  27.033   3.349  1.00  0.00     0.022 C 
HETATM   30  C12 UNL     1       1.179  26.077   3.537  1.00  0.00     0.126 C 
HETATM   31  C13 UNL     1       2.013  25.657   5.899  1.00  0.00     0.220 C 
HETATM   32  O1  UNL     1       2.373  24.493   5.512  1.00  0.00    -0.273 OA
HETATM   33  C14 UNL     1       1.982  25.896   7.322  1.00  0.00     0.104 C 
HETATM   34  C15 UNL     1       2.463  27.151   7.868  1.00  0.00     0.029 C 
BRANCH  23  35
HETATM   35  C3  UNL     1       1.757  33.555   6.404  1.00  0.00     0.031 C 
BRANCH  35  36
HETATM   36  C2  UNL     1       1.056  33.682   5.107  1.00  0.00    -0.037 C 
HETATM   37  C1  UNL     1      -0.247  33.466   5.052  1.00  0.00     0.007 C 
ENDBRANCH  35  36
ENDBRANCH  23  35
ENDBRANCH  13  16
ENDBRANCH   1  12
BRANCH   3  38
HETATM   38  C21 UNL     1       8.276  25.046   3.853  1.00  0.00     0.254 C 
HETATM   39  O3  UNL     1       7.625  23.992   3.486  1.00  0.00    -0.268 OA
HETATM   40  N3  UNL     1       9.120  25.624   2.921  1.00  0.00    -0.342 N 
ATOM     41  H3  UNL     1       9.663  26.453   3.161  1.00  0.00     0.163 HD
BRANCH  40  42
HETATM   42  C22 UNL     1       9.227  25.014   1.550  1.00  0.00     0.194 C 
BRANCH  42  43
HETATM   43  C23 UNL     1       8.722  26.050   0.607  1.00  0.00     0.135 C 
BRANCH  43  44
HETATM   44  C24 UNL     1       7.400  26.574   0.956  1.00  0.00     0.233 C 
HETATM   45  N4  UNL     1       7.331  27.685   1.888  1.00  0.00    -0.062 NA
HETATM   46  O4  UNL     1       6.288  26.175   0.541  1.00  0.00    -0.277 OA
ENDBRANCH  43  44
ENDBRANCH  42  43
BRANCH  42  47
HETATM   47  C25 UNL     1      10.655  24.658   1.356  1.00  0.00     0.197 C 
HETATM   48  O5  UNL     1      11.246  23.905   2.208  1.00  0.00    -0.646 OA
HETATM   49  O6  UNL     1      11.444  25.068   0.308  1.00  0.00    -0.646 OA
ENDBRANCH  42  47
ENDBRANCH  40  42
ENDBRANCH   3  38
BRANCH   9  50
HETATM   50  C30 UNL     1       9.687  25.813   9.803  1.00  0.00     0.141 C 
BRANCH  50  51
HETATM   51  C31 UNL     1      10.030  27.226  10.083  1.00  0.00     0.235 C 
HETATM   52  N6  UNL     1       9.084  28.055  10.737  1.00  0.00    -0.062 NA
HETATM   53  O7  UNL     1      11.145  27.695   9.750  1.00  0.00    -0.277 OA
ENDBRANCH  50  51
ENDBRANCH   9  50
TORSDOF 11
ENDMDL
MODEL 5
REMARK VINA RESULT: -7.595157309      3.630      9.578
REMARK  11 active torsions:
REMARK  status: ('A' for Active; 'I' for Inactive)
REMARK    1  A    between atoms: C2_2  and  C3_3 
REMARK    2  A    between atoms: C3_3  and  C4_4 
REMARK    3  A    between atoms: C16_18  and  C17_19 
REMARK       I    between atoms: C17_19  and  N2_21 
REMARK    4  A    between atoms: N2_21  and  C18_23 
REMARK    5  A    between atoms: C20_25  and  C21_26 
REMARK       I    between atoms: C21_26  and  N3_28 
REMARK    6  A    between atoms: N3_28  and  C22_30 
REMARK    7  A    between atoms: C22_30  and  C23_31 
REMARK    8  A    between atoms: C22_30  and  C25_35 
REMARK    9  A    between atoms: C23_31  and  C24_32 
REMARK   10  A    between atoms: C29_43  and  C30_44 
REMARK   11  A    between atoms: C30_44  and  C31_45 
ROOT
HETATM    1  C18 UNL     1       4.982  23.858   3.647  1.00  0.00     0.036 A 
HETATM    2  C19 UNL     1       4.712  22.571   3.995  1.00  0.00     0.049 A 
HETATM    3  C20 UNL     1       3.526  21.890   3.680  1.00  0.00     0.061 A 
HETATM    4  C26 UNL     1       2.575  22.590   2.971  1.00  0.00     0.059 A 
HETATM    5  N5  UNL     1       1.345  22.291   2.527  1.00  0.00    -0.358 N 
ATOM      6  H5  UNL     1       0.883  21.390   2.650  1.00  0.00     0.166 HD
HETATM    7  C27 UNL     1       0.800  23.370   1.884  1.00  0.00     0.013 A 
HETATM    8  C28 UNL     1      -0.543  23.419   1.261  1.00  0.00     0.068 C 
HETATM    9  C29 UNL     1       1.701  24.382   1.918  1.00  0.00    -0.015 A 
HETATM   10  C32 UNL     1       2.834  23.920   2.600  1.00  0.00     0.002 A 
HETATM   11  C33 UNL     1       4.005  24.535   2.930  1.00  0.00     0.044 A 
ENDROOT
BRANCH   1  12
HETATM   12  N2  UNL     1       6.155  24.588   3.988  1.00  0.00    -0.326 N 
HETATM   13  C17 UNL     1       7.484  24.239   3.655  1.00  0.00     0.231 C 
HETATM   14  O2  UNL     1       7.653  23.202   3.010  1.00  0.00    -0.272 OA
ATOM     15  H2  UNL     1       6.024  25.445   4.526  1.00  0.00     0.169 HD
BRANCH  13  16
HETATM   16  C16 UNL     1       8.549  25.157   4.115  1.00  0.00     0.051 C 
HETATM   17  C8  UNL     1       9.917  24.925   3.626  1.00  0.00     0.034 C 
HETATM   18  C7  UNL     1      10.686  24.147   4.645  1.00  0.00     0.033 C 
HETATM   19  C9  UNL     1      10.101  24.467   2.233  1.00  0.00     0.093 C 
HETATM   20  C6  UNL     1      10.732  22.675   4.480  1.00  0.00     0.009 C 
HETATM   21  C35 UNL     1      10.064  24.622   5.927  1.00  0.00     0.109 C 
HETATM   22  C5  UNL     1      11.127  21.891   5.683  1.00  0.00     0.005 C 
HETATM   23  C4  UNL     1      11.136  22.596   6.984  1.00  0.00    -0.008 C 
HETATM   24  C36 UNL     1      10.068  23.618   7.024  1.00  0.00     0.049 C 
HETATM   25  C34 UNL     1       8.642  24.992   5.620  1.00  0.00     0.063 C 
HETATM   26  F1  UNL     1      10.701  25.759   6.388  1.00  0.00    -0.242 F 
HETATM   27  C10 UNL     1      11.545  24.803   1.819  1.00  0.00     0.027 C 
HETATM   28  N1  UNL     1       9.401  25.254   1.265  1.00  0.00    -0.347 N 
HETATM   29  C11 UNL     1      11.468  24.974   0.308  1.00  0.00     0.022 C 
HETATM   30  C12 UNL     1       9.998  24.878  -0.019  1.00  0.00     0.126 C 
HETATM   31  C13 UNL     1       8.365  26.200   1.408  1.00  0.00     0.220 C 
HETATM   32  O1  UNL     1       7.598  26.261   0.387  1.00  0.00    -0.273 OA
HETATM   33  C14 UNL     1       8.060  27.077   2.513  1.00  0.00     0.104 C 
HETATM   34  C15 UNL     1       8.157  26.600   3.879  1.00  0.00     0.029 C 
BRANCH  23  35
HETATM   35  C3  UNL     1      12.508  23.084   7.394  1.00  0.00     0.031 C 
BRANCH  35  36
HETATM   36  C2  UNL     1      13.465  21.957   7.450  1.00  0.00    -0.037 C 
HETATM   37  C1  UNL     1      13.974  21.597   8.615  1.00  0.00     0.007 C 
ENDBRANCH  35  36
ENDBRANCH  23  35
ENDBRANCH  13  16
ENDBRANCH   1  12
BRANCH   3  38
HETATM   38  C21 UNL     1       3.396  20.507   4.050  1.00  0.00     0.254 C 
HETATM   39  O3  UNL     1       3.914  20.200   5.192  1.00  0.00    -0.268 OA
HETATM   40  N3  UNL     1       2.796  19.487   3.333  1.00  0.00    -0.342 N 
ATOM     41  H3  UNL     1       2.379  19.674   2.422  1.00  0.00     0.163 HD
BRANCH  40  42
HETATM   42  C22 UNL     1       2.768  18.100   3.915  1.00  0.00     0.194 C 
BRANCH  42  43
HETATM   43  C23 UNL     1       1.392  17.586   3.668  1.00  0.00     0.135 C 
BRANCH  43  44
HETATM   44  C24 UNL     1       0.682  18.289   2.597  1.00  0.00     0.233 C 
HETATM   45  N4  UNL     1      -0.142  19.429   2.959  1.00  0.00    -0.062 NA
HETATM   46  O4  UNL     1       0.695  18.025   1.373  1.00  0.00    -0.277 OA
ENDBRANCH  43  44
ENDBRANCH  42  43
BRANCH  42  47
HETATM   47  C25 UNL     1       3.837  17.332   3.228  1.00  0.00     0.197 C 
HETATM   48  O5  UNL     1       4.168  17.632   2.027  1.00  0.00    -0.646 OA
HETATM   49  O6  UNL     1       4.542  16.286   3.773  1.00  0.00    -0.646 OA
ENDBRANCH  42  47
ENDBRANCH  40  42
ENDBRANCH   3  38
BRANCH   9  50
HETATM   50  C30 UNL     1       1.591  25.753   1.365  1.00  0.00     0.141 C 
BRANCH  50  51
HETATM   51  C31 UNL     1       1.989  25.805  -0.061  1.00  0.00     0.235 C 
HETATM   52  N6  UNL     1       3.323  26.143  -0.398  1.00  0.00    -0.062 NA
HETATM   53  O7  UNL     1       1.160  25.554  -0.968  1.00  0.00    -0.277 OA
ENDBRANCH  50  51
ENDBRANCH   9  50
TORSDOF 11
ENDMDL
