MODEL 1
REMARK VINA RESULT: -11.097247434      0.000      0.000
REMARK  12 active torsions:
REMARK  status: ('A' for Active; 'I' for Inactive)
REMARK    1  A    between atoms: C2_2  and  C4_4 
REMARK    2  A    between atoms: C4_4  and  C5_5 
REMARK    3  A    between atoms: C5_5  and  N1_6 
REMARK    4  A    between atoms: N1_6  and  N2_7 
REMARK    5  A    between atoms: N1_6  and  S1_38 
REMARK       I    between atoms: N2_7  and  C6_9 
REMARK    6  A    between atoms: C6_9  and  C7_11 
REMARK    7  A    between atoms: C7_11  and  C8_12 
REMARK    8  A    between atoms: C7_11  and  N6_24 
REMARK    9  A    between atoms: C8_12  and  C9_13 
REMARK       I    between atoms: N3_17  and  C13_18 
REMARK       I    between atoms: N6_24  and  C15_26 
REMARK   10  A    between atoms: C15_26  and  C16_28 
REMARK   11  A    between atoms: S1_38  and  C26_41 
REMARK   12  A    between atoms: C29_44  and  N7_45 
ROOT
HETATM    1  C7  UNL     1       9.835  22.899   4.224  1.00  0.00     0.201 C 
ENDROOT
BRANCH   1   2
HETATM    2  C6  UNL     1      11.231  22.476   4.034  1.00  0.00     0.259 C 
HETATM    3  N2  UNL     1      11.986  21.623   4.841  1.00  0.00    -0.270 N 
ATOM      4  H2  UNL     1      11.529  21.206   5.651  1.00  0.00     0.185 HD
HETATM    5  O1  UNL     1      11.848  22.954   3.013  1.00  0.00    -0.269 OA
BRANCH   3   6
HETATM    6  N1  UNL     1      13.361  21.293   4.606  1.00  0.00    -0.089 NA
BRANCH   6   7
HETATM    7  C5  UNL     1      13.521  19.919   4.672  1.00  0.00     0.101 C 
BRANCH   7   8
HETATM    8  C4  UNL     1      14.723  19.237   4.244  1.00  0.00     0.016 C 
BRANCH   8   9
HETATM    9  C2  UNL     1      15.035  18.718   3.107  1.00  0.00    -0.087 C 
HETATM   10  C1  UNL     1      16.211  17.742   3.045  1.00  0.00     0.043 C 
HETATM   11  C3  UNL     1      14.358  18.935   1.821  1.00  0.00     0.043 C 
ENDBRANCH   8   9
ENDBRANCH   7   8
ENDBRANCH   6   7
BRANCH   6  12
HETATM   12  S1  UNL     1      14.216  22.320   5.656  1.00  0.00     0.267 S 
HETATM   13  O3  UNL     1      13.232  23.456   6.023  1.00  0.00    -0.204 OA
HETATM   14  O4  UNL     1      15.273  23.045   4.808  1.00  0.00    -0.204 OA
BRANCH  12  15
HETATM   15  C26 UNL     1      14.962  21.699   7.046  1.00  0.00     0.115 A 
HETATM   16  C27 UNL     1      16.349  21.475   7.040  1.00  0.00     0.030 A 
HETATM   17  C28 UNL     1      17.007  20.936   8.119  1.00  0.00     0.031 A 
HETATM   18  C29 UNL     1      16.328  20.594   9.259  1.00  0.00     0.037 A 
HETATM   19  C31 UNL     1      14.963  20.813   9.271  1.00  0.00     0.073 A 
HETATM   20  C32 UNL     1      14.294  21.356   8.182  1.00  0.00     0.141 A 
HETATM   21  F1  UNL     1      12.964  21.553   8.367  1.00  0.00    -0.204 F 
BRANCH  18  22
HETATM   22  N7  UNL     1      16.978  20.055  10.391  1.00  0.00    -0.333 N 
HETATM   23  C30 UNL     1      17.543  18.915  10.345  1.00  0.00     0.201 C 
HETATM   24  N8  UNL     1      17.536  18.161   9.155  1.00  0.00    -0.066 NA
HETATM   25  N9  UNL     1      18.182  18.411  11.502  1.00  0.00    -0.066 NA
ATOM     26  H7  UNL     1      16.996  20.588  11.261  1.00  0.00     0.168 HD
ENDBRANCH  18  22
ENDBRANCH  12  15
ENDBRANCH   6  12
ENDBRANCH   3   6
ENDBRANCH   1   2
BRANCH   1  27
HETATM   27  C8  UNL     1       9.015  23.182   3.062  1.00  0.00     0.012 C 
BRANCH  27  28
HETATM   28  C9  UNL     1       8.237  24.398   2.854  1.00  0.00    -0.063 C 
HETATM   29  C10 UNL     1       8.473  25.284   1.706  1.00  0.00     0.037 C 
HETATM   30  C11 UNL     1       7.142  25.624   1.013  1.00  0.00     0.024 C 
HETATM   31  C12 UNL     1       6.329  26.401   2.062  1.00  0.00     0.126 C 
HETATM   32  N3  UNL     1       6.104  25.447   3.128  1.00  0.00    -0.352 N 
HETATM   33  C13 UNL     1       5.283  25.814   4.210  1.00  0.00     0.184 C 
HETATM   34  C14 UNL     1       6.715  24.140   3.067  1.00  0.00     0.159 C 
HETATM   35  N4  UNL     1       4.586  24.908   4.799  1.00  0.00    -0.374 N 
HETATM   36  N5  UNL     1       5.187  27.152   4.688  1.00  0.00    -0.064 NA
ATOM     37  H42 UNL     1       4.655  23.949   4.457  1.00  0.00     0.158 HD
ATOM     38  H41 UNL     1       3.991  25.173   5.584  1.00  0.00     0.158 HD
ENDBRANCH  27  28
ENDBRANCH   1  27
BRANCH   1  39
HETATM   39  N6  UNL     1       9.932  24.082   5.114  1.00  0.00    -0.344 N 
HETATM   40  C15 UNL     1       9.951  23.988   6.505  1.00  0.00     0.223 C 
HETATM   41  O2  UNL     1       9.883  22.815   7.015  1.00  0.00    -0.273 OA
ATOM     42  H6  UNL     1       9.987  25.007   4.689  1.00  0.00     0.163 HD
BRANCH  40  43
HETATM   43  C16 UNL     1      10.039  25.104   7.447  1.00  0.00     0.086 C 
HETATM   44  C17 UNL     1       9.466  26.403   6.936  1.00  0.00    -0.001 C 
HETATM   45  C18 UNL     1       9.954  27.520   7.831  1.00  0.00     0.010 C 
HETATM   46  C22 UNL     1       7.950  26.408   7.018  1.00  0.00     0.010 C 
HETATM   47  C19 UNL     1       9.572  27.241   9.272  1.00  0.00    -0.013 C 
HETATM   48  C20 UNL     1       8.062  27.302   9.355  1.00  0.00     0.009 C 
HETATM   49  C25 UNL     1      10.107  25.897   9.741  1.00  0.00     0.010 C 
HETATM   50  C21 UNL     1       7.515  26.220   8.444  1.00  0.00    -0.013 C 
HETATM   51  C23 UNL     1       8.037  24.906   8.939  1.00  0.00     0.010 C 
HETATM   52  C24 UNL     1       9.541  24.817   8.819  1.00  0.00    -0.001 C 
ENDBRANCH  40  43
ENDBRANCH   1  39
TORSDOF 12
ENDMDL
MODEL 2
REMARK VINA RESULT: -11.075584188      2.197      3.820
REMARK  12 active torsions:
REMARK  status: ('A' for Active; 'I' for Inactive)
REMARK    1  A    between atoms: C2_2  and  C4_4 
REMARK    2  A    between atoms: C4_4  and  C5_5 
REMARK    3  A    between atoms: C5_5  and  N1_6 
REMARK    4  A    between atoms: N1_6  and  N2_7 
REMARK    5  A    between atoms: N1_6  and  S1_38 
REMARK       I    between atoms: N2_7  and  C6_9 
REMARK    6  A    between atoms: C6_9  and  C7_11 
REMARK    7  A    between atoms: C7_11  and  C8_12 
REMARK    8  A    between atoms: C7_11  and  N6_24 
REMARK    9  A    between atoms: C8_12  and  C9_13 
REMARK       I    between atoms: N3_17  and  C13_18 
REMARK       I    between atoms: N6_24  and  C15_26 
REMARK   10  A    between atoms: C15_26  and  C16_28 
REMARK   11  A    between atoms: S1_38  and  C26_41 
REMARK   12  A    between atoms: C29_44  and  N7_45 
ROOT
HETATM    1  C7  UNL     1      10.044  22.717   5.205  1.00  0.00     0.201 C 
ENDROOT
BRANCH   1   2
HETATM    2  C6  UNL     1      11.208  21.936   5.648  1.00  0.00     0.259 C 
HETATM    3  N2  UNL     1      12.554  22.159   5.352  1.00  0.00    -0.270 N 
ATOM      4  H2  UNL     1      12.788  22.973   4.783  1.00  0.00     0.185 HD
HETATM    5  O1  UNL     1      10.972  20.912   6.389  1.00  0.00    -0.269 OA
BRANCH   3   6
HETATM    6  N1  UNL     1      13.630  21.322   5.794  1.00  0.00    -0.089 NA
BRANCH   6   7
HETATM    7  C5  UNL     1      14.132  21.812   6.987  1.00  0.00     0.101 C 
BRANCH   7   8
HETATM    8  C4  UNL     1      14.606  20.962   8.059  1.00  0.00     0.016 C 
BRANCH   8   9
HETATM    9  C2  UNL     1      15.798  20.759   8.506  1.00  0.00    -0.087 C 
HETATM   10  C1  UNL     1      16.028  19.602   9.478  1.00  0.00     0.043 C 
HETATM   11  C3  UNL     1      17.011  21.513   8.161  1.00  0.00     0.043 C 
ENDBRANCH   8   9
ENDBRANCH   7   8
ENDBRANCH   6   7
BRANCH   6  12
HETATM   12  S1  UNL     1      14.626  21.176   4.425  1.00  0.00     0.267 S 
HETATM   13  O3  UNL     1      15.433  22.494   4.351  1.00  0.00    -0.204 OA
HETATM   14  O4  UNL     1      13.710  21.269   3.194  1.00  0.00    -0.204 OA
BRANCH  12  15
HETATM   15  C26 UNL     1      15.649  19.836   4.246  1.00  0.00     0.115 A 
HETATM   16  C27 UNL     1      16.932  19.868   4.820  1.00  0.00     0.030 A 
HETATM   17  C28 UNL     1      17.823  18.832   4.676  1.00  0.00     0.031 A 
HETATM   18  C29 UNL     1      17.491  17.711   3.962  1.00  0.00     0.037 A 
HETATM   19  C31 UNL     1      16.230  17.673   3.396  1.00  0.00     0.073 A 
HETATM   20  C32 UNL     1      15.327  18.718   3.537  1.00  0.00     0.141 A 
HETATM   21  F1  UNL     1      14.115  18.510   2.963  1.00  0.00    -0.204 F 
BRANCH  18  22
HETATM   22  N7  UNL     1      18.379  16.623   3.811  1.00  0.00    -0.333 N 
HETATM   23  C30 UNL     1      18.672  15.871   4.796  1.00  0.00     0.201 C 
HETATM   24  N8  UNL     1      18.111  16.107   6.067  1.00  0.00    -0.066 NA
HETATM   25  N9  UNL     1      19.565  14.792   4.604  1.00  0.00    -0.066 NA
ATOM     26  H7  UNL     1      18.792  16.435   2.898  1.00  0.00     0.168 HD
ENDBRANCH  18  22
ENDBRANCH  12  15
ENDBRANCH   6  12
ENDBRANCH   3   6
ENDBRANCH   1   2
BRANCH   1  27
HETATM   27  C8  UNL     1      10.115  23.453   3.957  1.00  0.00     0.012 C 
BRANCH  27  28
HETATM   28  C9  UNL     1       8.972  23.987   3.226  1.00  0.00    -0.063 C 
HETATM   29  C10 UNL     1       7.682  23.283   3.181  1.00  0.00     0.037 C 
HETATM   30  C11 UNL     1       6.534  24.254   3.507  1.00  0.00     0.024 C 
HETATM   31  C12 UNL     1       6.555  25.296   2.376  1.00  0.00     0.126 C 
HETATM   32  N3  UNL     1       7.829  25.967   2.522  1.00  0.00    -0.352 N 
HETATM   33  C13 UNL     1       8.119  27.069   1.696  1.00  0.00     0.184 C 
HETATM   34  C14 UNL     1       8.778  25.506   3.509  1.00  0.00     0.159 C 
HETATM   35  N4  UNL     1       8.863  28.012   2.154  1.00  0.00    -0.374 N 
HETATM   36  N5  UNL     1       7.623  27.189   0.366  1.00  0.00    -0.064 NA
ATOM     37  H42 UNL     1       9.218  27.927   3.106  1.00  0.00     0.158 HD
ATOM     38  H41 UNL     1       9.074  28.811   1.555  1.00  0.00     0.158 HD
ENDBRANCH  27  28
ENDBRANCH   1  27
BRANCH   1  39
HETATM   39  N6  UNL     1       9.758  23.622   6.346  1.00  0.00    -0.344 N 
HETATM   40  C15 UNL     1      10.566  24.710   6.674  1.00  0.00     0.223 C 
HETATM   41  O2  UNL     1      11.595  24.920   5.941  1.00  0.00    -0.273 OA
ATOM     42  H6  UNL     1       8.933  23.440   6.917  1.00  0.00     0.163 HD
BRANCH  40  43
HETATM   43  C16 UNL     1      10.354  25.642   7.782  1.00  0.00     0.086 C 
HETATM   44  C17 UNL     1       9.731  26.958   7.385  1.00  0.00    -0.001 C 
HETATM   45  C18 UNL     1       9.919  27.932   8.525  1.00  0.00     0.010 C 
HETATM   46  C22 UNL     1       8.235  26.818   7.169  1.00  0.00     0.010 C 
HETATM   47  C19 UNL     1       9.323  27.367   9.800  1.00  0.00    -0.013 C 
HETATM   48  C20 UNL     1       7.825  27.284   9.596  1.00  0.00     0.009 C 
HETATM   49  C25 UNL     1       9.920  26.012  10.143  1.00  0.00     0.010 C 
HETATM   50  C21 UNL     1       7.580  26.341   8.434  1.00  0.00    -0.013 C 
HETATM   51  C23 UNL     1       8.156  25.008   8.803  1.00  0.00     0.010 C 
HETATM   52  C24 UNL     1       9.657  25.071   8.967  1.00  0.00    -0.001 C 
ENDBRANCH  40  43
ENDBRANCH   1  39
TORSDOF 12
ENDMDL
MODEL 3
REMARK VINA RESULT: -11.013377901      1.132      1.374
REMARK  12 active torsions:
REMARK  status: ('A' for Active; 'I' for Inactive)
REMARK    1  A    between atoms: C2_2  and  C4_4 
REMARK    2  A    between atoms: C4_4  and  C5_5 
REMARK    3  A    between atoms: C5_5  and  N1_6 
REMARK    4  A    between atoms: N1_6  and  N2_7 
REMARK    5  A    between atoms: N1_6  and  S1_38 
REMARK       I    between atoms: N2_7  and  C6_9 
REMARK    6  A    between atoms: C6_9  and  C7_11 
REMARK    7  A    between atoms: C7_11  and  C8_12 
REMARK    8  A    between atoms: C7_11  and  N6_24 
REMARK    9  A    between atoms: C8_12  and  C9_13 
REMARK       I    between atoms: N3_17  and  C13_18 
REMARK       I    between atoms: N6_24  and  C15_26 
REMARK   10  A    between atoms: C15_26  and  C16_28 
REMARK   11  A    between atoms: S1_38  and  C26_41 
REMARK   12  A    between atoms: C29_44  and  N7_45 
ROOT
HETATM    1  C7  UNL     1       9.319  23.474   4.334  1.00  0.00     0.201 C 
ENDROOT
BRANCH   1   2
HETATM    2  C6  UNL     1      10.693  23.184   3.894  1.00  0.00     0.259 C 
HETATM    3  N2  UNL     1      11.622  22.330   4.490  1.00  0.00    -0.270 N 
ATOM      4  H2  UNL     1      11.329  21.810   5.317  1.00  0.00     0.185 HD
HETATM    5  O1  UNL     1      11.105  23.796   2.842  1.00  0.00    -0.269 OA
BRANCH   3   6
HETATM    6  N1  UNL     1      12.961  22.134   4.017  1.00  0.00    -0.089 NA
BRANCH   6   7
HETATM    7  C5  UNL     1      13.118  20.818   3.618  1.00  0.00     0.101 C 
BRANCH   7   8
HETATM    8  C4  UNL     1      14.312  20.322   2.967  1.00  0.00     0.016 C 
BRANCH   8   9
HETATM    9  C2  UNL     1      14.582  19.161   2.478  1.00  0.00    -0.087 C 
HETATM   10  C1  UNL     1      14.849  18.005   3.442  1.00  0.00     0.043 C 
HETATM   11  C3  UNL     1      14.639  18.792   1.057  1.00  0.00     0.043 C 
ENDBRANCH   8   9
ENDBRANCH   7   8
ENDBRANCH   6   7
BRANCH   6  12
HETATM   12  S1  UNL     1      13.931  22.792   5.247  1.00  0.00     0.267 S 
HETATM   13  O3  UNL     1      13.147  24.009   5.795  1.00  0.00    -0.204 OA
HETATM   14  O4  UNL     1      15.140  23.448   4.560  1.00  0.00    -0.204 OA
BRANCH  12  15
HETATM   15  C26 UNL     1      14.487  21.816   6.517  1.00  0.00     0.115 A 
HETATM   16  C27 UNL     1      15.622  21.010   6.320  1.00  0.00     0.030 A 
HETATM   17  C28 UNL     1      16.098  20.167   7.295  1.00  0.00     0.031 A 
HETATM   18  C29 UNL     1      15.479  20.079   8.514  1.00  0.00     0.037 A 
HETATM   19  C31 UNL     1      14.363  20.870   8.714  1.00  0.00     0.073 A 
HETATM   20  C32 UNL     1      13.878  21.723   7.732  1.00  0.00     0.141 A 
HETATM   21  F1  UNL     1      12.803  22.466   8.098  1.00  0.00    -0.204 F 
BRANCH  18  22
HETATM   22  N7  UNL     1      15.955  19.236   9.542  1.00  0.00    -0.333 N 
HETATM   23  C30 UNL     1      17.090  19.434  10.084  1.00  0.00     0.201 C 
HETATM   24  N8  UNL     1      17.901  20.509   9.671  1.00  0.00    -0.066 NA
HETATM   25  N9  UNL     1      17.530  18.565  11.110  1.00  0.00    -0.066 NA
ATOM     26  H7  UNL     1      15.380  18.454   9.856  1.00  0.00     0.168 HD
ENDBRANCH  18  22
ENDBRANCH  12  15
ENDBRANCH   6  12
ENDBRANCH   3   6
ENDBRANCH   1   2
BRANCH   1  27
HETATM   27  C8  UNL     1       8.358  23.981   3.374  1.00  0.00     0.012 C 
BRANCH  27  28
HETATM   28  C9  UNL     1       7.165  24.754   3.703  1.00  0.00    -0.063 C 
HETATM   29  C10 UNL     1       7.060  26.187   3.396  1.00  0.00     0.037 C 
HETATM   30  C11 UNL     1       5.724  26.486   2.694  1.00  0.00     0.024 C 
HETATM   31  C12 UNL     1       4.640  26.133   3.725  1.00  0.00     0.126 C 
HETATM   32  N3  UNL     1       4.784  24.707   3.933  1.00  0.00    -0.352 N 
HETATM   33  C13 UNL     1       3.855  24.038   4.751  1.00  0.00     0.184 C 
HETATM   34  C14 UNL     1       5.868  23.992   3.299  1.00  0.00     0.159 C 
HETATM   35  N4  UNL     1       3.561  22.814   4.489  1.00  0.00    -0.374 N 
HETATM   36  N5  UNL     1       3.219  24.659   5.864  1.00  0.00    -0.064 NA
ATOM     37  H42 UNL     1       4.016  22.370   3.692  1.00  0.00     0.158 HD
ATOM     38  H41 UNL     1       2.888  22.329   5.082  1.00  0.00     0.158 HD
ENDBRANCH  27  28
ENDBRANCH   1  27
BRANCH   1  39
HETATM   39  N6  UNL     1       9.492  24.414   5.470  1.00  0.00    -0.344 N 
HETATM   40  C15 UNL     1       9.767  23.993   6.770  1.00  0.00     0.223 C 
HETATM   41  O2  UNL     1       9.873  22.732   6.970  1.00  0.00    -0.273 OA
ATOM     42  H6  UNL     1       9.406  25.414   5.290  1.00  0.00     0.163 HD
BRANCH  40  43
HETATM   43  C16 UNL     1       9.946  24.855   7.939  1.00  0.00     0.086 C 
HETATM   44  C17 UNL     1      10.332  26.278   7.616  1.00  0.00    -0.001 C 
HETATM   45  C18 UNL     1      10.840  26.928   8.883  1.00  0.00     0.010 C 
HETATM   46  C22 UNL     1       9.131  27.086   7.159  1.00  0.00     0.010 C 
HETATM   47  C19 UNL     1       9.788  26.843   9.973  1.00  0.00    -0.013 C 
HETATM   48  C20 UNL     1       8.618  27.697   9.534  1.00  0.00     0.009 C 
HETATM   49  C25 UNL     1       9.369  25.405  10.233  1.00  0.00     0.010 C 
HETATM   50  C21 UNL     1       8.088  27.106   8.241  1.00  0.00    -0.013 C 
HETATM   51  C23 UNL     1       7.661  25.699   8.527  1.00  0.00     0.010 C 
HETATM   52  C24 UNL     1       8.830  24.827   8.924  1.00  0.00    -0.001 C 
ENDBRANCH  40  43
ENDBRANCH   1  39
TORSDOF 12
ENDMDL
MODEL 4
REMARK VINA RESULT: -10.993069099      0.850      1.073
REMARK  12 active torsions:
REMARK  status: ('A' for Active; 'I' for Inactive)
REMARK    1  A    between atoms: C2_2  and  C4_4 
REMARK    2  A    between atoms: C4_4  and  C5_5 
REMARK    3  A    between atoms: C5_5  and  N1_6 
REMARK    4  A    between atoms: N1_6  and  N2_7 
REMARK    5  A    between atoms: N1_6  and  S1_38 
REMARK       I    between atoms: N2_7  and  C6_9 
REMARK    6  A    between atoms: C6_9  and  C7_11 
REMARK    7  A    between atoms: C7_11  and  C8_12 
REMARK    8  A    between atoms: C7_11  and  N6_24 
REMARK    9  A    between atoms: C8_12  and  C9_13 
REMARK       I    between atoms: N3_17  and  C13_18 
REMARK       I    between atoms: N6_24  and  C15_26 
REMARK   10  A    between atoms: C15_26  and  C16_28 
REMARK   11  A    between atoms: S1_38  and  C26_41 
REMARK   12  A    between atoms: C29_44  and  N7_45 
ROOT
HETATM    1  C7  UNL     1      10.040  22.962   4.200  1.00  0.00     0.201 C 
ENDROOT
BRANCH   1   2
HETATM    2  C6  UNL     1      11.407  22.425   4.137  1.00  0.00     0.259 C 
HETATM    3  N2  UNL     1      12.027  21.549   5.031  1.00  0.00    -0.270 N 
ATOM      4  H2  UNL     1      11.477  21.202   5.816  1.00  0.00     0.185 HD
HETATM    5  O1  UNL     1      12.137  22.811   3.152  1.00  0.00    -0.269 OA
BRANCH   3   6
HETATM    6  N1  UNL     1      13.385  21.103   4.918  1.00  0.00    -0.089 NA
BRANCH   6   7
HETATM    7  C5  UNL     1      13.421  19.721   4.987  1.00  0.00     0.101 C 
BRANCH   7   8
HETATM    8  C4  UNL     1      14.456  18.921   4.367  1.00  0.00     0.016 C 
BRANCH   8   9
HETATM    9  C2  UNL     1      15.007  19.013   3.206  1.00  0.00    -0.087 C 
HETATM   10  C1  UNL     1      16.489  18.666   3.070  1.00  0.00     0.043 C 
HETATM   11  C3  UNL     1      14.354  19.397   1.946  1.00  0.00     0.043 C 
ENDBRANCH   8   9
ENDBRANCH   7   8
ENDBRANCH   6   7
BRANCH   6  12
HETATM   12  S1  UNL     1      14.225  22.054   6.048  1.00  0.00     0.267 S 
HETATM   13  O3  UNL     1      13.164  22.985   6.684  1.00  0.00    -0.204 OA
HETATM   14  O4  UNL     1      15.099  23.032   5.247  1.00  0.00    -0.204 OA
BRANCH  12  15
HETATM   15  C26 UNL     1      15.176  21.323   7.246  1.00  0.00     0.115 A 
HETATM   16  C27 UNL     1      14.754  21.373   8.586  1.00  0.00     0.030 A 
HETATM   17  C28 UNL     1      15.499  20.837   9.608  1.00  0.00     0.031 A 
HETATM   18  C29 UNL     1      16.698  20.221   9.358  1.00  0.00     0.037 A 
HETATM   19  C31 UNL     1      17.118  20.168   8.041  1.00  0.00     0.073 A 
HETATM   20  C32 UNL     1      16.368  20.710   7.006  1.00  0.00     0.141 A 
HETATM   21  F1  UNL     1      16.893  20.536   5.766  1.00  0.00    -0.204 F 
BRANCH  18  22
HETATM   22  N7  UNL     1      17.478  19.645  10.384  1.00  0.00    -0.333 N 
HETATM   23  C30 UNL     1      17.300  18.438  10.747  1.00  0.00     0.201 C 
HETATM   24  N8  UNL     1      16.317  17.642  10.126  1.00  0.00    -0.066 NA
HETATM   25  N9  UNL     1      18.102  17.899  11.780  1.00  0.00    -0.066 NA
ATOM     26  H7  UNL     1      18.196  20.205  10.842  1.00  0.00     0.168 HD
ENDBRANCH  18  22
ENDBRANCH  12  15
ENDBRANCH   6  12
ENDBRANCH   3   6
ENDBRANCH   1   2
BRANCH   1  27
HETATM   27  C8  UNL     1       9.362  23.325   2.970  1.00  0.00     0.012 C 
BRANCH  27  28
HETATM   28  C9  UNL     1       8.554  24.523   2.774  1.00  0.00    -0.063 C 
HETATM   29  C10 UNL     1       8.815  25.463   1.675  1.00  0.00     0.037 C 
HETATM   30  C11 UNL     1       7.507  25.790   0.933  1.00  0.00     0.024 C 
HETATM   31  C12 UNL     1       6.620  26.497   1.971  1.00  0.00     0.126 C 
HETATM   32  N3  UNL     1       6.377  25.493   2.986  1.00  0.00    -0.352 N 
HETATM   33  C13 UNL     1       5.494  25.788   4.041  1.00  0.00     0.184 C 
HETATM   34  C14 UNL     1       7.034  24.209   2.902  1.00  0.00     0.159 C 
HETATM   35  N4  UNL     1       4.801  24.837   4.559  1.00  0.00    -0.374 N 
HETATM   36  N5  UNL     1       5.331  27.102   4.567  1.00  0.00    -0.064 NA
ATOM     37  H42 UNL     1       4.918  23.897   4.183  1.00  0.00     0.158 HD
ATOM     38  H41 UNL     1       4.161  25.051   5.324  1.00  0.00     0.158 HD
ENDBRANCH  27  28
ENDBRANCH   1  27
BRANCH   1  39
HETATM   39  N6  UNL     1      10.148  24.124   5.117  1.00  0.00    -0.344 N 
HETATM   40  C15 UNL     1       9.974  24.022   6.496  1.00  0.00     0.223 C 
HETATM   41  O2  UNL     1       9.712  22.862   6.972  1.00  0.00    -0.273 OA
ATOM     42  H6  UNL     1      10.359  25.039   4.720  1.00  0.00     0.163 HD
BRANCH  40  43
HETATM   43  C16 UNL     1      10.060  25.118   7.462  1.00  0.00     0.086 C 
HETATM   44  C17 UNL     1       9.527  26.439   6.962  1.00  0.00    -0.001 C 
HETATM   45  C18 UNL     1      10.015  27.527   7.891  1.00  0.00     0.010 C 
HETATM   46  C22 UNL     1       8.010  26.474   7.003  1.00  0.00     0.010 C 
HETATM   47  C19 UNL     1       9.587  27.229   9.316  1.00  0.00    -0.013 C 
HETATM   48  C20 UNL     1       8.077  27.321   9.360  1.00  0.00     0.009 C 
HETATM   49  C25 UNL     1      10.081  25.865   9.773  1.00  0.00     0.010 C 
HETATM   50  C21 UNL     1       7.533  26.269   8.413  1.00  0.00    -0.013 C 
HETATM   51  C23 UNL     1       8.013  24.934   8.895  1.00  0.00     0.010 C 
HETATM   52  C24 UNL     1       9.517  24.816   8.815  1.00  0.00    -0.001 C 
ENDBRANCH  40  43
ENDBRANCH   1  39
TORSDOF 12
ENDMDL
MODEL 5
REMARK VINA RESULT: -10.905962230      2.030      3.550
REMARK  12 active torsions:
REMARK  status: ('A' for Active; 'I' for Inactive)
REMARK    1  A    between atoms: C2_2  and  C4_4 
REMARK    2  A    between atoms: C4_4  and  C5_5 
REMARK    3  A    between atoms: C5_5  and  N1_6 
REMARK    4  A    between atoms: N1_6  and  N2_7 
REMARK    5  A    between atoms: N1_6  and  S1_38 
REMARK       I    between atoms: N2_7  and  C6_9 
REMARK    6  A    between atoms: C6_9  and  C7_11 
REMARK    7  A    between atoms: C7_11  and  C8_12 
REMARK    8  A    between atoms: C7_11  and  N6_24 
REMARK    9  A    between atoms: C8_12  and  C9_13 
REMARK       I    between atoms: N3_17  and  C13_18 
REMARK       I    between atoms: N6_24  and  C15_26 
REMARK   10  A    between atoms: C15_26  and  C16_28 
REMARK   11  A    between atoms: S1_38  and  C26_41 
REMARK   12  A    between atoms: C29_44  and  N7_45 
ROOT
HETATM    1  C7  UNL     1       9.950  22.778   4.886  1.00  0.00     0.201 C 
ENDROOT
BRANCH   1   2
HETATM    2  C6  UNL     1      11.079  21.988   5.401  1.00  0.00     0.259 C 
HETATM    3  N2  UNL     1      12.402  21.992   4.957  1.00  0.00    -0.270 N 
ATOM      4  H2  UNL     1      12.649  22.631   4.201  1.00  0.00     0.185 HD
HETATM    5  O1  UNL     1      10.828  21.182   6.371  1.00  0.00    -0.269 OA
BRANCH   3   6
HETATM    6  N1  UNL     1      13.438  21.157   5.490  1.00  0.00    -0.089 NA
BRANCH   6   7
HETATM    7  C5  UNL     1      13.751  21.577   6.771  1.00  0.00     0.101 C 
BRANCH   7   8
HETATM    8  C4  UNL     1      14.576  20.810   7.681  1.00  0.00     0.016 C 
BRANCH   8   9
HETATM    9  C2  UNL     1      15.750  21.049   8.155  1.00  0.00    -0.087 C 
HETATM   10  C1  UNL     1      16.390  22.409   7.876  1.00  0.00     0.043 C 
HETATM   11  C3  UNL     1      16.565  20.152   8.986  1.00  0.00     0.043 C 
ENDBRANCH   8   9
ENDBRANCH   7   8
ENDBRANCH   6   7
BRANCH   6  12
HETATM   12  S1  UNL     1      14.618  21.135   4.268  1.00  0.00     0.267 S 
HETATM   13  O3  UNL     1      15.411  22.454   4.427  1.00  0.00    -0.204 OA
HETATM   14  O4  UNL     1      13.883  21.337   2.934  1.00  0.00    -0.204 OA
BRANCH  12  15
HETATM   15  C26 UNL     1      15.673  19.816   4.117  1.00  0.00     0.115 A 
HETATM   16  C27 UNL     1      16.914  19.849   4.778  1.00  0.00     0.030 A 
HETATM   17  C28 UNL     1      17.830  18.831   4.663  1.00  0.00     0.031 A 
HETATM   18  C29 UNL     1      17.566  17.729   3.892  1.00  0.00     0.037 A 
HETATM   19  C31 UNL     1      16.346  17.691   3.241  1.00  0.00     0.073 A 
HETATM   20  C32 UNL     1      15.419  18.718   3.353  1.00  0.00     0.141 A 
HETATM   21  F1  UNL     1      14.252  18.511   2.692  1.00  0.00    -0.204 F 
BRANCH  18  22
HETATM   22  N7  UNL     1      18.479  16.659   3.769  1.00  0.00    -0.333 N 
HETATM   23  C30 UNL     1      18.717  15.880   4.747  1.00  0.00     0.201 C 
HETATM   24  N8  UNL     1      18.066  16.065   5.983  1.00  0.00    -0.066 NA
HETATM   25  N9  UNL     1      19.639  14.821   4.582  1.00  0.00    -0.066 NA
ATOM     26  H7  UNL     1      18.957  16.508   2.880  1.00  0.00     0.168 HD
ENDBRANCH  18  22
ENDBRANCH  12  15
ENDBRANCH   6  12
ENDBRANCH   3   6
ENDBRANCH   1   2
BRANCH   1  27
HETATM   27  C8  UNL     1      10.083  23.458   3.612  1.00  0.00     0.012 C 
BRANCH  27  28
HETATM   28  C9  UNL     1       9.182  24.490   3.109  1.00  0.00    -0.063 C 
HETATM   29  C10 UNL     1       9.476  25.246   1.883  1.00  0.00     0.037 C 
HETATM   30  C11 UNL     1       8.244  25.266   0.962  1.00  0.00     0.024 C 
HETATM   31  C12 UNL     1       7.165  26.026   1.750  1.00  0.00     0.126 C 
HETATM   32  N3  UNL     1       6.905  25.195   2.907  1.00  0.00    -0.352 N 
HETATM   33  C13 UNL     1       5.870  25.557   3.789  1.00  0.00     0.184 C 
HETATM   34  C14 UNL     1       7.700  24.011   3.137  1.00  0.00     0.159 C 
HETATM   35  N4  UNL     1       5.224  24.632   4.404  1.00  0.00    -0.374 N 
HETATM   36  N5  UNL     1       5.504  26.911   4.036  1.00  0.00    -0.064 NA
ATOM     37  H42 UNL     1       5.486  23.662   4.229  1.00  0.00     0.158 HD
ATOM     38  H41 UNL     1       4.474  24.894   5.045  1.00  0.00     0.158 HD
ENDBRANCH  27  28
ENDBRANCH   1  27
BRANCH   1  39
HETATM   39  N6  UNL     1       9.649  23.736   5.978  1.00  0.00    -0.344 N 
HETATM   40  C15 UNL     1      10.571  24.675   6.441  1.00  0.00     0.223 C 
HETATM   41  O2  UNL     1      11.722  24.694   5.881  1.00  0.00    -0.273 OA
ATOM     42  H6  UNL     1       8.726  23.708   6.410  1.00  0.00     0.163 HD
BRANCH  40  43
HETATM   43  C16 UNL     1      10.351  25.647   7.512  1.00  0.00     0.086 C 
HETATM   44  C17 UNL     1       9.530  26.848   7.111  1.00  0.00    -0.001 C 
HETATM   45  C18 UNL     1       9.703  27.913   8.170  1.00  0.00     0.010 C 
HETATM   46  C22 UNL     1       8.050  26.514   7.063  1.00  0.00     0.010 C 
HETATM   47  C19 UNL     1       9.311  27.368   9.530  1.00  0.00    -0.013 C 
HETATM   48  C20 UNL     1       7.824  27.090   9.490  1.00  0.00     0.009 C 
HETATM   49  C25 UNL     1      10.107  26.120   9.881  1.00  0.00     0.010 C 
HETATM   50  C21 UNL     1       7.588  26.048   8.414  1.00  0.00    -0.013 C 
HETATM   51  C23 UNL     1       8.362  24.822   8.793  1.00  0.00     0.010 C 
HETATM   52  C24 UNL     1       9.852  25.078   8.793  1.00  0.00    -0.001 C 
ENDBRANCH  40  43
ENDBRANCH   1  39
TORSDOF 12
ENDMDL
