MODEL 1
REMARK VINA RESULT: -9.384387945      0.000      0.000
REMARK  13 active torsions:
REMARK  status: ('A' for Active; 'I' for Inactive)
REMARK    1  A    between atoms: C2_2  and  C4_4 
REMARK    2  A    between atoms: C4_4  and  C5_5 
REMARK    3  A    between atoms: C5_5  and  C6_6 
REMARK       I    between atoms: C6_6  and  N1_8 
REMARK    4  A    between atoms: N1_8  and  C7_10 
REMARK    5  A    between atoms: N2_13  and  C10_14 
REMARK    6  A    between atoms: C10_14  and  O2_15 
REMARK    7  A    between atoms: C10_14  and  C11_17 
REMARK    8  A    between atoms: C11_17  and  C12_18 
REMARK    9  A    between atoms: C11_17  and  N4_26 
REMARK   10  A    between atoms: C12_18  and  C13_19 
REMARK       I    between atoms: N4_26  and  C18_28 
REMARK       I    between atoms: C18_28  and  N5_30 
REMARK   11  A    between atoms: C20_35  and  C21_36 
REMARK       I    between atoms: C21_36  and  N8_38 
REMARK   12  A    between atoms: N8_38  and  C22_40 
REMARK   13  A    between atoms: C27_45  and  C28_46 
ROOT
HETATM    1  C7  UNL     1       9.693  22.713   3.533  1.00  0.00     0.086 C 
HETATM    2  C8  UNL     1       9.178  23.055   4.863  1.00  0.00     0.045 C 
HETATM    3  C9  UNL     1       9.162  24.436   5.375  1.00  0.00     0.128 C 
HETATM    4  N2  UNL     1       8.521  25.476   4.657  1.00  0.00    -0.346 N 
HETATM    5  C20 UNL     1       8.158  25.479   3.246  1.00  0.00     0.183 C 
HETATM    6  C27 UNL     1       9.245  24.838   2.428  1.00  0.00     0.030 C 
HETATM    7  C29 UNL     1       9.057  23.372   2.364  1.00  0.00     0.033 C 
ENDROOT
BRANCH   4   8
HETATM    8  C10 UNL     1       8.247  26.656   5.347  1.00  0.00     0.162 C 
BRANCH   8   9
HETATM    9  O2  UNL     1       8.689  27.746   4.732  1.00  0.00    -0.345 OA
ATOM     10  H2  UNL     1       8.441  28.555   5.166  1.00  0.00     0.219 HD
ENDBRANCH   8   9
BRANCH   8  11
HETATM   11  C11 UNL     1       7.589  27.011   6.601  1.00  0.00     0.065 C 
BRANCH  11  12
HETATM   12  C12 UNL     1       7.529  26.051   7.700  1.00  0.00     0.068 C 
BRANCH  12  13
HETATM   13  C13 UNL     1       8.609  26.190   8.789  1.00  0.00     0.010 C 
HETATM   14  C14 UNL     1       9.382  27.500   8.490  1.00  0.00     0.011 C 
HETATM   15  C15 UNL     1      10.358  27.626   9.663  1.00  0.00     0.046 C 
HETATM   16  C16 UNL     1      11.360  26.493   9.596  1.00  0.00     0.071 C 
HETATM   17  N3  UNL     1      10.992  25.455   8.732  1.00  0.00    -0.328 N 
HETATM   18 BR1  UNL     1      12.145  24.984   7.375  1.00  0.00     0.049 Br
HETATM   19  C17 UNL     1       9.622  25.109   8.580  1.00  0.00     0.140 C 
ENDBRANCH  12  13
ENDBRANCH  11  12
BRANCH  11  20
HETATM   20  N4  UNL     1       6.581  28.027   6.460  1.00  0.00    -0.308 N 
HETATM   21  C18 UNL     1       5.185  27.851   6.439  1.00  0.00     0.326 C 
HETATM   22  O3  UNL     1       4.698  26.704   6.548  1.00  0.00    -0.247 OA
HETATM   23  N5  UNL     1       4.310  28.951   6.295  1.00  0.00    -0.285 N 
HETATM   24  C19 UNL     1       3.346  29.040   5.454  1.00  0.00     0.204 C 
ATOM     25  H5  UNL     1       4.458  29.746   6.917  1.00  0.00     0.172 HD
HETATM   26  N6  UNL     1       2.992  28.043   4.512  1.00  0.00    -0.066 NA
HETATM   27  N7  UNL     1       2.573  30.237   5.469  1.00  0.00    -0.066 NA
ATOM     28  H4  UNL     1       6.916  28.985   6.365  1.00  0.00     0.170 HD
ENDBRANCH  11  20
ENDBRANCH   8  11
ENDBRANCH   4   8
BRANCH   5  29
HETATM   29  C21 UNL     1       6.873  24.951   2.876  1.00  0.00     0.241 C 
HETATM   30  O4  UNL     1       6.451  25.124   1.678  1.00  0.00    -0.271 OA
HETATM   31  N8  UNL     1       5.989  24.232   3.729  1.00  0.00    -0.355 N 
ATOM     32  H8  UNL     1       6.270  24.069   4.696  1.00  0.00     0.162 HD
BRANCH  31  33
HETATM   33  C22 UNL     1       4.707  23.723   3.288  1.00  0.00     0.084 C 
HETATM   34  C23 UNL     1       3.550  24.624   3.613  1.00  0.00     0.025 C 
HETATM   35  C24 UNL     1       2.371  23.690   3.308  1.00  0.00     0.002 C 
HETATM   36  C25 UNL     1       2.836  22.351   3.803  1.00  0.00     0.002 C 
HETATM   37  C26 UNL     1       4.325  22.460   4.030  1.00  0.00     0.025 C 
ENDBRANCH  31  33
ENDBRANCH   5  29
BRANCH   6  38
HETATM   38  C28 UNL     1       9.393  25.384   1.043  1.00  0.00     0.093 C 
HETATM   39  S1  UNL     1      11.113  25.154   0.525  1.00  0.00    -0.097 SA
ENDBRANCH   6  38
BRANCH   1  40
HETATM   40  N1  UNL     1      11.125  22.886   3.483  1.00  0.00    -0.356 N 
HETATM   41  C6  UNL     1      12.014  22.086   4.283  1.00  0.00     0.217 C 
HETATM   42  O1  UNL     1      11.476  21.229   5.026  1.00  0.00    -0.274 OA
ATOM     43  H1  UNL     1      11.518  23.595   2.864  1.00  0.00     0.162 HD
BRANCH  41  44
HETATM   44  C5  UNL     1      13.479  22.213   4.277  1.00  0.00     0.103 C 
BRANCH  44  45
HETATM   45  C4  UNL     1      14.178  21.474   3.178  1.00  0.00     0.013 C 
BRANCH  45  46
HETATM   46  C2  UNL     1      14.156  19.983   3.287  1.00  0.00    -0.022 C 
HETATM   47  C1  UNL     1      15.233  19.543   4.282  1.00  0.00     0.009 C 
HETATM   48  C3  UNL     1      14.563  19.328   1.964  1.00  0.00     0.009 C 
ENDBRANCH  45  46
ENDBRANCH  44  45
ENDBRANCH  41  44
ENDBRANCH   1  40
TORSDOF 13
ENDMDL
MODEL 2
REMARK VINA RESULT: -9.122861738      0.932      1.381
REMARK  13 active torsions:
REMARK  status: ('A' for Active; 'I' for Inactive)
REMARK    1  A    between atoms: C2_2  and  C4_4 
REMARK    2  A    between atoms: C4_4  and  C5_5 
REMARK    3  A    between atoms: C5_5  and  C6_6 
REMARK       I    between atoms: C6_6  and  N1_8 
REMARK    4  A    between atoms: N1_8  and  C7_10 
REMARK    5  A    between atoms: N2_13  and  C10_14 
REMARK    6  A    between atoms: C10_14  and  O2_15 
REMARK    7  A    between atoms: C10_14  and  C11_17 
REMARK    8  A    between atoms: C11_17  and  C12_18 
REMARK    9  A    between atoms: C11_17  and  N4_26 
REMARK   10  A    between atoms: C12_18  and  C13_19 
REMARK       I    between atoms: N4_26  and  C18_28 
REMARK       I    between atoms: C18_28  and  N5_30 
REMARK   11  A    between atoms: C20_35  and  C21_36 
REMARK       I    between atoms: C21_36  and  N8_38 
REMARK   12  A    between atoms: N8_38  and  C22_40 
REMARK   13  A    between atoms: C27_45  and  C28_46 
ROOT
HETATM    1  C7  UNL     1       9.775  22.747   3.611  1.00  0.00     0.086 C 
HETATM    2  C8  UNL     1       9.228  23.079   4.931  1.00  0.00     0.045 C 
HETATM    3  C9  UNL     1       9.160  24.462   5.435  1.00  0.00     0.128 C 
HETATM    4  N2  UNL     1       8.499  25.477   4.701  1.00  0.00    -0.346 N 
HETATM    5  C20 UNL     1       8.158  25.462   3.284  1.00  0.00     0.183 C 
HETATM    6  C27 UNL     1       9.279  24.852   2.487  1.00  0.00     0.030 C 
HETATM    7  C29 UNL     1       9.138  23.380   2.429  1.00  0.00     0.033 C 
ENDROOT
BRANCH   4   8
HETATM    8  C10 UNL     1       8.176  26.651   5.380  1.00  0.00     0.162 C 
BRANCH   8   9
HETATM    9  O2  UNL     1       8.604  27.751   4.773  1.00  0.00    -0.345 OA
ATOM     10  H2  UNL     1       7.975  28.120   4.164  1.00  0.00     0.219 HD
ENDBRANCH   8   9
BRANCH   8  11
HETATM   11  C11 UNL     1       7.478  26.992   6.616  1.00  0.00     0.065 C 
BRANCH  11  12
HETATM   12  C12 UNL     1       7.402  26.027   7.710  1.00  0.00     0.068 C 
BRANCH  12  13
HETATM   13  C13 UNL     1       8.444  26.184   8.833  1.00  0.00     0.010 C 
HETATM   14  C14 UNL     1       9.155  27.540   8.599  1.00  0.00     0.011 C 
HETATM   15  C15 UNL     1      10.092  27.676   9.803  1.00  0.00     0.046 C 
HETATM   16  C16 UNL     1      11.154  26.599   9.726  1.00  0.00     0.071 C 
HETATM   17  N3  UNL     1      10.863  25.574   8.817  1.00  0.00    -0.328 N 
HETATM   18 BR1  UNL     1      12.074  25.210   7.479  1.00  0.00     0.049 Br
HETATM   19  C17 UNL     1       9.517  25.163   8.616  1.00  0.00     0.140 C 
ENDBRANCH  12  13
ENDBRANCH  11  12
BRANCH  11  20
HETATM   20  N4  UNL     1       6.459  27.993   6.450  1.00  0.00    -0.308 N 
HETATM   21  C18 UNL     1       5.068  27.794   6.375  1.00  0.00     0.326 C 
HETATM   22  O3  UNL     1       4.596  26.638   6.452  1.00  0.00    -0.247 OA
HETATM   23  N5  UNL     1       4.180  28.881   6.212  1.00  0.00    -0.285 N 
HETATM   24  C19 UNL     1       3.247  28.965   5.336  1.00  0.00     0.204 C 
ATOM     25  H5  UNL     1       4.291  29.670   6.848  1.00  0.00     0.172 HD
HETATM   26  N6  UNL     1       2.944  27.974   4.370  1.00  0.00    -0.066 NA
HETATM   27  N7  UNL     1       2.453  30.149   5.337  1.00  0.00    -0.066 NA
ATOM     28  H4  UNL     1       6.781  28.957   6.379  1.00  0.00     0.170 HD
ENDBRANCH  11  20
ENDBRANCH   8  11
ENDBRANCH   4   8
BRANCH   5  29
HETATM   29  C21 UNL     1       6.897  24.892   2.896  1.00  0.00     0.241 C 
HETATM   30  O4  UNL     1       6.518  24.993   1.676  1.00  0.00    -0.271 OA
HETATM   31  N8  UNL     1       5.993  24.204   3.754  1.00  0.00    -0.355 N 
ATOM     32  H8  UNL     1       6.241  24.097   4.738  1.00  0.00     0.162 HD
BRANCH  31  33
HETATM   33  C22 UNL     1       4.737  23.649   3.293  1.00  0.00     0.084 C 
HETATM   34  C23 UNL     1       3.555  24.546   3.525  1.00  0.00     0.025 C 
HETATM   35  C24 UNL     1       2.403  23.576   3.228  1.00  0.00     0.002 C 
HETATM   36  C25 UNL     1       2.869  22.275   3.813  1.00  0.00     0.002 C 
HETATM   37  C26 UNL     1       4.346  22.422   4.090  1.00  0.00     0.025 C 
ENDBRANCH  31  33
ENDBRANCH   5  29
BRANCH   6  38
HETATM   38  C28 UNL     1       9.432  25.395   1.102  1.00  0.00     0.093 C 
HETATM   39  S1  UNL     1      11.126  25.068   0.551  1.00  0.00    -0.097 SA
ENDBRANCH   6  38
BRANCH   1  40
HETATM   40  N1  UNL     1      11.202  22.965   3.584  1.00  0.00    -0.356 N 
HETATM   41  C6  UNL     1      12.111  22.129   4.321  1.00  0.00     0.217 C 
HETATM   42  O1  UNL     1      11.595  21.199   4.989  1.00  0.00    -0.274 OA
ATOM     43  H1  UNL     1      11.576  23.733   3.027  1.00  0.00     0.162 HD
BRANCH  41  44
HETATM   44  C5  UNL     1      13.571  22.298   4.335  1.00  0.00     0.103 C 
BRANCH  44  45
HETATM   45  C4  UNL     1      14.282  21.609   5.458  1.00  0.00     0.013 C 
BRANCH  45  46
HETATM   46  C2  UNL     1      14.395  22.391   6.727  1.00  0.00    -0.022 C 
HETATM   47  C1  UNL     1      15.855  22.384   7.187  1.00  0.00     0.009 C 
HETATM   48  C3  UNL     1      13.630  21.708   7.865  1.00  0.00     0.009 C 
ENDBRANCH  45  46
ENDBRANCH  44  45
ENDBRANCH  41  44
ENDBRANCH   1  40
TORSDOF 13
ENDMDL
MODEL 3
REMARK VINA RESULT: -8.933070944      1.126      1.317
REMARK  13 active torsions:
REMARK  status: ('A' for Active; 'I' for Inactive)
REMARK    1  A    between atoms: C2_2  and  C4_4 
REMARK    2  A    between atoms: C4_4  and  C5_5 
REMARK    3  A    between atoms: C5_5  and  C6_6 
REMARK       I    between atoms: C6_6  and  N1_8 
REMARK    4  A    between atoms: N1_8  and  C7_10 
REMARK    5  A    between atoms: N2_13  and  C10_14 
REMARK    6  A    between atoms: C10_14  and  O2_15 
REMARK    7  A    between atoms: C10_14  and  C11_17 
REMARK    8  A    between atoms: C11_17  and  C12_18 
REMARK    9  A    between atoms: C11_17  and  N4_26 
REMARK   10  A    between atoms: C12_18  and  C13_19 
REMARK       I    between atoms: N4_26  and  C18_28 
REMARK       I    between atoms: C18_28  and  N5_30 
REMARK   11  A    between atoms: C20_35  and  C21_36 
REMARK       I    between atoms: C21_36  and  N8_38 
REMARK   12  A    between atoms: N8_38  and  C22_40 
REMARK   13  A    between atoms: C27_45  and  C28_46 
ROOT
HETATM    1  C7  UNL     1       9.780  22.657   3.564  1.00  0.00     0.086 C 
HETATM    2  C8  UNL     1       9.182  23.158   4.806  1.00  0.00     0.045 C 
HETATM    3  C9  UNL     1       9.124  24.593   5.134  1.00  0.00     0.128 C 
HETATM    4  N2  UNL     1       8.521  25.522   4.251  1.00  0.00    -0.346 N 
HETATM    5  C20 UNL     1       8.245  25.339   2.831  1.00  0.00     0.183 C 
HETATM    6  C27 UNL     1       9.385  24.616   2.170  1.00  0.00     0.030 C 
HETATM    7  C29 UNL     1       9.213  23.150   2.285  1.00  0.00     0.033 C 
ENDROOT
BRANCH   4   8
HETATM    8  C10 UNL     1       8.196  26.776   4.765  1.00  0.00     0.162 C 
BRANCH   8   9
HETATM    9  O2  UNL     1       8.702  27.785   4.066  1.00  0.00    -0.345 OA
ATOM     10  H2  UNL     1       8.457  28.641   4.401  1.00  0.00     0.219 HD
ENDBRANCH   8   9
BRANCH   8  11
HETATM   11  C11 UNL     1       7.431  27.280   5.902  1.00  0.00     0.065 C 
BRANCH  11  12
HETATM   12  C12 UNL     1       8.108  27.956   7.006  1.00  0.00     0.068 C 
BRANCH  12  13
HETATM   13  C13 UNL     1       8.320  27.127   8.287  1.00  0.00     0.010 C 
HETATM   14  C14 UNL     1       9.349  27.895   9.154  1.00  0.00     0.011 C 
HETATM   15  C15 UNL     1       9.426  27.075  10.445  1.00  0.00     0.046 C 
HETATM   16  C16 UNL     1      10.029  25.722  10.135  1.00  0.00     0.071 C 
HETATM   17  N3  UNL     1      10.065  25.412   8.770  1.00  0.00    -0.328 N 
HETATM   18 BR1  UNL     1      11.685  24.995   8.000  1.00  0.00     0.049 Br
HETATM   19  C17 UNL     1       9.026  25.863   7.911  1.00  0.00     0.140 C 
ENDBRANCH  12  13
ENDBRANCH  11  12
BRANCH  11  20
HETATM   20  N4  UNL     1       6.189  26.586   6.119  1.00  0.00    -0.308 N 
HETATM   21  C18 UNL     1       5.040  26.614   5.308  1.00  0.00     0.326 C 
HETATM   22  O3  UNL     1       5.027  27.303   4.265  1.00  0.00    -0.247 OA
HETATM   23  N5  UNL     1       3.885  25.874   5.649  1.00  0.00    -0.285 N 
HETATM   24  C19 UNL     1       2.688  26.331   5.701  1.00  0.00     0.204 C 
ATOM     25  H5  UNL     1       4.016  24.888   5.873  1.00  0.00     0.172 HD
HETATM   26  N6  UNL     1       2.313  27.669   5.426  1.00  0.00    -0.066 NA
HETATM   27  N7  UNL     1       1.655  25.418   6.064  1.00  0.00    -0.066 NA
ATOM     28  H4  UNL     1       6.137  26.008   6.957  1.00  0.00     0.170 HD
ENDBRANCH  11  20
ENDBRANCH   8  11
ENDBRANCH   4   8
BRANCH   5  29
HETATM   29  C21 UNL     1       6.989  24.749   2.456  1.00  0.00     0.241 C 
HETATM   30  O4  UNL     1       6.671  24.702   1.216  1.00  0.00    -0.271 OA
HETATM   31  N8  UNL     1       6.029  24.192   3.347  1.00  0.00    -0.355 N 
ATOM     32  H8  UNL     1       6.228  24.206   4.348  1.00  0.00     0.162 HD
BRANCH  31  33
HETATM   33  C22 UNL     1       4.783  23.606   2.898  1.00  0.00     0.084 C 
HETATM   34  C23 UNL     1       3.725  24.617   2.559  1.00  0.00     0.025 C 
HETATM   35  C24 UNL     1       2.496  23.706   2.430  1.00  0.00     0.002 C 
HETATM   36  C25 UNL     1       2.679  22.700   3.529  1.00  0.00     0.002 C 
HETATM   37  C26 UNL     1       4.108  22.821   4.002  1.00  0.00     0.025 C 
ENDBRANCH  31  33
ENDBRANCH   5  29
BRANCH   6  38
HETATM   38  C28 UNL     1       9.615  24.982   0.738  1.00  0.00     0.093 C 
HETATM   39  S1  UNL     1      11.402  25.063   0.454  1.00  0.00    -0.097 SA
ENDBRANCH   6  38
BRANCH   1  40
HETATM   40  N1  UNL     1      11.211  22.843   3.580  1.00  0.00    -0.356 N 
HETATM   41  C6  UNL     1      12.075  22.022   4.385  1.00  0.00     0.217 C 
HETATM   42  O1  UNL     1      11.516  21.133   5.073  1.00  0.00    -0.274 OA
ATOM     43  H1  UNL     1      11.621  23.578   3.004  1.00  0.00     0.162 HD
BRANCH  41  44
HETATM   44  C5  UNL     1      13.537  22.162   4.444  1.00  0.00     0.103 C 
BRANCH  44  45
HETATM   45  C4  UNL     1      14.288  21.469   3.349  1.00  0.00     0.013 C 
BRANCH  45  46
HETATM   46  C2  UNL     1      13.994  20.012   3.187  1.00  0.00    -0.022 C 
HETATM   47  C1  UNL     1      14.624  19.246   4.353  1.00  0.00     0.009 C 
HETATM   48  C3  UNL     1      14.681  19.446   1.940  1.00  0.00     0.009 C 
ENDBRANCH  45  46
ENDBRANCH  44  45
ENDBRANCH  41  44
ENDBRANCH   1  40
TORSDOF 13
ENDMDL
MODEL 4
REMARK VINA RESULT: -8.837302661      1.476      1.954
REMARK  13 active torsions:
REMARK  status: ('A' for Active; 'I' for Inactive)
REMARK    1  A    between atoms: C2_2  and  C4_4 
REMARK    2  A    between atoms: C4_4  and  C5_5 
REMARK    3  A    between atoms: C5_5  and  C6_6 
REMARK       I    between atoms: C6_6  and  N1_8 
REMARK    4  A    between atoms: N1_8  and  C7_10 
REMARK    5  A    between atoms: N2_13  and  C10_14 
REMARK    6  A    between atoms: C10_14  and  O2_15 
REMARK    7  A    between atoms: C10_14  and  C11_17 
REMARK    8  A    between atoms: C11_17  and  C12_18 
REMARK    9  A    between atoms: C11_17  and  N4_26 
REMARK   10  A    between atoms: C12_18  and  C13_19 
REMARK       I    between atoms: N4_26  and  C18_28 
REMARK       I    between atoms: C18_28  and  N5_30 
REMARK   11  A    between atoms: C20_35  and  C21_36 
REMARK       I    between atoms: C21_36  and  N8_38 
REMARK   12  A    between atoms: N8_38  and  C22_40 
REMARK   13  A    between atoms: C27_45  and  C28_46 
ROOT
HETATM    1  C7  UNL     1       9.849  22.717   3.612  1.00  0.00     0.086 C 
HETATM    2  C8  UNL     1       9.232  23.209   4.848  1.00  0.00     0.045 C 
HETATM    3  C9  UNL     1       9.136  24.644   5.168  1.00  0.00     0.128 C 
HETATM    4  N2  UNL     1       8.515  25.554   4.277  1.00  0.00    -0.346 N 
HETATM    5  C20 UNL     1       8.252  25.357   2.857  1.00  0.00     0.183 C 
HETATM    6  C27 UNL     1       9.413  24.658   2.205  1.00  0.00     0.030 C 
HETATM    7  C29 UNL     1       9.277  23.189   2.327  1.00  0.00     0.033 C 
ENDROOT
BRANCH   4   8
HETATM    8  C10 UNL     1       8.156  26.802   4.782  1.00  0.00     0.162 C 
BRANCH   8   9
HETATM    9  O2  UNL     1       8.646  27.820   4.085  1.00  0.00    -0.345 OA
ATOM     10  H2  UNL     1       9.005  28.514   4.626  1.00  0.00     0.219 HD
ENDBRANCH   8   9
BRANCH   8  11
HETATM   11  C11 UNL     1       7.367  27.292   5.909  1.00  0.00     0.065 C 
BRANCH  11  12
HETATM   12  C12 UNL     1       8.019  27.966   7.028  1.00  0.00     0.068 C 
BRANCH  12  13
HETATM   13  C13 UNL     1       8.275  27.113   8.284  1.00  0.00     0.010 C 
HETATM   14  C14 UNL     1       9.256  27.912   9.179  1.00  0.00     0.011 C 
HETATM   15  C15 UNL     1       9.378  27.059  10.444  1.00  0.00     0.046 C 
HETATM   16  C16 UNL     1      10.059  25.752  10.096  1.00  0.00     0.071 C 
HETATM   17  N3  UNL     1      10.115  25.486   8.722  1.00  0.00    -0.328 N 
HETATM   18 BR1  UNL     1      11.759  25.188   7.947  1.00  0.00     0.049 Br
HETATM   19  C17 UNL     1       9.055  25.903   7.873  1.00  0.00     0.140 C 
ENDBRANCH  12  13
ENDBRANCH  11  12
BRANCH  11  20
HETATM   20  N4  UNL     1       6.128  26.586   6.100  1.00  0.00    -0.308 N 
HETATM   21  C18 UNL     1       5.002  26.590   5.257  1.00  0.00     0.326 C 
HETATM   22  O3  UNL     1       5.010  27.265   4.204  1.00  0.00    -0.247 OA
HETATM   23  N5  UNL     1       3.846  25.841   5.574  1.00  0.00    -0.285 N 
HETATM   24  C19 UNL     1       2.643  26.284   5.587  1.00  0.00     0.204 C 
ATOM     25  H5  UNL     1       3.982  24.859   5.816  1.00  0.00     0.172 HD
HETATM   26  N6  UNL     1       2.261  27.614   5.283  1.00  0.00    -0.066 NA
HETATM   27  N7  UNL     1       1.610  25.364   5.933  1.00  0.00    -0.066 NA
ATOM     28  H4  UNL     1       6.058  26.018   6.944  1.00  0.00     0.170 HD
ENDBRANCH  11  20
ENDBRANCH   8  11
ENDBRANCH   4   8
BRANCH   5  29
HETATM   29  C21 UNL     1       7.013  24.733   2.477  1.00  0.00     0.241 C 
HETATM   30  O4  UNL     1       6.698  24.681   1.237  1.00  0.00    -0.271 OA
HETATM   31  N8  UNL     1       6.067  24.147   3.365  1.00  0.00    -0.355 N 
ATOM     32  H8  UNL     1       6.264  24.163   4.367  1.00  0.00     0.162 HD
BRANCH  31  33
HETATM   33  C22 UNL     1       4.839  23.529   2.913  1.00  0.00     0.084 C 
HETATM   34  C23 UNL     1       3.779  24.512   2.505  1.00  0.00     0.025 C 
HETATM   35  C24 UNL     1       2.562  23.582   2.387  1.00  0.00     0.002 C 
HETATM   36  C25 UNL     1       2.729  22.627   3.533  1.00  0.00     0.002 C 
HETATM   37  C26 UNL     1       4.144  22.784   4.034  1.00  0.00     0.025 C 
ENDBRANCH  31  33
ENDBRANCH   5  29
BRANCH   6  38
HETATM   38  C28 UNL     1       9.641  25.022   0.772  1.00  0.00     0.093 C 
HETATM   39  S1  UNL     1      11.428  25.068   0.478  1.00  0.00    -0.097 SA
ENDBRANCH   6  38
BRANCH   1  40
HETATM   40  N1  UNL     1      11.275  22.939   3.634  1.00  0.00    -0.356 N 
HETATM   41  C6  UNL     1      12.162  22.104   4.398  1.00  0.00     0.217 C 
HETATM   42  O1  UNL     1      11.628  21.170   5.045  1.00  0.00    -0.274 OA
ATOM     43  H1  UNL     1      11.665  23.711   3.092  1.00  0.00     0.162 HD
BRANCH  41  44
HETATM   44  C5  UNL     1      13.620  22.278   4.461  1.00  0.00     0.103 C 
BRANCH  44  45
HETATM   45  C4  UNL     1      14.286  21.653   5.648  1.00  0.00     0.013 C 
BRANCH  45  46
HETATM   46  C2  UNL     1      14.334  22.498   6.881  1.00  0.00    -0.022 C 
HETATM   47  C1  UNL     1      15.786  22.599   7.357  1.00  0.00     0.009 C 
HETATM   48  C3  UNL     1      13.595  21.825   8.040  1.00  0.00     0.009 C 
ENDBRANCH  45  46
ENDBRANCH  44  45
ENDBRANCH  41  44
ENDBRANCH   1  40
TORSDOF 13
ENDMDL
MODEL 5
REMARK VINA RESULT: -8.832807659      1.479      1.760
REMARK  13 active torsions:
REMARK  status: ('A' for Active; 'I' for Inactive)
REMARK    1  A    between atoms: C2_2  and  C4_4 
REMARK    2  A    between atoms: C4_4  and  C5_5 
REMARK    3  A    between atoms: C5_5  and  C6_6 
REMARK       I    between atoms: C6_6  and  N1_8 
REMARK    4  A    between atoms: N1_8  and  C7_10 
REMARK    5  A    between atoms: N2_13  and  C10_14 
REMARK    6  A    between atoms: C10_14  and  O2_15 
REMARK    7  A    between atoms: C10_14  and  C11_17 
REMARK    8  A    between atoms: C11_17  and  C12_18 
REMARK    9  A    between atoms: C11_17  and  N4_26 
REMARK   10  A    between atoms: C12_18  and  C13_19 
REMARK       I    between atoms: N4_26  and  C18_28 
REMARK       I    between atoms: C18_28  and  N5_30 
REMARK   11  A    between atoms: C20_35  and  C21_36 
REMARK       I    between atoms: C21_36  and  N8_38 
REMARK   12  A    between atoms: N8_38  and  C22_40 
REMARK   13  A    between atoms: C27_45  and  C28_46 
ROOT
HETATM    1  C7  UNL     1       9.741  22.759   3.737  1.00  0.00     0.086 C 
HETATM    2  C8  UNL     1       9.148  23.345   4.943  1.00  0.00     0.045 C 
HETATM    3  C9  UNL     1       9.086  24.800   5.170  1.00  0.00     0.128 C 
HETATM    4  N2  UNL     1       8.475  25.662   4.226  1.00  0.00    -0.346 N 
HETATM    5  C20 UNL     1       8.192  25.378   2.824  1.00  0.00     0.183 C 
HETATM    6  C27 UNL     1       9.332  24.613   2.209  1.00  0.00     0.030 C 
HETATM    7  C29 UNL     1       9.165  23.159   2.429  1.00  0.00     0.033 C 
ENDROOT
BRANCH   4   8
HETATM    8  C10 UNL     1       8.148  26.948   4.652  1.00  0.00     0.162 C 
BRANCH   8   9
HETATM    9  O2  UNL     1       8.923  27.893   4.135  1.00  0.00    -0.345 OA
ATOM     10  H2  UNL     1       8.845  28.732   4.574  1.00  0.00     0.219 HD
ENDBRANCH   8   9
BRANCH   8  11
HETATM   11  C11 UNL     1       7.154  27.539   5.543  1.00  0.00     0.065 C 
BRANCH  11  12
HETATM   12  C12 UNL     1       7.513  27.897   6.914  1.00  0.00     0.068 C 
BRANCH  12  13
HETATM   13  C13 UNL     1       8.573  27.011   7.595  1.00  0.00     0.010 C 
HETATM   14  C14 UNL     1       7.806  25.957   8.433  1.00  0.00     0.011 C 
HETATM   15  C15 UNL     1       8.912  25.055   8.989  1.00  0.00     0.046 C 
HETATM   16  C16 UNL     1       9.763  25.855   9.953  1.00  0.00     0.071 C 
HETATM   17  N3  UNL     1       9.573  27.239   9.869  1.00  0.00    -0.328 N 
HETATM   18 BR1  UNL     1       9.082  28.158  11.388  1.00  0.00     0.049 Br
HETATM   19  C17 UNL     1       9.286  27.843   8.615  1.00  0.00     0.140 C 
ENDBRANCH  12  13
ENDBRANCH  11  12
BRANCH  11  20
HETATM   20  N4  UNL     1       5.797  27.200   5.206  1.00  0.00    -0.308 N 
HETATM   21  C18 UNL     1       4.656  27.324   6.020  1.00  0.00     0.326 C 
HETATM   22  O3  UNL     1       4.763  27.771   7.183  1.00  0.00    -0.247 OA
HETATM   23  N5  UNL     1       3.377  26.951   5.550  1.00  0.00    -0.285 N 
HETATM   24  C19 UNL     1       2.546  26.186   6.157  1.00  0.00     0.204 C 
ATOM     25  H5  UNL     1       3.088  27.325   4.646  1.00  0.00     0.172 HD
HETATM   26  N6  UNL     1       2.772  25.574   7.415  1.00  0.00    -0.066 NA
HETATM   27  N7  UNL     1       1.300  25.932   5.515  1.00  0.00    -0.066 NA
ATOM     28  H4  UNL     1       5.645  26.828   4.269  1.00  0.00     0.170 HD
ENDBRANCH  11  20
ENDBRANCH   8  11
ENDBRANCH   4   8
BRANCH   5  29
HETATM   29  C21 UNL     1       6.937  24.758   2.499  1.00  0.00     0.241 C 
HETATM   30  O4  UNL     1       6.600  24.647   1.267  1.00  0.00    -0.271 OA
HETATM   31  N8  UNL     1       5.996  24.237   3.431  1.00  0.00    -0.355 N 
ATOM     32  H8  UNL     1       6.210  24.303   4.427  1.00  0.00     0.162 HD
BRANCH  31  33
HETATM   33  C22 UNL     1       4.749  23.619   3.032  1.00  0.00     0.084 C 
HETATM   34  C23 UNL     1       3.591  24.572   2.970  1.00  0.00     0.025 C 
HETATM   35  C24 UNL     1       2.421  23.587   2.832  1.00  0.00     0.002 C 
HETATM   36  C25 UNL     1       2.803  22.449   3.734  1.00  0.00     0.002 C 
HETATM   37  C26 UNL     1       4.266  22.623   4.065  1.00  0.00     0.025 C 
ENDBRANCH  31  33
ENDBRANCH   5  29
BRANCH   6  38
HETATM   38  C28 UNL     1       9.552  24.878   0.754  1.00  0.00     0.093 C 
HETATM   39  S1  UNL     1      11.331  25.079   0.479  1.00  0.00    -0.097 SA
ENDBRANCH   6  38
BRANCH   1  40
HETATM   40  N1  UNL     1      11.172  22.952   3.731  1.00  0.00    -0.356 N 
HETATM   41  C6  UNL     1      12.060  22.063   4.432  1.00  0.00     0.217 C 
HETATM   42  O1  UNL     1      11.523  21.111   5.048  1.00  0.00    -0.274 OA
ATOM     43  H1  UNL     1      11.564  23.740   3.216  1.00  0.00     0.162 HD
BRANCH  41  44
HETATM   44  C5  UNL     1      13.523  22.205   4.464  1.00  0.00     0.103 C 
BRANCH  44  45
HETATM   45  C4  UNL     1      14.254  21.519   3.351  1.00  0.00     0.013 C 
BRANCH  45  46
HETATM   46  C2  UNL     1      14.344  20.030   3.460  1.00  0.00    -0.022 C 
HETATM   47  C1  UNL     1      15.603  19.666   4.251  1.00  0.00     0.009 C 
HETATM   48  C3  UNL     1      14.555  19.389   2.085  1.00  0.00     0.009 C 
ENDBRANCH  45  46
ENDBRANCH  44  45
ENDBRANCH  41  44
ENDBRANCH   1  40
TORSDOF 13
ENDMDL
