MODEL 1
REMARK VINA RESULT: -10.603120307      0.000      0.000
REMARK  13 active torsions:
REMARK  status: ('A' for Active; 'I' for Inactive)
REMARK    1  A    between atoms: C2_2  and  N1_3 
REMARK       I    between atoms: C3_5  and  N2_6 
REMARK       I    between atoms: C3_5  and  N11_52 
REMARK       I    between atoms: C4_8  and  N4_10 
REMARK    2  A    between atoms: N4_10  and  C5_12 
REMARK    3  A    between atoms: C9_18  and  C10_19 
REMARK       I    between atoms: C10_19  and  N6_21 
REMARK    4  A    between atoms: N6_21  and  C11_23 
REMARK    5  A    between atoms: C11_23  and  C12_24 
REMARK    6  A    between atoms: C12_24  and  C13_25 
REMARK    7  A    between atoms: C13_25  and  C14_26 
REMARK    8  A    between atoms: C14_26  and  N7_27 
REMARK    9  A    between atoms: C18_34  and  N9_35 
REMARK       I    between atoms: N9_35  and  C19_37 
REMARK   10  A    between atoms: C19_37  and  O3_39 
REMARK   11  A    between atoms: O3_39  and  C20_40 
REMARK   12  A    between atoms: C20_40  and  C21_41 
REMARK   13  A    between atoms: C21_41  and  C22_42 
ROOT
HETATM    1  C5  UNL     1      13.351  22.192   5.916  1.00  0.00     0.132 A 
HETATM    2  N5  UNL     1      13.954  23.264   6.463  1.00  0.00    -0.350 N 
ATOM      3  H5  UNL     1      13.669  24.194   6.153  1.00  0.00     0.166 HD
HETATM    4  C6  UNL     1      14.909  23.170   7.391  1.00  0.00     0.103 A 
HETATM    5  C7  UNL     1      15.309  21.944   7.823  1.00  0.00     0.010 A 
HETATM    6  C8  UNL     1      16.255  21.494   8.743  1.00  0.00     0.050 A 
HETATM    7  C9  UNL     1      16.255  20.119   8.786  1.00  0.00     0.102 A 
HETATM    8  N10 UNL     1      15.338  19.719   7.920  1.00  0.00    -0.350 N 
ATOM      9  H10 UNL     1      15.109  18.744   7.730  1.00  0.00     0.166 HD
HETATM   10  C26 UNL     1      14.746  20.780   7.319  1.00  0.00     0.070 A 
HETATM   11  C27 UNL     1      13.754  20.946   6.351  1.00  0.00     0.105 A 
HETATM   12 CL1  UNL     1      13.001  19.537   5.671  1.00  0.00    -0.078 Cl
ENDROOT
BRANCH   7  13
HETATM   13  C10 UNL     1      17.137  19.267   9.631  1.00  0.00     0.272 C 
HETATM   14  O1  UNL     1      18.079  19.875  10.164  1.00  0.00    -0.266 OA
HETATM   15  N6  UNL     1      16.868  17.904   9.770  1.00  0.00    -0.332 N 
ATOM     16  H6  UNL     1      16.056  17.579   9.243  1.00  0.00     0.168 HD
BRANCH  15  17
HETATM   17  C11 UNL     1      17.505  16.922  10.492  1.00  0.00     0.087 C 
BRANCH  17  18
HETATM   18  C12 UNL     1      18.326  15.849   9.921  1.00  0.00    -0.008 C 
BRANCH  18  19
HETATM   19  C13 UNL     1      19.672  16.051   9.390  1.00  0.00     0.048 C 
BRANCH  19  20
HETATM   20  C14 UNL     1      20.126  14.871   8.568  1.00  0.00     0.129 C 
BRANCH  20  21
HETATM   21  N7  UNL     1      20.411  15.053   7.188  1.00  0.00    -0.349 N 
HETATM   22  C15 UNL     1      21.709  15.572   6.812  1.00  0.00     0.127 C 
HETATM   23  C16 UNL     1      22.267  14.907   5.624  1.00  0.00     0.047 C 
HETATM   24  C17 UNL     1      21.242  14.644   4.573  1.00  0.00     0.237 C 
HETATM   25  N8  UNL     1      20.359  15.753   4.354  1.00  0.00    -0.045 N 
HETATM   26  C18 UNL     1      19.019  15.445   4.972  1.00  0.00     0.381 C 
ATOM     27  H82 UNL     1      20.749  16.632   4.693  1.00  0.00     0.280 HD
ATOM     28  H81 UNL     1      20.285  16.001   3.368  1.00  0.00     0.280 HD
HETATM   29  C25 UNL     1      19.350  14.776   6.245  1.00  0.00     0.270 C 
HETATM   30  O4  UNL     1      18.614  13.806   6.603  1.00  0.00    -0.269 OA
BRANCH  26  31
HETATM   31  N9  UNL     1      18.456  16.767   5.143  1.00  0.00    -0.301 N 
HETATM   32  C19 UNL     1      18.271  17.692   4.099  1.00  0.00     0.362 C 
HETATM   33  O2  UNL     1      18.605  17.407   2.885  1.00  0.00    -0.238 OA
ATOM     34  H9  UNL     1      18.176  17.048   6.083  1.00  0.00     0.167 HD
BRANCH  32  35
HETATM   35  O3  UNL     1      17.736  18.960   4.252  1.00  0.00    -0.304 OA
BRANCH  35  36
HETATM   36  C20 UNL     1      16.355  19.188   4.444  1.00  0.00     0.181 C 
BRANCH  36  37
HETATM   37  C21 UNL     1      15.589  18.128   3.697  1.00  0.00     0.031 C 
BRANCH  37  38
HETATM   38  C22 UNL     1      14.846  18.638   2.497  1.00  0.00    -0.021 C 
HETATM   39  C23 UNL     1      14.437  20.087   2.578  1.00  0.00     0.009 C 
HETATM   40  C24 UNL     1      15.711  18.468   1.258  1.00  0.00     0.009 C 
ENDBRANCH  37  38
ENDBRANCH  36  37
ENDBRANCH  35  36
ENDBRANCH  32  35
ENDBRANCH  26  31
ENDBRANCH  20  21
ENDBRANCH  19  20
ENDBRANCH  18  19
ENDBRANCH  17  18
ENDBRANCH  15  17
ENDBRANCH   7  13
BRANCH   1  41
HETATM   41  N4  UNL     1      12.434  22.331   5.016  1.00  0.00    -0.315 N 
HETATM   42  C4  UNL     1      11.642  23.536   5.034  1.00  0.00     0.208 C 
HETATM   43  N2  UNL     1      10.466  23.548   5.542  1.00  0.00    -0.164 N 
HETATM   44  N3  UNL     1      12.151  24.754   4.487  1.00  0.00    -0.063 NA
HETATM   45  C3  UNL     1       9.700  24.730   5.561  1.00  0.00     0.678 C 
ATOM     46  H2  UNL     1      10.081  22.691   5.938  1.00  0.00     0.187 HD
HETATM   47  N1  UNL     1       9.159  25.208   4.510  1.00  0.00    -0.226 N 
HETATM   48  N11 UNL     1       9.536  25.392   6.810  1.00  0.00    -0.218 N 
ATOM     49  H1  UNL     1       8.625  26.068   4.639  1.00  0.00     0.177 HD
HETATM   50  C28 UNL     1       9.125  26.774   6.911  1.00  0.00     0.141 C 
HETATM   51  C32 UNL     1       9.779  24.700   8.070  1.00  0.00     0.141 C 
HETATM   52  C29 UNL     1       7.743  26.814   7.521  1.00  0.00     0.020 C 
HETATM   53  C30 UNL     1       7.632  25.835   8.651  1.00  0.00     0.003 C 
HETATM   54  C31 UNL     1       8.973  25.372   9.149  1.00  0.00     0.020 C 
ATOM     55  H4  UNL     1      12.276  21.609   4.312  1.00  0.00     0.170 HD
BRANCH  47  56
HETATM   56  C2  UNL     1       9.204  24.700   3.182  1.00  0.00     0.133 C 
HETATM   57  C1  UNL     1       7.954  23.938   2.793  1.00  0.00     0.027 C 
ENDBRANCH  47  56
ENDBRANCH   1  41
TORSDOF 13
ENDMDL
MODEL 2
REMARK VINA RESULT: -10.256538351      1.302      1.644
REMARK  13 active torsions:
REMARK  status: ('A' for Active; 'I' for Inactive)
REMARK    1  A    between atoms: C2_2  and  N1_3 
REMARK       I    between atoms: C3_5  and  N2_6 
REMARK       I    between atoms: C3_5  and  N11_52 
REMARK       I    between atoms: C4_8  and  N4_10 
REMARK    2  A    between atoms: N4_10  and  C5_12 
REMARK    3  A    between atoms: C9_18  and  C10_19 
REMARK       I    between atoms: C10_19  and  N6_21 
REMARK    4  A    between atoms: N6_21  and  C11_23 
REMARK    5  A    between atoms: C11_23  and  C12_24 
REMARK    6  A    between atoms: C12_24  and  C13_25 
REMARK    7  A    between atoms: C13_25  and  C14_26 
REMARK    8  A    between atoms: C14_26  and  N7_27 
REMARK    9  A    between atoms: C18_34  and  N9_35 
REMARK       I    between atoms: N9_35  and  C19_37 
REMARK   10  A    between atoms: C19_37  and  O3_39 
REMARK   11  A    between atoms: O3_39  and  C20_40 
REMARK   12  A    between atoms: C20_40  and  C21_41 
REMARK   13  A    between atoms: C21_41  and  C22_42 
ROOT
HETATM    1  C5  UNL     1      12.857  21.734   4.313  1.00  0.00     0.132 A 
HETATM    2  N5  UNL     1      14.001  22.154   3.738  1.00  0.00    -0.350 N 
ATOM      3  H5  UNL     1      13.950  22.597   2.820  1.00  0.00     0.166 HD
HETATM    4  C6  UNL     1      15.198  22.019   4.312  1.00  0.00     0.103 A 
HETATM    5  C7  UNL     1      15.297  21.434   5.535  1.00  0.00     0.010 A 
HETATM    6  C8  UNL     1      16.354  21.134   6.392  1.00  0.00     0.050 A 
HETATM    7  C9  UNL     1      15.883  20.517   7.527  1.00  0.00     0.102 A 
HETATM    8  N10 UNL     1      14.570  20.432   7.387  1.00  0.00    -0.350 N 
ATOM      9  H10 UNL     1      13.940  20.018   8.074  1.00  0.00     0.166 HD
HETATM   10  C26 UNL     1      14.174  20.969   6.207  1.00  0.00     0.070 A 
HETATM   11  C27 UNL     1      12.952  21.140   5.554  1.00  0.00     0.105 A 
HETATM   12 CL1  UNL     1      11.502  20.584   6.330  1.00  0.00    -0.078 Cl
ENDROOT
BRANCH   7  13
HETATM   13  C10 UNL     1      16.707  20.027   8.667  1.00  0.00     0.272 C 
HETATM   14  O1  UNL     1      17.635  20.785   8.992  1.00  0.00    -0.266 OA
HETATM   15  N6  UNL     1      16.403  18.807   9.275  1.00  0.00    -0.332 N 
ATOM     16  H6  UNL     1      15.610  18.316   8.861  1.00  0.00     0.168 HD
BRANCH  15  17
HETATM   17  C11 UNL     1      16.984  18.152  10.336  1.00  0.00     0.087 C 
BRANCH  17  18
HETATM   18  C12 UNL     1      18.337  17.586  10.342  1.00  0.00    -0.008 C 
BRANCH  18  19
HETATM   19  C13 UNL     1      18.647  16.219   9.933  1.00  0.00     0.048 C 
BRANCH  19  20
HETATM   20  C14 UNL     1      18.565  16.058   8.435  1.00  0.00     0.129 C 
BRANCH  20  21
HETATM   21  N7  UNL     1      19.712  15.619   7.718  1.00  0.00    -0.349 N 
HETATM   22  C15 UNL     1      21.013  16.099   8.133  1.00  0.00     0.127 C 
HETATM   23  C16 UNL     1      22.047  15.055   8.086  1.00  0.00     0.047 C 
HETATM   24  C17 UNL     1      21.930  14.178   6.885  1.00  0.00     0.237 C 
HETATM   25  N8  UNL     1      21.672  14.906   5.676  1.00  0.00    -0.045 N 
HETATM   26  C18 UNL     1      20.229  14.715   5.286  1.00  0.00     0.381 C 
ATOM     27  H82 UNL     1      21.926  15.890   5.755  1.00  0.00     0.280 HD
ATOM     28  H81 UNL     1      22.315  14.651   4.926  1.00  0.00     0.280 HD
HETATM   29  C25 UNL     1      19.495  14.775   6.564  1.00  0.00     0.270 C 
HETATM   30  O4  UNL     1      18.515  13.981   6.712  1.00  0.00    -0.269 OA
BRANCH  26  31
HETATM   31  N9  UNL     1      19.996  15.860   4.431  1.00  0.00    -0.301 N 
HETATM   32  C19 UNL     1      18.756  16.511   4.296  1.00  0.00     0.362 C 
HETATM   33  O2  UNL     1      17.716  16.111   4.946  1.00  0.00    -0.238 OA
ATOM     34  H9  UNL     1      20.784  16.218   3.890  1.00  0.00     0.167 HD
BRANCH  32  35
HETATM   35  O3  UNL     1      18.523  17.604   3.479  1.00  0.00    -0.304 OA
BRANCH  35  36
HETATM   36  C20 UNL     1      17.393  18.439   3.624  1.00  0.00     0.181 C 
BRANCH  36  37
HETATM   37  C21 UNL     1      16.544  18.310   2.386  1.00  0.00     0.031 C 
BRANCH  37  38
HETATM   38  C22 UNL     1      15.159  18.869   2.531  1.00  0.00    -0.021 C 
HETATM   39  C23 UNL     1      14.289  18.723   1.309  1.00  0.00     0.009 C 
HETATM   40  C24 UNL     1      14.454  18.179   3.688  1.00  0.00     0.009 C 
ENDBRANCH  37  38
ENDBRANCH  36  37
ENDBRANCH  35  36
ENDBRANCH  32  35
ENDBRANCH  26  31
ENDBRANCH  20  21
ENDBRANCH  19  20
ENDBRANCH  18  19
ENDBRANCH  17  18
ENDBRANCH  15  17
ENDBRANCH   7  13
BRANCH   1  41
HETATM   41  N4  UNL     1      11.720  21.881   3.717  1.00  0.00    -0.315 N 
HETATM   42  C4  UNL     1      11.000  23.114   3.924  1.00  0.00     0.208 C 
HETATM   43  N2  UNL     1      10.027  23.182   4.754  1.00  0.00    -0.164 N 
HETATM   44  N3  UNL     1      11.356  24.298   3.207  1.00  0.00    -0.063 NA
HETATM   45  C3  UNL     1       9.331  24.390   4.954  1.00  0.00     0.678 C 
ATOM     46  H2  UNL     1       9.754  22.350   5.278  1.00  0.00     0.187 HD
HETATM   47  N1  UNL     1       8.518  24.859   4.092  1.00  0.00    -0.226 N 
HETATM   48  N11 UNL     1       9.561  25.092   6.171  1.00  0.00    -0.218 N 
ATOM     49  H1  UNL     1       8.068  25.740   4.340  1.00  0.00     0.177 HD
HETATM   50  C28 UNL     1       9.234  26.490   6.337  1.00  0.00     0.141 C 
HETATM   51  C32 UNL     1      10.147  24.427   7.328  1.00  0.00     0.141 C 
HETATM   52  C29 UNL     1       8.095  26.596   7.325  1.00  0.00     0.020 C 
HETATM   53  C30 UNL     1       8.298  25.653   8.472  1.00  0.00     0.003 C 
HETATM   54  C31 UNL     1       9.713  25.156   8.572  1.00  0.00     0.020 C 
ATOM     55  H4  UNL     1      11.342  21.146   3.119  1.00  0.00     0.170 HD
BRANCH  47  56
HETATM   56  C2  UNL     1       8.155  24.313   2.829  1.00  0.00     0.133 C 
HETATM   57  C1  UNL     1       8.238  25.318   1.699  1.00  0.00     0.027 C 
ENDBRANCH  47  56
ENDBRANCH   1  41
TORSDOF 13
ENDMDL
MODEL 3
REMARK VINA RESULT: -10.160480603      5.298     13.585
REMARK  13 active torsions:
REMARK  status: ('A' for Active; 'I' for Inactive)
REMARK    1  A    between atoms: C2_2  and  N1_3 
REMARK       I    between atoms: C3_5  and  N2_6 
REMARK       I    between atoms: C3_5  and  N11_52 
REMARK       I    between atoms: C4_8  and  N4_10 
REMARK    2  A    between atoms: N4_10  and  C5_12 
REMARK    3  A    between atoms: C9_18  and  C10_19 
REMARK       I    between atoms: C10_19  and  N6_21 
REMARK    4  A    between atoms: N6_21  and  C11_23 
REMARK    5  A    between atoms: C11_23  and  C12_24 
REMARK    6  A    between atoms: C12_24  and  C13_25 
REMARK    7  A    between atoms: C13_25  and  C14_26 
REMARK    8  A    between atoms: C14_26  and  N7_27 
REMARK    9  A    between atoms: C18_34  and  N9_35 
REMARK       I    between atoms: N9_35  and  C19_37 
REMARK   10  A    between atoms: C19_37  and  O3_39 
REMARK   11  A    between atoms: O3_39  and  C20_40 
REMARK   12  A    between atoms: C20_40  and  C21_41 
REMARK   13  A    between atoms: C21_41  and  C22_42 
ROOT
HETATM    1  C5  UNL     1      11.578  22.900   5.531  1.00  0.00     0.132 A 
HETATM    2  N5  UNL     1      12.083  22.825   4.284  1.00  0.00    -0.350 N 
ATOM      3  H5  UNL     1      13.012  22.422   4.158  1.00  0.00     0.166 HD
HETATM    4  C6  UNL     1      11.426  23.254   3.204  1.00  0.00     0.103 A 
HETATM    5  C7  UNL     1      10.186  23.796   3.341  1.00  0.00     0.010 A 
HETATM    6  C8  UNL     1       9.253  24.335   2.457  1.00  0.00     0.050 A 
HETATM    7  C9  UNL     1       8.139  24.757   3.146  1.00  0.00     0.102 A 
HETATM    8  N10 UNL     1       8.367  24.492   4.422  1.00  0.00    -0.350 N 
ATOM      9  H10 UNL     1       7.715  24.694   5.180  1.00  0.00     0.166 HD
HETATM   10  C26 UNL     1       9.583  23.915   4.586  1.00  0.00     0.070 A 
HETATM   11  C27 UNL     1      10.321  23.449   5.674  1.00  0.00     0.105 A 
HETATM   12 CL1  UNL     1       9.634  23.564   7.265  1.00  0.00    -0.078 Cl
ENDROOT
BRANCH   7  13
HETATM   13  C10 UNL     1       6.935  25.406   2.555  1.00  0.00     0.272 C 
HETATM   14  O1  UNL     1       6.715  26.554   2.972  1.00  0.00    -0.266 OA
HETATM   15  N6  UNL     1       6.165  24.721   1.612  1.00  0.00    -0.332 N 
ATOM     16  H6  UNL     1       6.494  23.779   1.404  1.00  0.00     0.168 HD
BRANCH  15  17
HETATM   17  C11 UNL     1       5.040  25.096   0.916  1.00  0.00     0.087 C 
BRANCH  17  18
HETATM   18  C12 UNL     1       3.791  24.329   0.851  1.00  0.00    -0.008 C 
BRANCH  18  19
HETATM   19  C13 UNL     1       2.679  24.507   1.781  1.00  0.00     0.048 C 
BRANCH  19  20
HETATM   20  C14 UNL     1       3.134  24.385   3.215  1.00  0.00     0.129 C 
BRANCH  20  21
HETATM   21  N7  UNL     1       3.177  25.547   4.032  1.00  0.00    -0.349 N 
HETATM   22  C15 UNL     1       2.856  26.826   3.435  1.00  0.00     0.127 C 
HETATM   23  C16 UNL     1       2.046  27.680   4.317  1.00  0.00     0.047 C 
HETATM   24  C17 UNL     1       2.480  27.616   5.743  1.00  0.00     0.237 C 
HETATM   25  N8  UNL     1       3.905  27.668   5.902  1.00  0.00    -0.045 N 
HETATM   26  C18 UNL     1       4.410  26.291   6.252  1.00  0.00     0.381 C 
ATOM     27  H82 UNL     1       4.373  28.056   5.084  1.00  0.00     0.280 HD
ATOM     28  H81 UNL     1       4.194  28.372   6.580  1.00  0.00     0.280 HD
HETATM   29  C25 UNL     1       3.617  25.385   5.400  1.00  0.00     0.270 C 
HETATM   30  O4  UNL     1       3.246  24.282   5.909  1.00  0.00    -0.269 OA
BRANCH  26  31
HETATM   31  N9  UNL     1       5.803  26.376   5.866  1.00  0.00    -0.301 N 
HETATM   32  C19 UNL     1       6.701  27.348   6.344  1.00  0.00     0.362 C 
HETATM   33  O2  UNL     1       6.323  28.254   7.183  1.00  0.00    -0.238 OA
ATOM     34  H9  UNL     1       6.156  25.686   5.203  1.00  0.00     0.167 HD
BRANCH  32  35
HETATM   35  O3  UNL     1       8.034  27.440   5.980  1.00  0.00    -0.304 OA
BRANCH  35  36
HETATM   36  C20 UNL     1       9.077  26.884   6.753  1.00  0.00     0.181 C 
BRANCH  36  37
HETATM   37  C21 UNL     1       9.233  27.709   8.004  1.00  0.00     0.031 C 
BRANCH  37  38
HETATM   38  C22 UNL     1       9.567  26.909   9.229  1.00  0.00    -0.021 C 
HETATM   39  C23 UNL     1      11.008  26.479   9.328  1.00  0.00     0.009 C 
HETATM   40  C24 UNL     1       9.240  27.725  10.470  1.00  0.00     0.009 C 
ENDBRANCH  37  38
ENDBRANCH  36  37
ENDBRANCH  35  36
ENDBRANCH  32  35
ENDBRANCH  26  31
ENDBRANCH  20  21
ENDBRANCH  19  20
ENDBRANCH  18  19
ENDBRANCH  17  18
ENDBRANCH  15  17
ENDBRANCH   7  13
BRANCH   1  41
HETATM   41  N4  UNL     1      12.253  22.476   6.548  1.00  0.00    -0.315 N 
HETATM   42  C4  UNL     1      13.580  21.960   6.316  1.00  0.00     0.208 C 
HETATM   43  N2  UNL     1      13.800  20.700   6.256  1.00  0.00    -0.164 N 
HETATM   44  N3  UNL     1      14.688  22.845   6.142  1.00  0.00    -0.063 NA
HETATM   45  C3  UNL     1      15.098  20.204   6.024  1.00  0.00     0.678 C 
ATOM     46  H2  UNL     1      13.025  20.048   6.377  1.00  0.00     0.187 HD
HETATM   47  N1  UNL     1      16.009  20.235   6.915  1.00  0.00    -0.226 N 
HETATM   48  N11 UNL     1      15.375  19.650   4.742  1.00  0.00    -0.218 N 
ATOM     49  H1  UNL     1      16.912  19.847   6.640  1.00  0.00     0.177 HD
HETATM   50  C28 UNL     1      16.720  19.471   4.246  1.00  0.00     0.141 C 
HETATM   51  C32 UNL     1      14.300  19.230   3.852  1.00  0.00     0.141 C 
HETATM   52  C29 UNL     1      16.999  17.988   4.154  1.00  0.00     0.020 C 
HETATM   53  C30 UNL     1      15.811  17.258   3.604  1.00  0.00     0.003 C 
HETATM   54  C31 UNL     1      14.833  18.174   2.921  1.00  0.00     0.020 C 
ATOM     55  H4  UNL     1      11.858  22.505   7.488  1.00  0.00     0.170 HD
BRANCH  47  56
HETATM   56  C2  UNL     1      15.931  20.741   8.243  1.00  0.00     0.133 C 
HETATM   57  C1  UNL     1      17.070  21.676   8.593  1.00  0.00     0.027 C 
ENDBRANCH  47  56
ENDBRANCH   1  41
TORSDOF 13
ENDMDL
MODEL 4
REMARK VINA RESULT: -10.140920269      5.288     13.757
REMARK  13 active torsions:
REMARK  status: ('A' for Active; 'I' for Inactive)
REMARK    1  A    between atoms: C2_2  and  N1_3 
REMARK       I    between atoms: C3_5  and  N2_6 
REMARK       I    between atoms: C3_5  and  N11_52 
REMARK       I    between atoms: C4_8  and  N4_10 
REMARK    2  A    between atoms: N4_10  and  C5_12 
REMARK    3  A    between atoms: C9_18  and  C10_19 
REMARK       I    between atoms: C10_19  and  N6_21 
REMARK    4  A    between atoms: N6_21  and  C11_23 
REMARK    5  A    between atoms: C11_23  and  C12_24 
REMARK    6  A    between atoms: C12_24  and  C13_25 
REMARK    7  A    between atoms: C13_25  and  C14_26 
REMARK    8  A    between atoms: C14_26  and  N7_27 
REMARK    9  A    between atoms: C18_34  and  N9_35 
REMARK       I    between atoms: N9_35  and  C19_37 
REMARK   10  A    between atoms: C19_37  and  O3_39 
REMARK   11  A    between atoms: O3_39  and  C20_40 
REMARK   12  A    between atoms: C20_40  and  C21_41 
REMARK   13  A    between atoms: C21_41  and  C22_42 
ROOT
HETATM    1  C5  UNL     1      11.402  22.869   5.605  1.00  0.00     0.132 A 
HETATM    2  N5  UNL     1      11.837  22.802   4.332  1.00  0.00    -0.350 N 
ATOM      3  H5  UNL     1      12.730  22.346   4.147  1.00  0.00     0.166 HD
HETATM    4  C6  UNL     1      11.154  23.305   3.301  1.00  0.00     0.103 A 
HETATM    5  C7  UNL     1       9.960  23.918   3.518  1.00  0.00     0.010 A 
HETATM    6  C8  UNL     1       9.020  24.542   2.700  1.00  0.00     0.050 A 
HETATM    7  C9  UNL     1       7.971  25.010   3.457  1.00  0.00     0.102 A 
HETATM    8  N10 UNL     1       8.246  24.692   4.711  1.00  0.00    -0.350 N 
ATOM      9  H10 UNL     1       7.648  24.910   5.508  1.00  0.00     0.166 HD
HETATM   10  C26 UNL     1       9.429  24.035   4.795  1.00  0.00     0.070 A 
HETATM   11  C27 UNL     1      10.190  23.490   5.830  1.00  0.00     0.105 A 
HETATM   12 CL1  UNL     1       9.594  23.598   7.457  1.00  0.00    -0.078 Cl
ENDROOT
BRANCH   7  13
HETATM   13  C10 UNL     1       6.783  25.750   2.948  1.00  0.00     0.272 C 
HETATM   14  O1  UNL     1       6.721  26.934   3.316  1.00  0.00    -0.266 OA
HETATM   15  N6  UNL     1       5.857  25.104   2.127  1.00  0.00    -0.332 N 
ATOM     16  H6  UNL     1       6.068  24.123   1.944  1.00  0.00     0.168 HD
BRANCH  15  17
HETATM   17  C11 UNL     1       4.708  25.559   1.522  1.00  0.00     0.087 C 
BRANCH  17  18
HETATM   18  C12 UNL     1       3.370  25.540   2.124  1.00  0.00    -0.008 C 
BRANCH  18  19
HETATM   19  C13 UNL     1       2.887  26.549   3.062  1.00  0.00     0.048 C 
BRANCH  19  20
HETATM   20  C14 UNL     1       3.213  26.180   4.488  1.00  0.00     0.129 C 
BRANCH  20  21
HETATM   21  N7  UNL     1       3.237  27.195   5.482  1.00  0.00    -0.349 N 
HETATM   22  C15 UNL     1       2.698  28.498   5.154  1.00  0.00     0.127 C 
HETATM   23  C16 UNL     1       1.925  29.089   6.257  1.00  0.00     0.047 C 
HETATM   24  C17 UNL     1       2.552  28.862   7.591  1.00  0.00     0.237 C 
HETATM   25  N8  UNL     1       3.971  29.076   7.591  1.00  0.00    -0.045 N 
HETATM   26  C18 UNL     1       4.669  27.740   7.639  1.00  0.00     0.381 C 
ATOM     27  H82 UNL     1       4.278  29.646   6.804  1.00  0.00     0.280 HD
ATOM     28  H81 UNL     1       4.269  29.697   8.343  1.00  0.00     0.280 HD
HETATM   29  C25 UNL     1       3.873  26.881   6.742  1.00  0.00     0.270 C 
HETATM   30  O4  UNL     1       3.699  25.673   7.094  1.00  0.00    -0.269 OA
BRANCH  26  31
HETATM   31  N9  UNL     1       5.978  28.067   7.116  1.00  0.00    -0.301 N 
HETATM   32  C19 UNL     1       7.055  27.164   7.049  1.00  0.00     0.362 C 
HETATM   33  O2  UNL     1       6.936  25.949   7.466  1.00  0.00    -0.238 OA
ATOM     34  H9  UNL     1       6.130  29.017   6.774  1.00  0.00     0.167 HD
BRANCH  32  35
HETATM   35  O3  UNL     1       8.311  27.468   6.553  1.00  0.00    -0.304 OA
BRANCH  35  36
HETATM   36  C20 UNL     1       9.503  27.029   7.171  1.00  0.00     0.181 C 
BRANCH  36  37
HETATM   37  C21 UNL     1       9.643  27.738   8.493  1.00  0.00     0.031 C 
BRANCH  37  38
HETATM   38  C22 UNL     1      10.170  26.873   9.600  1.00  0.00    -0.021 C 
HETATM   39  C23 UNL     1       9.245  25.762  10.027  1.00  0.00     0.009 C 
HETATM   40  C24 UNL     1      11.484  26.243   9.167  1.00  0.00     0.009 C 
ENDBRANCH  37  38
ENDBRANCH  36  37
ENDBRANCH  35  36
ENDBRANCH  32  35
ENDBRANCH  26  31
ENDBRANCH  20  21
ENDBRANCH  19  20
ENDBRANCH  18  19
ENDBRANCH  17  18
ENDBRANCH  15  17
ENDBRANCH   7  13
BRANCH   1  41
HETATM   41  N4  UNL     1      12.098  22.372   6.573  1.00  0.00    -0.315 N 
HETATM   42  C4  UNL     1      13.430  21.902   6.280  1.00  0.00     0.208 C 
HETATM   43  N2  UNL     1      13.670  20.655   6.110  1.00  0.00    -0.164 N 
HETATM   44  N3  UNL     1      14.521  22.818   6.167  1.00  0.00    -0.063 NA
HETATM   45  C3  UNL     1      14.972  20.204   5.820  1.00  0.00     0.678 C 
ATOM     46  H2  UNL     1      12.908  19.981   6.186  1.00  0.00     0.187 HD
HETATM   47  N1  UNL     1      15.896  20.176   6.698  1.00  0.00    -0.226 N 
HETATM   48  N11 UNL     1      15.239  19.766   4.491  1.00  0.00    -0.218 N 
ATOM     49  H1  UNL     1      16.801  19.829   6.378  1.00  0.00     0.177 HD
HETATM   50  C28 UNL     1      16.580  19.654   3.963  1.00  0.00     0.141 C 
HETATM   51  C32 UNL     1      14.158  19.404   3.583  1.00  0.00     0.141 C 
HETATM   52  C29 UNL     1      16.882  18.189   3.742  1.00  0.00     0.020 C 
HETATM   53  C30 UNL     1      15.698  17.488   3.147  1.00  0.00     0.003 C 
HETATM   54  C31 UNL     1      14.694  18.440   2.559  1.00  0.00     0.020 C 
ATOM     55  H4  UNL     1      11.717  22.314   7.518  1.00  0.00     0.170 HD
BRANCH  47  56
HETATM   56  C2  UNL     1      15.830  20.565   8.065  1.00  0.00     0.133 C 
HETATM   57  C1  UNL     1      17.009  21.410   8.501  1.00  0.00     0.027 C 
ENDBRANCH  47  56
ENDBRANCH   1  41
TORSDOF 13
ENDMDL
MODEL 5
REMARK VINA RESULT: -9.923428448      1.055      1.255
REMARK  13 active torsions:
REMARK  status: ('A' for Active; 'I' for Inactive)
REMARK    1  A    between atoms: C2_2  and  N1_3 
REMARK       I    between atoms: C3_5  and  N2_6 
REMARK       I    between atoms: C3_5  and  N11_52 
REMARK       I    between atoms: C4_8  and  N4_10 
REMARK    2  A    between atoms: N4_10  and  C5_12 
REMARK    3  A    between atoms: C9_18  and  C10_19 
REMARK       I    between atoms: C10_19  and  N6_21 
REMARK    4  A    between atoms: N6_21  and  C11_23 
REMARK    5  A    between atoms: C11_23  and  C12_24 
REMARK    6  A    between atoms: C12_24  and  C13_25 
REMARK    7  A    between atoms: C13_25  and  C14_26 
REMARK    8  A    between atoms: C14_26  and  N7_27 
REMARK    9  A    between atoms: C18_34  and  N9_35 
REMARK       I    between atoms: N9_35  and  C19_37 
REMARK   10  A    between atoms: C19_37  and  O3_39 
REMARK   11  A    between atoms: O3_39  and  C20_40 
REMARK   12  A    between atoms: C20_40  and  C21_41 
REMARK   13  A    between atoms: C21_41  and  C22_42 
ROOT
HETATM    1  C5  UNL     1      12.750  21.843   6.547  1.00  0.00     0.132 A 
HETATM    2  N5  UNL     1      12.582  22.589   7.656  1.00  0.00    -0.350 N 
ATOM      3  H5  UNL     1      11.861  23.312   7.651  1.00  0.00     0.166 HD
HETATM    4  C6  UNL     1      13.314  22.429   8.761  1.00  0.00     0.103 A 
HETATM    5  C7  UNL     1      14.281  21.474   8.795  1.00  0.00     0.010 A 
HETATM    6  C8  UNL     1      15.206  21.055   9.750  1.00  0.00     0.050 A 
HETATM    7  C9  UNL     1      15.973  20.029   9.248  1.00  0.00     0.102 A 
HETATM    8  N10 UNL     1      15.543  19.812   8.016  1.00  0.00    -0.350 N 
ATOM      9  H10 UNL     1      15.922  19.105   7.387  1.00  0.00     0.166 HD
HETATM   10  C26 UNL     1      14.529  20.655   7.701  1.00  0.00     0.070 A 
HETATM   11  C27 UNL     1      13.731  20.873   6.578  1.00  0.00     0.105 A 
HETATM   12 CL1  UNL     1      13.980  19.890   5.169  1.00  0.00    -0.078 Cl
ENDROOT
BRANCH   7  13
HETATM   13  C10 UNL     1      17.080  19.331   9.959  1.00  0.00     0.272 C 
HETATM   14  O1  UNL     1      18.124  19.995  10.059  1.00  0.00    -0.266 OA
HETATM   15  N6  UNL     1      16.889  18.037  10.448  1.00  0.00    -0.332 N 
ATOM     16  H6  UNL     1      15.967  17.647  10.258  1.00  0.00     0.168 HD
BRANCH  15  17
HETATM   17  C11 UNL     1      17.729  17.197  11.143  1.00  0.00     0.087 C 
BRANCH  17  18
HETATM   18  C12 UNL     1      18.151  15.865  10.697  1.00  0.00    -0.008 C 
BRANCH  18  19
HETATM   19  C13 UNL     1      19.426  15.596  10.038  1.00  0.00     0.048 C 
BRANCH  19  20
HETATM   20  C14 UNL     1      19.431  16.099   8.616  1.00  0.00     0.129 C 
BRANCH  20  21
HETATM   21  N7  UNL     1      20.283  15.479   7.662  1.00  0.00    -0.349 N 
HETATM   22  C15 UNL     1      21.711  15.691   7.768  1.00  0.00     0.127 C 
HETATM   23  C16 UNL     1      22.490  14.474   7.495  1.00  0.00     0.047 C 
HETATM   24  C17 UNL     1      21.942  13.678   6.359  1.00  0.00     0.237 C 
HETATM   25  N8  UNL     1      21.564  14.484   5.235  1.00  0.00    -0.045 N 
HETATM   26  C18 UNL     1      20.061  14.582   5.182  1.00  0.00     0.381 C 
ATOM     27  H82 UNL     1      22.012  15.400   5.246  1.00  0.00     0.280 HD
ATOM     28  H81 UNL     1      21.962  14.142   4.361  1.00  0.00     0.280 HD
HETATM   29  C25 UNL     1      19.656  14.733   6.593  1.00  0.00     0.270 C 
HETATM   30  O4  UNL     1      18.601  14.132   6.965  1.00  0.00    -0.269 OA
BRANCH  26  31
HETATM   31  N9  UNL     1      19.866  15.780   4.394  1.00  0.00    -0.301 N 
HETATM   32  C19 UNL     1      18.680  16.537   4.379  1.00  0.00     0.362 C 
HETATM   33  O2  UNL     1      17.658  16.195   5.090  1.00  0.00    -0.238 OA
ATOM     34  H9  UNL     1      20.640  16.097   3.810  1.00  0.00     0.167 HD
BRANCH  32  35
HETATM   35  O3  UNL     1      18.483  17.682   3.626  1.00  0.00    -0.304 OA
BRANCH  35  36
HETATM   36  C20 UNL     1      17.739  17.689   2.425  1.00  0.00     0.181 C 
BRANCH  36  37
HETATM   37  C21 UNL     1      16.586  18.645   2.585  1.00  0.00     0.031 C 
BRANCH  37  38
HETATM   38  C22 UNL     1      15.249  18.058   2.239  1.00  0.00    -0.021 C 
HETATM   39  C23 UNL     1      14.454  17.562   3.420  1.00  0.00     0.009 C 
HETATM   40  C24 UNL     1      14.409  19.102   1.519  1.00  0.00     0.009 C 
ENDBRANCH  37  38
ENDBRANCH  36  37
ENDBRANCH  35  36
ENDBRANCH  32  35
ENDBRANCH  26  31
ENDBRANCH  20  21
ENDBRANCH  19  20
ENDBRANCH  18  19
ENDBRANCH  17  18
ENDBRANCH  15  17
ENDBRANCH   7  13
BRANCH   1  41
HETATM   41  N4  UNL     1      12.022  22.037   5.498  1.00  0.00    -0.315 N 
HETATM   42  C4  UNL     1      11.388  23.323   5.339  1.00  0.00     0.208 C 
HETATM   43  N2  UNL     1      10.154  23.495   5.635  1.00  0.00    -0.164 N 
HETATM   44  N3  UNL     1      12.125  24.445   4.848  1.00  0.00    -0.063 NA
HETATM   45  C3  UNL     1       9.543  24.755   5.482  1.00  0.00     0.678 C 
ATOM     46  H2  UNL     1       9.607  22.709   5.987  1.00  0.00     0.187 HD
HETATM   47  N1  UNL     1       9.248  25.235   4.339  1.00  0.00    -0.226 N 
HETATM   48  N11 UNL     1       9.253  25.497   6.662  1.00  0.00    -0.218 N 
ATOM     49  H1  UNL     1       8.808  26.155   4.344  1.00  0.00     0.177 HD
HETATM   50  C28 UNL     1       9.000  26.920   6.644  1.00  0.00     0.141 C 
HETATM   51  C32 UNL     1       9.196  24.850   7.967  1.00  0.00     0.141 C 
HETATM   52  C29 UNL     1       7.551  27.149   7.005  1.00  0.00     0.020 C 
HETATM   53  C30 UNL     1       7.135  26.250   8.130  1.00  0.00     0.003 C 
HETATM   54  C31 UNL     1       8.307  25.665   8.868  1.00  0.00     0.020 C 
ATOM     55  H4  UNL     1      11.898  21.301   4.802  1.00  0.00     0.170 HD
BRANCH  47  56
HETATM   56  C2  UNL     1       9.454  24.655   3.056  1.00  0.00     0.133 C 
HETATM   57  C1  UNL     1       8.231  23.938   2.523  1.00  0.00     0.027 C 
ENDBRANCH  47  56
ENDBRANCH   1  41
TORSDOF 13
ENDMDL
