MODEL 1
REMARK VINA RESULT: -7.687476074      0.000      0.000
REMARK  12 active torsions:
REMARK  status: ('A' for Active; 'I' for Inactive)
REMARK    1  A    between atoms: C2_2  and  C3_3 
REMARK    2  A    between atoms: C3_3  and  N1_4 
REMARK    3  A    between atoms: C7_8  and  C8_9 
REMARK    4  A    between atoms: C8_9  and  C9_10 
REMARK    5  A    between atoms: C13_15  and  C14_16 
REMARK    6  A    between atoms: C19_24  and  C20_25 
REMARK    7  A    between atoms: C20_25  and  C21_26 
REMARK    8  A    between atoms: C21_26  and  C22_27 
REMARK    9  A    between atoms: C22_27  and  N3_28 
REMARK   10  A    between atoms: C25_37  and  C26_38 
REMARK   11  A    between atoms: C31_49  and  C32_50 
REMARK   12  A    between atoms: C32_50  and  C34_52 
ROOT
HETATM    1  N1  UNL     1       9.475  27.161   7.639  1.00  0.00     0.105 N 
HETATM    2  C4  UNL     1       8.160  27.610   7.346  1.00  0.00     0.314 C 
HETATM    3  C5  UNL     1       7.416  26.789   6.288  1.00  0.00     0.142 C 
HETATM    4  C6  UNL     1       6.089  27.507   6.121  1.00  0.00     0.068 C 
HETATM    5  C7  UNL     1       4.882  26.708   6.436  1.00  0.00     0.091 C 
HETATM    6  N2  UNL     1       3.885  26.761   5.353  1.00  0.00    -0.354 N 
ATOM      7  H2  UNL     1       3.299  27.593   5.300  1.00  0.00     0.162 HD
HETATM    8  C18 UNL     1       3.675  25.770   4.396  1.00  0.00     0.240 C 
HETATM    9  O1  UNL     1       3.137  26.144   3.294  1.00  0.00    -0.271 OA
HETATM   10  C19 UNL     1       3.987  24.329   4.471  1.00  0.00     0.176 C 
HETATM   11  N6  UNL     1       4.967  23.866   3.537  1.00  0.00    -0.346 N 
ATOM     12  H6  UNL     1       4.652  23.151   2.881  1.00  0.00     0.163 HD
HETATM   13  C24 UNL     1       6.304  24.267   3.406  1.00  0.00     0.241 C 
HETATM   14  O2  UNL     1       7.243  23.394   3.515  1.00  0.00    -0.271 OA
HETATM   15  C25 UNL     1       6.813  25.635   3.144  1.00  0.00     0.180 C 
HETATM   16  N7  UNL     1       7.990  25.982   3.894  1.00  0.00    -0.345 N 
ATOM     17  H7  UNL     1       8.849  25.529   3.581  1.00  0.00     0.163 HD
HETATM   18  C29 UNL     1       8.140  26.839   4.980  1.00  0.00     0.248 C 
HETATM   19  O3  UNL     1       8.996  27.792   4.870  1.00  0.00    -0.271 OA
HETATM   20  N8  UNL     1       7.337  25.470   6.821  1.00  0.00    -0.340 N 
ATOM     21  H8  UNL     1       6.786  24.742   6.368  1.00  0.00     0.163 HD
HETATM   22  C30 UNL     1       8.078  25.216   8.038  1.00  0.00     0.252 C 
HETATM   23  O4  UNL     1       7.631  24.455   8.931  1.00  0.00    -0.271 OA
HETATM   24  C31 UNL     1       9.402  25.851   8.269  1.00  0.00     0.317 C 
ENDROOT
BRANCH   1  25
HETATM   25  C3  UNL     1       9.972  28.061   8.686  1.00  0.00     0.273 C 
BRANCH  25  26
HETATM   26  C2  UNL     1       9.854  27.515  10.063  1.00  0.00     0.026 C 
HETATM   27  C1  UNL     1       8.784  28.131  10.899  1.00  0.00     0.007 C 
ENDBRANCH  25  26
ENDBRANCH   1  25
BRANCH   5  28
HETATM   28  C8  UNL     1       4.247  27.020   7.743  1.00  0.00     0.063 C 
BRANCH  28  29
HETATM   29  C9  UNL     1       3.107  27.901   7.780  1.00  0.00    -0.056 A 
HETATM   30  C10 UNL     1       1.884  27.508   8.250  1.00  0.00     0.009 A 
HETATM   31  C11 UNL     1       0.783  28.334   8.291  1.00  0.00     0.025 A 
HETATM   32  C12 UNL     1       0.902  29.631   7.838  1.00  0.00     0.040 A 
HETATM   33 CL1  UNL     1      -0.520  30.668   7.904  1.00  0.00    -0.084 Cl
HETATM   34  C13 UNL     1       2.110  30.064   7.360  1.00  0.00    -0.033 A 
HETATM   35  C17 UNL     1       3.201  29.202   7.333  1.00  0.00     0.016 A 
BRANCH  34  36
HETATM   36  C14 UNL     1       2.208  31.474   6.874  1.00  0.00     0.012 C 
HETATM   37  C15 UNL     1       3.549  32.070   7.288  1.00  0.00     0.015 C 
HETATM   38  C16 UNL     1       2.018  31.593   5.395  1.00  0.00     0.015 C 
ENDBRANCH  34  36
ENDBRANCH  28  29
ENDBRANCH   5  28
BRANCH  24  39
HETATM   39  C32 UNL     1      10.440  24.905   7.712  1.00  0.00     0.024 C 
HETATM   40  C33 UNL     1      11.649  24.992   8.637  1.00  0.00     0.012 C 
BRANCH  39  41
HETATM   41  C34 UNL     1      10.899  25.266   6.334  1.00  0.00     0.002 C 
HETATM   42  C35 UNL     1      10.651  24.074   5.436  1.00  0.00     0.005 C 
ENDBRANCH  39  41
ENDBRANCH  24  39
BRANCH  15  43
HETATM   43  C26 UNL     1       7.116  25.637   1.630  1.00  0.00     0.009 C 
HETATM   44  C27 UNL     1       5.850  25.564   0.813  1.00  0.00     0.012 C 
HETATM   45  C28 UNL     1       7.959  26.775   1.195  1.00  0.00     0.012 C 
ENDBRANCH  15  43
BRANCH  10  46
HETATM   46  C20 UNL     1       2.658  23.612   4.279  1.00  0.00     0.036 C 
BRANCH  46  47
HETATM   47  C21 UNL     1       2.670  22.631   3.156  1.00  0.00     0.022 C 
BRANCH  47  48
HETATM   48  C22 UNL     1       1.965  21.371   3.660  1.00  0.00     0.122 C 
BRANCH  48  49
HETATM   49  N3  UNL     1       2.601  20.197   3.085  1.00  0.00    -0.367 N 
HETATM   50  C23 UNL     1       3.501  19.542   3.737  1.00  0.00     0.196 C 
HETATM   51  N4  UNL     1       3.907  19.930   5.031  1.00  0.00    -0.067 NA
HETATM   52  N5  UNL     1       4.095  18.402   3.139  1.00  0.00    -0.067 NA
ATOM     53  H3  UNL     1       2.333  19.887   2.151  1.00  0.00     0.161 HD
ENDBRANCH  48  49
ENDBRANCH  47  48
ENDBRANCH  46  47
ENDBRANCH  10  46
TORSDOF 12
ENDMDL
MODEL 2
REMARK VINA RESULT: -7.672895481      3.130      9.234
REMARK  12 active torsions:
REMARK  status: ('A' for Active; 'I' for Inactive)
REMARK    1  A    between atoms: C2_2  and  C3_3 
REMARK    2  A    between atoms: C3_3  and  N1_4 
REMARK    3  A    between atoms: C7_8  and  C8_9 
REMARK    4  A    between atoms: C8_9  and  C9_10 
REMARK    5  A    between atoms: C13_15  and  C14_16 
REMARK    6  A    between atoms: C19_24  and  C20_25 
REMARK    7  A    between atoms: C20_25  and  C21_26 
REMARK    8  A    between atoms: C21_26  and  C22_27 
REMARK    9  A    between atoms: C22_27  and  N3_28 
REMARK   10  A    between atoms: C25_37  and  C26_38 
REMARK   11  A    between atoms: C31_49  and  C32_50 
REMARK   12  A    between atoms: C32_50  and  C34_52 
ROOT
HETATM    1  N1  UNL     1       3.275  24.112   1.879  1.00  0.00     0.105 N 
HETATM    2  C4  UNL     1       4.531  24.750   2.058  1.00  0.00     0.314 C 
HETATM    3  C5  UNL     1       4.749  25.377   3.439  1.00  0.00     0.142 C 
HETATM    4  C6  UNL     1       6.113  26.034   3.342  1.00  0.00     0.068 C 
HETATM    5  C7  UNL     1       7.135  25.536   4.292  1.00  0.00     0.091 C 
HETATM    6  N2  UNL     1       7.789  26.632   5.026  1.00  0.00    -0.354 N 
ATOM      7  H2  UNL     1       8.520  27.150   4.539  1.00  0.00     0.162 HD
HETATM    8  C18 UNL     1       7.495  27.022   6.332  1.00  0.00     0.240 C 
HETATM    9  O1  UNL     1       7.791  28.228   6.649  1.00  0.00    -0.271 OA
HETATM   10  C19 UNL     1       6.882  26.231   7.418  1.00  0.00     0.176 C 
HETATM   11  N6  UNL     1       5.607  26.698   7.870  1.00  0.00    -0.346 N 
ATOM     12  H6  UNL     1       5.557  26.970   8.851  1.00  0.00     0.163 HD
HETATM   13  C24 UNL     1       4.418  26.829   7.138  1.00  0.00     0.241 C 
HETATM   14  O2  UNL     1       3.364  26.199   7.520  1.00  0.00    -0.271 OA
HETATM   15  C25 UNL     1       4.197  27.642   5.917  1.00  0.00     0.180 C 
HETATM   16  N7  UNL     1       3.381  27.003   4.921  1.00  0.00    -0.345 N 
ATOM     17  H7  UNL     1       2.388  26.949   5.147  1.00  0.00     0.163 HD
HETATM   18  C29 UNL     1       3.734  26.445   3.696  1.00  0.00     0.248 C 
HETATM   19  O3  UNL     1       3.131  26.884   2.649  1.00  0.00    -0.271 OA
HETATM   20  N8  UNL     1       4.653  24.296   4.363  1.00  0.00    -0.340 N 
ATOM     21  H8  UNL     1       4.873  24.416   5.351  1.00  0.00     0.163 HD
HETATM   22  C30 UNL     1       4.226  23.021   3.828  1.00  0.00     0.252 C 
HETATM   23  O4  UNL     1       4.702  21.939   4.253  1.00  0.00    -0.271 OA
HETATM   24  C31 UNL     1       3.202  22.951   2.753  1.00  0.00     0.317 C 
ENDROOT
BRANCH   1  25
HETATM   25  C3  UNL     1       3.305  23.565   0.518  1.00  0.00     0.273 C 
BRANCH  25  26
HETATM   26  C2  UNL     1       2.238  24.093  -0.373  1.00  0.00     0.026 C 
HETATM   27  C1  UNL     1       1.049  23.207  -0.531  1.00  0.00     0.007 C 
ENDBRANCH  25  26
ENDBRANCH   1  25
BRANCH   5  28
HETATM   28  C8  UNL     1       8.153  24.629   3.699  1.00  0.00     0.063 C 
BRANCH  28  29
HETATM   29  C9  UNL     1       9.175  24.067   4.545  1.00  0.00    -0.056 A 
HETATM   30  C10 UNL     1       9.071  24.037   5.908  1.00  0.00     0.009 A 
HETATM   31  C11 UNL     1      10.038  23.507   6.734  1.00  0.00     0.025 A 
HETATM   32  C12 UNL     1      11.178  22.972   6.171  1.00  0.00     0.040 A 
HETATM   33 CL1  UNL     1      12.397  22.298   7.248  1.00  0.00    -0.084 Cl
HETATM   34  C13 UNL     1      11.320  22.983   4.809  1.00  0.00    -0.033 A 
HETATM   35  C17 UNL     1      10.324  23.526   4.007  1.00  0.00     0.016 A 
BRANCH  34  36
HETATM   36  C14 UNL     1      12.568  22.398   4.230  1.00  0.00     0.012 C 
HETATM   37  C15 UNL     1      13.780  23.182   4.719  1.00  0.00     0.015 C 
HETATM   38  C16 UNL     1      12.727  20.944   4.541  1.00  0.00     0.015 C 
ENDBRANCH  34  36
ENDBRANCH  28  29
ENDBRANCH   5  28
BRANCH  24  39
HETATM   39  C32 UNL     1       1.860  22.852   3.439  1.00  0.00     0.024 C 
HETATM   40  C33 UNL     1       1.180  21.603   2.887  1.00  0.00     0.012 C 
BRANCH  39  41
HETATM   41  C34 UNL     1       0.960  24.015   3.161  1.00  0.00     0.002 C 
HETATM   42  C35 UNL     1       0.599  24.649   4.486  1.00  0.00     0.005 C 
ENDBRANCH  39  41
ENDBRANCH  24  39
BRANCH  15  43
HETATM   43  C26 UNL     1       3.509  28.922   6.441  1.00  0.00     0.009 C 
HETATM   44  C27 UNL     1       4.512  29.898   7.003  1.00  0.00     0.012 C 
HETATM   45  C28 UNL     1       2.638  29.580   5.438  1.00  0.00     0.012 C 
ENDBRANCH  15  43
BRANCH  10  46
HETATM   46  C20 UNL     1       7.903  26.228   8.548  1.00  0.00     0.036 C 
BRANCH  46  47
HETATM   47  C21 UNL     1       7.877  27.471   9.372  1.00  0.00     0.022 C 
BRANCH  47  48
HETATM   48  C22 UNL     1       9.297  27.686   9.896  1.00  0.00     0.122 C 
BRANCH  48  49
HETATM   49  N3  UNL     1      10.254  27.345   8.857  1.00  0.00    -0.367 N 
HETATM   50  C23 UNL     1      11.076  26.363   9.006  1.00  0.00     0.196 C 
HETATM   51  N4  UNL     1      11.086  25.578  10.178  1.00  0.00    -0.067 NA
HETATM   52  N5  UNL     1      11.993  26.065   7.966  1.00  0.00    -0.067 NA
ATOM     53  H3  UNL     1      10.276  27.891   7.996  1.00  0.00     0.161 HD
ENDBRANCH  48  49
ENDBRANCH  47  48
ENDBRANCH  46  47
ENDBRANCH  10  46
TORSDOF 12
ENDMDL
MODEL 3
REMARK VINA RESULT: -7.636782112      2.971      7.576
REMARK  12 active torsions:
REMARK  status: ('A' for Active; 'I' for Inactive)
REMARK    1  A    between atoms: C2_2  and  C3_3 
REMARK    2  A    between atoms: C3_3  and  N1_4 
REMARK    3  A    between atoms: C7_8  and  C8_9 
REMARK    4  A    between atoms: C8_9  and  C9_10 
REMARK    5  A    between atoms: C13_15  and  C14_16 
REMARK    6  A    between atoms: C19_24  and  C20_25 
REMARK    7  A    between atoms: C20_25  and  C21_26 
REMARK    8  A    between atoms: C21_26  and  C22_27 
REMARK    9  A    between atoms: C22_27  and  N3_28 
REMARK   10  A    between atoms: C25_37  and  C26_38 
REMARK   11  A    between atoms: C31_49  and  C32_50 
REMARK   12  A    between atoms: C32_50  and  C34_52 
ROOT
HETATM    1  N1  UNL     1       1.606  28.229   7.099  1.00  0.00     0.105 N 
HETATM    2  C4  UNL     1       2.872  27.587   7.129  1.00  0.00     0.314 C 
HETATM    3  C5  UNL     1       3.256  26.850   5.841  1.00  0.00     0.142 C 
HETATM    4  C6  UNL     1       4.595  26.213   6.159  1.00  0.00     0.068 C 
HETATM    5  C7  UNL     1       5.728  26.637   5.305  1.00  0.00     0.091 C 
HETATM    6  N2  UNL     1       6.464  25.489   4.749  1.00  0.00    -0.354 N 
ATOM      7  H2  UNL     1       7.127  25.018   5.364  1.00  0.00     0.162 HD
HETATM    8  C18 UNL     1       6.331  24.991   3.454  1.00  0.00     0.240 C 
HETATM    9  O1  UNL     1       6.660  23.766   3.276  1.00  0.00    -0.271 OA
HETATM   10  C19 UNL     1       5.859  25.686   2.239  1.00  0.00     0.176 C 
HETATM   11  N6  UNL     1       4.648  25.175   1.674  1.00  0.00    -0.346 N 
ATOM     12  H6  UNL     1       4.718  24.823   0.720  1.00  0.00     0.163 HD
HETATM   13  C24 UNL     1       3.377  25.096   2.263  1.00  0.00     0.241 C 
HETATM   14  O2  UNL     1       2.380  25.686   1.703  1.00  0.00    -0.271 OA
HETATM   15  C25 UNL     1       3.005  24.385   3.510  1.00  0.00     0.180 C 
HETATM   16  N7  UNL     1       2.074  25.099   4.342  1.00  0.00    -0.345 N 
ATOM     17  H7  UNL     1       1.117  25.127   3.992  1.00  0.00     0.163 HD
HETATM   18  C29 UNL     1       2.277  25.758   5.551  1.00  0.00     0.248 C 
HETATM   19  O3  UNL     1       1.548  25.403   6.549  1.00  0.00    -0.271 OA
HETATM   20  N8  UNL     1       3.277  27.851   4.827  1.00  0.00    -0.340 N 
ATOM     21  H8  UNL     1       3.618  27.652   3.887  1.00  0.00     0.163 HD
HETATM   22  C30 UNL     1       2.793  29.163   5.198  1.00  0.00     0.252 C 
HETATM   23  O4  UNL     1       3.322  30.209   4.747  1.00  0.00    -0.271 OA
HETATM   24  C31 UNL     1       1.645  29.314   6.130  1.00  0.00     0.317 C 
ENDROOT
BRANCH   1  25
HETATM   25  C3  UNL     1       1.469  28.887   8.403  1.00  0.00     0.273 C 
BRANCH  25  26
HETATM   26  C2  UNL     1       0.600  28.158   9.364  1.00  0.00     0.026 C 
HETATM   27  C1  UNL     1      -0.543  27.423   8.750  1.00  0.00     0.007 C 
ENDBRANCH  25  26
ENDBRANCH   1  25
BRANCH   5  28
HETATM   28  C8  UNL     1       6.668  27.597   5.941  1.00  0.00     0.063 C 
BRANCH  28  29
HETATM   29  C9  UNL     1       7.497  27.153   7.033  1.00  0.00    -0.056 A 
HETATM   30  C10 UNL     1       7.357  27.629   8.308  1.00  0.00     0.009 A 
HETATM   31  C11 UNL     1       8.141  27.220   9.364  1.00  0.00     0.025 A 
HETATM   32  C12 UNL     1       9.125  26.279   9.141  1.00  0.00     0.040 A 
HETATM   33 CL1  UNL     1      10.112  25.770  10.508  1.00  0.00    -0.084 Cl
HETATM   34  C13 UNL     1       9.297  25.777   7.878  1.00  0.00    -0.033 A 
HETATM   35  C17 UNL     1       8.487  26.214   6.836  1.00  0.00     0.016 A 
BRANCH  34  36
HETATM   36  C14 UNL     1      10.373  24.761   7.668  1.00  0.00     0.012 C 
HETATM   37  C15 UNL     1       9.864  23.654   6.752  1.00  0.00     0.015 C 
HETATM   38  C16 UNL     1      11.632  25.353   7.120  1.00  0.00     0.015 C 
ENDBRANCH  34  36
ENDBRANCH  28  29
ENDBRANCH   5  28
BRANCH  24  39
HETATM   39  C32 UNL     1       0.397  29.348   5.278  1.00  0.00     0.024 C 
HETATM   40  C33 UNL     1      -0.512  30.414   5.879  1.00  0.00     0.012 C 
BRANCH  39  41
HETATM   41  C34 UNL     1      -0.361  28.057   5.279  1.00  0.00     0.002 C 
HETATM   42  C35 UNL     1      -0.466  27.581   3.847  1.00  0.00     0.005 C 
ENDBRANCH  39  41
ENDBRANCH  24  39
BRANCH  15  43
HETATM   43  C26 UNL     1       2.382  23.062   3.013  1.00  0.00     0.009 C 
HETATM   44  C27 UNL     1       3.131  21.865   3.543  1.00  0.00     0.012 C 
HETATM   45  C28 UNL     1       0.932  22.945   3.299  1.00  0.00     0.012 C 
ENDBRANCH  15  43
BRANCH  10  46
HETATM   46  C20 UNL     1       7.011  25.603   1.247  1.00  0.00     0.036 C 
BRANCH  46  47
HETATM   47  C21 UNL     1       8.245  26.298   1.712  1.00  0.00     0.022 C 
BRANCH  47  48
HETATM   48  C22 UNL     1       9.433  25.471   1.219  1.00  0.00     0.122 C 
BRANCH  48  49
HETATM   49  N3  UNL     1       9.992  24.717   2.328  1.00  0.00    -0.367 N 
HETATM   50  C23 UNL     1       9.892  23.432   2.376  1.00  0.00     0.196 C 
HETATM   51  N4  UNL     1       9.239  22.702   1.362  1.00  0.00    -0.067 NA
HETATM   52  N5  UNL     1      10.453  22.736   3.477  1.00  0.00    -0.067 NA
ATOM     53  H3  UNL     1      10.472  25.211   3.081  1.00  0.00     0.161 HD
ENDBRANCH  48  49
ENDBRANCH  47  48
ENDBRANCH  46  47
ENDBRANCH  10  46
TORSDOF 12
ENDMDL
MODEL 4
REMARK VINA RESULT: -7.512347767      3.200      9.259
REMARK  12 active torsions:
REMARK  status: ('A' for Active; 'I' for Inactive)
REMARK    1  A    between atoms: C2_2  and  C3_3 
REMARK    2  A    between atoms: C3_3  and  N1_4 
REMARK    3  A    between atoms: C7_8  and  C8_9 
REMARK    4  A    between atoms: C8_9  and  C9_10 
REMARK    5  A    between atoms: C13_15  and  C14_16 
REMARK    6  A    between atoms: C19_24  and  C20_25 
REMARK    7  A    between atoms: C20_25  and  C21_26 
REMARK    8  A    between atoms: C21_26  and  C22_27 
REMARK    9  A    between atoms: C22_27  and  N3_28 
REMARK   10  A    between atoms: C25_37  and  C26_38 
REMARK   11  A    between atoms: C31_49  and  C32_50 
REMARK   12  A    between atoms: C32_50  and  C34_52 
ROOT
HETATM    1  N1  UNL     1       2.578  23.775   1.812  1.00  0.00     0.105 N 
HETATM    2  C4  UNL     1       3.892  24.309   1.746  1.00  0.00     0.314 C 
HETATM    3  C5  UNL     1       4.372  25.009   3.021  1.00  0.00     0.142 C 
HETATM    4  C6  UNL     1       5.751  25.532   2.665  1.00  0.00     0.068 C 
HETATM    5  C7  UNL     1       6.868  25.013   3.488  1.00  0.00     0.091 C 
HETATM    6  N2  UNL     1       7.713  26.094   4.021  1.00  0.00    -0.354 N 
ATOM      7  H2  UNL     1       8.396  26.509   3.388  1.00  0.00     0.162 HD
HETATM    8  C18 UNL     1       7.659  26.600   5.319  1.00  0.00     0.240 C 
HETATM    9  O1  UNL     1       8.094  27.793   5.487  1.00  0.00    -0.271 OA
HETATM   10  C19 UNL     1       7.165  25.945   6.547  1.00  0.00     0.176 C 
HETATM   11  N6  UNL     1       6.018  26.555   7.146  1.00  0.00    -0.346 N 
ATOM     12  H6  UNL     1       6.144  26.899   8.098  1.00  0.00     0.163 HD
HETATM   13  C24 UNL     1       4.742  26.741   6.594  1.00  0.00     0.241 C 
HETATM   14  O2  UNL     1       3.715  26.236   7.182  1.00  0.00    -0.271 OA
HETATM   15  C25 UNL     1       4.395  27.483   5.357  1.00  0.00     0.180 C 
HETATM   16  N7  UNL     1       3.385  26.851   4.552  1.00  0.00    -0.345 N 
ATOM     17  H7  UNL     1       2.439  26.902   4.930  1.00  0.00     0.163 HD
HETATM   18  C29 UNL     1       3.497  26.179   3.339  1.00  0.00     0.248 C 
HETATM   19  O3  UNL     1       2.773  26.596   2.361  1.00  0.00    -0.271 OA
HETATM   20  N8  UNL     1       4.339  24.008   4.036  1.00  0.00    -0.340 N 
ATOM     21  H8  UNL     1       4.721  24.177   4.966  1.00  0.00     0.163 HD
HETATM   22  C30 UNL     1       3.735  22.742   3.679  1.00  0.00     0.252 C 
HETATM   23  O4  UNL     1       4.187  21.655   4.116  1.00  0.00    -0.271 OA
HETATM   24  C31 UNL     1       2.553  22.689   2.781  1.00  0.00     0.317 C 
ENDROOT
BRANCH   1  25
HETATM   25  C3  UNL     1       2.349  23.133   0.513  1.00  0.00     0.273 C 
BRANCH  25  26
HETATM   26  C2  UNL     1       1.066  23.511  -0.135  1.00  0.00     0.026 C 
HETATM   27  C1  UNL     1       0.751  24.968  -0.111  1.00  0.00     0.007 C 
ENDBRANCH  25  26
ENDBRANCH   1  25
BRANCH   5  28
HETATM   28  C8  UNL     1       7.706  23.978   2.825  1.00  0.00     0.063 C 
BRANCH  28  29
HETATM   29  C9  UNL     1       9.084  23.829   3.219  1.00  0.00    -0.056 A 
HETATM   30  C10 UNL     1      10.127  24.092   2.375  1.00  0.00     0.009 A 
HETATM   31  C11 UNL     1      11.450  23.953   2.731  1.00  0.00     0.025 A 
HETATM   32  C12 UNL     1      11.757  23.526   4.006  1.00  0.00     0.040 A 
HETATM   33 CL1  UNL     1      13.456  23.358   4.439  1.00  0.00    -0.084 Cl
HETATM   34  C13 UNL     1      10.741  23.252   4.883  1.00  0.00    -0.033 A 
HETATM   35  C17 UNL     1       9.417  23.404   4.488  1.00  0.00     0.016 A 
BRANCH  34  36
HETATM   36  C14 UNL     1      11.106  22.789   6.256  1.00  0.00     0.012 C 
HETATM   37  C15 UNL     1       9.985  23.131   7.231  1.00  0.00     0.015 C 
HETATM   38  C16 UNL     1      11.419  21.327   6.313  1.00  0.00     0.015 C 
ENDBRANCH  34  36
ENDBRANCH  28  29
ENDBRANCH   5  28
BRANCH  24  39
HETATM   39  C32 UNL     1       1.332  22.759   3.668  1.00  0.00     0.024 C 
HETATM   40  C33 UNL     1       0.465  21.556   3.311  1.00  0.00     0.012 C 
BRANCH  39  41
HETATM   41  C34 UNL     1       0.506  23.989   3.451  1.00  0.00     0.002 C 
HETATM   42  C35 UNL     1       0.435  24.736   4.765  1.00  0.00     0.005 C 
ENDBRANCH  39  41
ENDBRANCH  24  39
BRANCH  15  43
HETATM   43  C26 UNL     1       3.900  28.853   5.870  1.00  0.00     0.009 C 
HETATM   44  C27 UNL     1       2.471  29.112   5.461  1.00  0.00     0.012 C 
HETATM   45  C28 UNL     1       4.071  29.036   7.331  1.00  0.00     0.012 C 
ENDBRANCH  15  43
BRANCH  10  46
HETATM   46  C20 UNL     1       8.347  25.930   7.507  1.00  0.00     0.036 C 
BRANCH  46  47
HETATM   47  C21 UNL     1       8.077  26.638   8.791  1.00  0.00     0.022 C 
BRANCH  47  48
HETATM   48  C22 UNL     1       9.365  27.368   9.175  1.00  0.00     0.122 C 
BRANCH  48  49
HETATM   49  N3  UNL     1      10.446  26.932   8.308  1.00  0.00    -0.367 N 
HETATM   50  C23 UNL     1      11.346  26.110   8.729  1.00  0.00     0.196 C 
HETATM   51  N4  UNL     1      11.324  25.598  10.043  1.00  0.00    -0.067 NA
HETATM   52  N5  UNL     1      12.384  25.710   7.849  1.00  0.00    -0.067 NA
ATOM     53  H3  UNL     1      10.495  27.282   7.351  1.00  0.00     0.161 HD
ENDBRANCH  48  49
ENDBRANCH  47  48
ENDBRANCH  46  47
ENDBRANCH  10  46
TORSDOF 12
ENDMDL
MODEL 5
REMARK VINA RESULT: -7.455636301      1.359      2.103
REMARK  12 active torsions:
REMARK  status: ('A' for Active; 'I' for Inactive)
REMARK    1  A    between atoms: C2_2  and  C3_3 
REMARK    2  A    between atoms: C3_3  and  N1_4 
REMARK    3  A    between atoms: C7_8  and  C8_9 
REMARK    4  A    between atoms: C8_9  and  C9_10 
REMARK    5  A    between atoms: C13_15  and  C14_16 
REMARK    6  A    between atoms: C19_24  and  C20_25 
REMARK    7  A    between atoms: C20_25  and  C21_26 
REMARK    8  A    between atoms: C21_26  and  C22_27 
REMARK    9  A    between atoms: C22_27  and  N3_28 
REMARK   10  A    between atoms: C25_37  and  C26_38 
REMARK   11  A    between atoms: C31_49  and  C32_50 
REMARK   12  A    between atoms: C32_50  and  C34_52 
ROOT
HETATM    1  N1  UNL     1       9.576  27.076   7.729  1.00  0.00     0.105 N 
HETATM    2  C4  UNL     1       8.281  27.578   7.436  1.00  0.00     0.314 C 
HETATM    3  C5  UNL     1       7.509  26.795   6.368  1.00  0.00     0.142 C 
HETATM    4  C6  UNL     1       6.212  27.565   6.204  1.00  0.00     0.068 C 
HETATM    5  C7  UNL     1       4.974  26.810   6.507  1.00  0.00     0.091 C 
HETATM    6  N2  UNL     1       3.984  26.911   5.422  1.00  0.00    -0.354 N 
ATOM      7  H2  UNL     1       3.429  27.765   5.374  1.00  0.00     0.162 HD
HETATM    8  C18 UNL     1       3.739  25.937   4.455  1.00  0.00     0.240 C 
HETATM    9  O1  UNL     1       3.219  26.341   3.355  1.00  0.00    -0.271 OA
HETATM   10  C19 UNL     1       3.996  24.484   4.518  1.00  0.00     0.176 C 
HETATM   11  N6  UNL     1       4.960  23.992   3.583  1.00  0.00    -0.346 N 
ATOM     12  H6  UNL     1       4.620  23.296   2.920  1.00  0.00     0.163 HD
HETATM   13  C24 UNL     1       6.312  24.343   3.460  1.00  0.00     0.241 C 
HETATM   14  O2  UNL     1       7.216  23.434   3.564  1.00  0.00    -0.271 OA
HETATM   15  C25 UNL     1       6.874  25.693   3.212  1.00  0.00     0.180 C 
HETATM   16  N7  UNL     1       8.060  25.988   3.969  1.00  0.00    -0.345 N 
ATOM     17  H7  UNL     1       8.902  25.506   3.655  1.00  0.00     0.163 HD
HETATM   18  C29 UNL     1       8.239  26.829   5.063  1.00  0.00     0.248 C 
HETATM   19  O3  UNL     1       9.131  27.750   4.964  1.00  0.00    -0.271 OA
HETATM   20  N8  UNL     1       7.378  25.476   6.889  1.00  0.00    -0.340 N 
ATOM     21  H8  UNL     1       6.802  24.773   6.427  1.00  0.00     0.163 HD
HETATM   22  C30 UNL     1       8.105  25.182   8.106  1.00  0.00     0.252 C 
HETATM   23  O4  UNL     1       7.626  24.431   8.990  1.00  0.00    -0.271 OA
HETATM   24  C31 UNL     1       9.451  25.764   8.347  1.00  0.00     0.317 C 
ENDROOT
BRANCH   1  25
HETATM   25  C3  UNL     1      10.104  27.947   8.785  1.00  0.00     0.273 C 
BRANCH  25  26
HETATM   26  C2  UNL     1       9.882  27.434  10.163  1.00  0.00     0.026 C 
HETATM   27  C1  UNL     1       8.855  28.170  10.954  1.00  0.00     0.007 C 
ENDBRANCH  25  26
ENDBRANCH   1  25
BRANCH   5  28
HETATM   28  C8  UNL     1       4.346  27.134   7.815  1.00  0.00     0.063 C 
BRANCH  28  29
HETATM   29  C9  UNL     1       3.186  27.988   7.847  1.00  0.00    -0.056 A 
HETATM   30  C10 UNL     1       1.969  27.564   8.304  1.00  0.00     0.009 A 
HETATM   31  C11 UNL     1       0.848  28.363   8.341  1.00  0.00     0.025 A 
HETATM   32  C12 UNL     1       0.941  29.666   7.897  1.00  0.00     0.040 A 
HETATM   33 CL1  UNL     1      -0.505  30.669   7.956  1.00  0.00    -0.084 Cl
HETATM   34  C13 UNL     1       2.143  30.130   7.432  1.00  0.00    -0.033 A 
HETATM   35  C17 UNL     1       3.253  29.294   7.409  1.00  0.00     0.016 A 
BRANCH  34  36
HETATM   36  C14 UNL     1       2.211  31.545   6.955  1.00  0.00     0.012 C 
HETATM   37  C15 UNL     1       3.571  32.140   7.302  1.00  0.00     0.015 C 
HETATM   38  C16 UNL     1       1.942  31.678   5.490  1.00  0.00     0.015 C 
ENDBRANCH  34  36
ENDBRANCH  28  29
ENDBRANCH   5  28
BRANCH  24  39
HETATM   39  C32 UNL     1      10.454  24.784   7.785  1.00  0.00     0.024 C 
HETATM   40  C33 UNL     1      11.660  24.813   8.717  1.00  0.00     0.012 C 
BRANCH  39  41
HETATM   41  C34 UNL     1      10.936  25.142   6.413  1.00  0.00     0.002 C 
HETATM   42  C35 UNL     1      10.646  23.971   5.501  1.00  0.00     0.005 C 
ENDBRANCH  39  41
ENDBRANCH  24  39
BRANCH  15  43
HETATM   43  C26 UNL     1       7.182  25.697   1.699  1.00  0.00     0.009 C 
HETATM   44  C27 UNL     1       5.917  25.658   0.877  1.00  0.00     0.012 C 
HETATM   45  C28 UNL     1       8.053  26.818   1.273  1.00  0.00     0.012 C 
ENDBRANCH  15  43
BRANCH  10  46
HETATM   46  C20 UNL     1       2.640  23.820   4.316  1.00  0.00     0.036 C 
BRANCH  46  47
HETATM   47  C21 UNL     1       2.595  22.914   3.132  1.00  0.00     0.022 C 
BRANCH  47  48
HETATM   48  C22 UNL     1       1.616  23.536   2.135  1.00  0.00     0.122 C 
BRANCH  48  49
HETATM   49  N3  UNL     1       2.350  24.345   1.177  1.00  0.00    -0.367 N 
HETATM   50  C23 UNL     1       1.796  25.359   0.602  1.00  0.00     0.196 C 
HETATM   51  N4  UNL     1       0.462  25.727   0.873  1.00  0.00    -0.067 NA
HETATM   52  N5  UNL     1       2.549  26.122  -0.327  1.00  0.00    -0.067 NA
ATOM     53  H3  UNL     1       3.316  24.109   0.955  1.00  0.00     0.161 HD
ENDBRANCH  48  49
ENDBRANCH  47  48
ENDBRANCH  46  47
ENDBRANCH  10  46
TORSDOF 12
ENDMDL
