MODEL 1
REMARK VINA RESULT: -6.776607439      0.000      0.000
REMARK  3 active torsions:
REMARK  status: ('A' for Active; 'I' for Inactive)
REMARK    1  A    between atoms: O1_2  and  C2_3 
REMARK    2  A    between atoms: C2_3  and  C3_5 
REMARK    3  A    between atoms: C5_10  and  N3_11 
ROOT
HETATM    1  N3  UNL     1     117.828  40.193  65.014  1.00  0.00    -0.126 N 
ATOM      2  H3  UNL     1     116.936  39.740  64.818  1.00  0.00     0.197 HD
HETATM    3  C6  UNL     1     118.892  40.050  64.120  1.00  0.00     0.196 C 
HETATM    4  N4  UNL     1     119.784  39.920  63.372  1.00  0.00    -0.171 NA
ENDROOT
BRANCH   1   5
HETATM    5  C5  UNL     1     117.970  40.894  66.078  1.00  0.00     0.694 A 
HETATM    6  N2  UNL     1     117.891  42.233  66.019  1.00  0.00    -0.177 N 
HETATM    7  C4  UNL     1     118.032  43.006  67.099  1.00  0.00     0.152 A 
ATOM      8  H2  UNL     1     117.717  42.676  65.117  1.00  0.00     0.185 HD
HETATM    9  C3  UNL     1     118.271  42.386  68.334  1.00  0.00     0.125 A 
HETATM   10  N1  UNL     1     117.952  44.421  67.052  1.00  0.00    -0.081 NA
HETATM   11  C7  UNL     1     118.349  41.019  68.379  1.00  0.00     0.134 A 
HETATM   12  N5  UNL     1     118.196  40.288  67.235  1.00  0.00    -0.175 N 
HETATM   13  N6  UNL     1     118.563  40.380  69.455  1.00  0.00    -0.384 N 
ATOM     14  H5  UNL     1     118.255  39.270  67.272  1.00  0.00     0.186 HD
ATOM     15  H62 UNL     1     118.677  40.926  70.309  1.00  0.00     0.157 HD
ATOM     16  H61 UNL     1     118.621  39.362  69.489  1.00  0.00     0.157 HD
BRANCH   9  17
HETATM   17  C2  UNL     1     118.422  43.261  69.506  1.00  0.00     0.300 C 
HETATM   18  O2  UNL     1     119.592  43.480  69.964  1.00  0.00    -0.259 OA
BRANCH  17  19
HETATM   19  O1  UNL     1     117.411  43.889  70.186  1.00  0.00    -0.322 OA
HETATM   20  C1  UNL     1     116.081  43.407  70.186  1.00  0.00     0.213 C 
ENDBRANCH  17  19
ENDBRANCH   9  17
ENDBRANCH   1   5
TORSDOF 3
ENDMDL
MODEL 2
REMARK VINA RESULT: -6.619059937      2.926      4.087
REMARK  3 active torsions:
REMARK  status: ('A' for Active; 'I' for Inactive)
REMARK    1  A    between atoms: O1_2  and  C2_3 
REMARK    2  A    between atoms: C2_3  and  C3_5 
REMARK    3  A    between atoms: C5_10  and  N3_11 
ROOT
HETATM    1  N3  UNL     1     120.254  39.078  62.620  1.00  0.00    -0.126 N 
ATOM      2  H3  UNL     1     121.006  38.631  63.144  1.00  0.00     0.197 HD
HETATM    3  C6  UNL     1     120.112  38.825  61.253  1.00  0.00     0.196 C 
HETATM    4  N4  UNL     1     120.002  38.615  60.106  1.00  0.00    -0.171 NA
ENDROOT
BRANCH   1   5
HETATM    5  C5  UNL     1     119.442  39.871  63.216  1.00  0.00     0.694 A 
HETATM    6  N2  UNL     1     118.870  40.882  62.542  1.00  0.00    -0.177 N 
HETATM    7  C4  UNL     1     118.018  41.734  63.117  1.00  0.00     0.152 A 
ATOM      8  H2  UNL     1     119.095  41.003  61.554  1.00  0.00     0.185 HD
HETATM    9  C3  UNL     1     117.717  41.558  64.475  1.00  0.00     0.125 A 
HETATM   10  N1  UNL     1     117.407  42.807  62.418  1.00  0.00    -0.081 NA
HETATM   11  C7  UNL     1     118.307  40.522  65.150  1.00  0.00     0.134 A 
HETATM   12  N5  UNL     1     119.170  39.687  64.500  1.00  0.00    -0.175 N 
HETATM   13  N6  UNL     1     118.089  40.293  66.380  1.00  0.00    -0.384 N 
ATOM     14  H5  UNL     1     119.609  38.917  65.006  1.00  0.00     0.186 HD
ATOM     15  H62 UNL     1     117.444  40.917  66.865  1.00  0.00     0.157 HD
ATOM     16  H61 UNL     1     118.529  39.521  66.883  1.00  0.00     0.157 HD
BRANCH   9  17
HETATM   17  C2  UNL     1     116.776  42.510  65.083  1.00  0.00     0.300 C 
HETATM   18  O2  UNL     1     115.562  42.155  65.249  1.00  0.00    -0.259 OA
BRANCH  17  19
HETATM   19  O1  UNL     1     117.065  43.781  65.506  1.00  0.00    -0.322 OA
HETATM   20  C1  UNL     1     117.825  44.040  66.671  1.00  0.00     0.213 C 
ENDBRANCH  17  19
ENDBRANCH   9  17
ENDBRANCH   1   5
TORSDOF 3
ENDMDL
MODEL 3
REMARK VINA RESULT: -6.570055496      3.053      3.934
REMARK  3 active torsions:
REMARK  status: ('A' for Active; 'I' for Inactive)
REMARK    1  A    between atoms: O1_2  and  C2_3 
REMARK    2  A    between atoms: C2_3  and  C3_5 
REMARK    3  A    between atoms: C5_10  and  N3_11 
ROOT
HETATM    1  N3  UNL     1     119.545  38.553  62.653  1.00  0.00    -0.126 N 
ATOM      2  H3  UNL     1     119.891  37.750  63.178  1.00  0.00     0.197 HD
HETATM    3  C6  UNL     1     119.710  38.603  61.267  1.00  0.00     0.196 C 
HETATM    4  N4  UNL     1     119.858  38.644  60.106  1.00  0.00    -0.171 NA
ENDROOT
BRANCH   1   5
HETATM    5  C5  UNL     1     118.959  39.514  63.267  1.00  0.00     0.694 A 
HETATM    6  N2  UNL     1     118.524  40.584  62.584  1.00  0.00    -0.177 N 
HETATM    7  C4  UNL     1     117.909  41.610  63.178  1.00  0.00     0.152 A 
ATOM      8  H2  UNL     1     118.668  40.616  61.575  1.00  0.00     0.185 HD
HETATM    9  C3  UNL     1     117.716  41.557  64.566  1.00  0.00     0.125 A 
HETATM   10  N1  UNL     1     117.444  42.748  62.470  1.00  0.00    -0.081 NA
HETATM   11  C7  UNL     1     118.164  40.459  65.250  1.00  0.00     0.134 A 
HETATM   12  N5  UNL     1     118.787  39.444  64.580  1.00  0.00    -0.175 N 
HETATM   13  N6  UNL     1     118.030  40.332  66.506  1.00  0.00    -0.384 N 
ATOM     14  H5  UNL     1     119.121  38.628  65.092  1.00  0.00     0.186 HD
ATOM     15  H62 UNL     1     117.565  41.090  67.006  1.00  0.00     0.157 HD
ATOM     16  H61 UNL     1     118.365  39.513  67.016  1.00  0.00     0.157 HD
BRANCH   9  17
HETATM   17  C2  UNL     1     117.035  42.699  65.193  1.00  0.00     0.300 C 
HETATM   18  O2  UNL     1     117.715  43.498  65.919  1.00  0.00    -0.259 OA
BRANCH  17  19
HETATM   19  O1  UNL     1     115.705  43.013  65.084  1.00  0.00    -0.322 OA
HETATM   20  C1  UNL     1     114.821  42.971  66.187  1.00  0.00     0.213 C 
ENDBRANCH  17  19
ENDBRANCH   9  17
ENDBRANCH   1   5
TORSDOF 3
ENDMDL
MODEL 4
REMARK VINA RESULT: -6.462911259      3.841      5.969
REMARK  3 active torsions:
REMARK  status: ('A' for Active; 'I' for Inactive)
REMARK    1  A    between atoms: O1_2  and  C2_3 
REMARK    2  A    between atoms: C2_3  and  C3_5 
REMARK    3  A    between atoms: C5_10  and  N3_11 
ROOT
HETATM    1  N3  UNL     1     116.932  42.008  66.799  1.00  0.00    -0.126 N 
ATOM      2  H3  UNL     1     116.268  42.781  66.811  1.00  0.00     0.197 HD
HETATM    3  C6  UNL     1     117.342  41.425  68.001  1.00  0.00     0.196 C 
HETATM    4  N4  UNL     1     117.688  40.944  69.011  1.00  0.00    -0.171 NA
ENDROOT
BRANCH   1   5
HETATM    5  C5  UNL     1     117.389  41.573  65.684  1.00  0.00     0.694 A 
HETATM    6  N2  UNL     1     117.289  42.324  64.575  1.00  0.00    -0.177 N 
HETATM    7  C4  UNL     1     117.749  41.915  63.390  1.00  0.00     0.152 A 
ATOM      8  H2  UNL     1     116.845  43.240  64.640  1.00  0.00     0.185 HD
HETATM    9  C3  UNL     1     118.358  40.655  63.312  1.00  0.00     0.125 A 
HETATM   10  N1  UNL     1     117.650  42.698  62.211  1.00  0.00    -0.081 NA
HETATM   11  C7  UNL     1     118.454  39.900  64.450  1.00  0.00     0.134 A 
HETATM   12  N5  UNL     1     117.961  40.378  65.631  1.00  0.00    -0.175 N 
HETATM   13  N6  UNL     1     118.989  38.748  64.466  1.00  0.00    -0.384 N 
ATOM     14  H5  UNL     1     118.033  39.812  66.477  1.00  0.00     0.186 HD
ATOM     15  H62 UNL     1     119.358  38.391  63.584  1.00  0.00     0.157 HD
ATOM     16  H61 UNL     1     119.061  38.186  65.314  1.00  0.00     0.157 HD
BRANCH   9  17
HETATM   17  C2  UNL     1     118.856  40.231  61.995  1.00  0.00     0.300 C 
HETATM   18  O2  UNL     1     118.018  39.848  61.113  1.00  0.00    -0.259 OA
BRANCH  17  19
HETATM   19  O1  UNL     1     120.167  40.198  61.594  1.00  0.00    -0.322 OA
HETATM   20  C1  UNL     1     121.168  40.989  62.205  1.00  0.00     0.213 C 
ENDBRANCH  17  19
ENDBRANCH   9  17
ENDBRANCH   1   5
TORSDOF 3
ENDMDL
MODEL 5
REMARK VINA RESULT: -6.442166352      0.266      2.128
REMARK  3 active torsions:
REMARK  status: ('A' for Active; 'I' for Inactive)
REMARK    1  A    between atoms: O1_2  and  C2_3 
REMARK    2  A    between atoms: C2_3  and  C3_5 
REMARK    3  A    between atoms: C5_10  and  N3_11 
ROOT
HETATM    1  N3  UNL     1     117.842  40.159  64.765  1.00  0.00    -0.126 N 
ATOM      2  H3  UNL     1     116.950  39.716  64.545  1.00  0.00     0.197 HD
HETATM    3  C6  UNL     1     118.933  39.990  63.909  1.00  0.00     0.196 C 
HETATM    4  N4  UNL     1     119.847  39.839  63.193  1.00  0.00    -0.171 NA
ENDROOT
BRANCH   1   5
HETATM    5  C5  UNL     1     117.959  40.868  65.826  1.00  0.00     0.694 A 
HETATM    6  N2  UNL     1     118.127  40.275  67.019  1.00  0.00    -0.177 N 
HETATM    7  C4  UNL     1     118.254  40.970  68.152  1.00  0.00     0.152 A 
ATOM      8  H2  UNL     1     118.158  39.257  67.062  1.00  0.00     0.185 HD
HETATM    9  C3  UNL     1     118.209  42.370  68.083  1.00  0.00     0.125 A 
HETATM   10  N1  UNL     1     118.431  40.357  69.420  1.00  0.00    -0.081 NA
HETATM   11  C7  UNL     1     118.038  42.962  66.860  1.00  0.00     0.134 A 
HETATM   12  N5  UNL     1     117.914  42.190  65.739  1.00  0.00    -0.175 N 
HETATM   13  N6  UNL     1     117.987  44.221  66.709  1.00  0.00    -0.384 N 
ATOM     14  H5  UNL     1     117.786  42.634  64.829  1.00  0.00     0.186 HD
ATOM     15  H62 UNL     1     118.080  44.797  67.546  1.00  0.00     0.157 HD
ATOM     16  H61 UNL     1     117.859  44.662  65.797  1.00  0.00     0.157 HD
BRANCH   9  17
HETATM   17  C2  UNL     1     118.353  43.110  69.345  1.00  0.00     0.300 C 
HETATM   18  O2  UNL     1     119.523  43.319  69.807  1.00  0.00    -0.259 OA
BRANCH  17  19
HETATM   19  O1  UNL     1     117.334  43.618  70.109  1.00  0.00    -0.322 OA
HETATM   20  C1  UNL     1     116.050  43.026  70.154  1.00  0.00     0.213 C 
ENDBRANCH  17  19
ENDBRANCH   9  17
ENDBRANCH   1   5
TORSDOF 3
ENDMDL
