MODEL 1
REMARK VINA RESULT: -7.250168064      0.000      0.000
REMARK  2 active torsions:
REMARK  status: ('A' for Active; 'I' for Inactive)
REMARK    1  A    between atoms: N1_1  and  C1_4 
REMARK    2  A    between atoms: C2_7  and  N3_8 
ROOT
HETATM    1  C1  UNL     1     121.008  40.266  61.732  1.00  0.00     0.679 A 
HETATM    2  N2  UNL     1     120.312  39.151  61.511  1.00  0.00    -0.169 N 
ATOM      3  H2  UNL     1     120.584  38.561  60.724  1.00  0.00     0.186 HD
HETATM    4  C2  UNL     1     119.270  38.759  62.269  1.00  0.00     0.219 A 
HETATM    5  C3  UNL     1     118.906  39.558  63.333  1.00  0.00     0.132 A 
HETATM    6  N4  UNL     1     117.960  39.512  64.285  1.00  0.00    -0.302 N 
ATOM      7  H4  UNL     1     117.269  38.768  64.376  1.00  0.00     0.171 HD
HETATM    8  C4  UNL     1     118.045  40.573  65.101  1.00  0.00     0.326 A 
HETATM    9  O3  UNL     1     117.317  40.862  66.111  1.00  0.00    -0.247 OA
HETATM   10  N5  UNL     1     119.067  41.316  64.663  1.00  0.00    -0.292 N 
ATOM     11  H5  UNL     1     119.381  42.192  65.082  1.00  0.00     0.172 HD
HETATM   12  C5  UNL     1     119.617  40.729  63.586  1.00  0.00     0.156 A 
HETATM   13  N6  UNL     1     120.649  41.043  62.770  1.00  0.00    -0.174 N 
ATOM     14  H6  UNL     1     121.174  41.899  62.949  1.00  0.00     0.186 HD
ENDROOT
BRANCH   1  15
HETATM   15  N1  UNL     1     122.012  40.609  60.970  1.00  0.00    -0.234 N 
ATOM     16  H12 UNL     1     122.113  40.203  60.040  1.00  0.00     0.174 HD
ATOM     17  H11 UNL     1     122.712  41.282  61.280  1.00  0.00     0.174 HD
ENDBRANCH   1  15
BRANCH   4  18
HETATM   18  N3  UNL     1     118.544  37.566  62.016  1.00  0.00    -0.095 N 
HETATM   19  O1  UNL     1     118.355  37.272  60.814  1.00  0.00    -0.530 OA
HETATM   20  O2  UNL     1     118.060  36.756  63.000  1.00  0.00    -0.530 OA
ENDBRANCH   4  18
TORSDOF 2
ENDMDL
MODEL 2
REMARK VINA RESULT: -7.035946365      2.448      4.674
REMARK  2 active torsions:
REMARK  status: ('A' for Active; 'I' for Inactive)
REMARK    1  A    between atoms: N1_1  and  C1_4 
REMARK    2  A    between atoms: C2_7  and  N3_8 
ROOT
HETATM    1  C1  UNL     1     118.077  40.405  65.194  1.00  0.00     0.679 A 
HETATM    2  N2  UNL     1     117.457  41.318  64.446  1.00  0.00    -0.169 N 
ATOM      3  H2  UNL     1     116.888  42.021  64.917  1.00  0.00     0.186 HD
HETATM    4  C2  UNL     1     117.539  41.364  63.102  1.00  0.00     0.219 A 
HETATM    5  C3  UNL     1     118.310  40.411  62.468  1.00  0.00     0.132 A 
HETATM    6  N4  UNL     1     118.631  40.132  61.194  1.00  0.00    -0.302 N 
ATOM      7  H4  UNL     1     118.302  40.663  60.387  1.00  0.00     0.171 HD
HETATM    8  C4  UNL     1     119.439  39.065  61.122  1.00  0.00     0.326 A 
HETATM    9  O3  UNL     1     119.943  38.515  60.085  1.00  0.00    -0.247 OA
HETATM   10  N5  UNL     1     119.642  38.650  62.377  1.00  0.00    -0.292 N 
ATOM     11  H5  UNL     1     120.218  37.853  62.649  1.00  0.00     0.172 HD
HETATM   12  C5  UNL     1     118.969  39.447  63.226  1.00  0.00     0.156 A 
HETATM   13  N6  UNL     1     118.827  39.478  64.571  1.00  0.00    -0.174 N 
ATOM     14  H6  UNL     1     119.307  38.775  65.132  1.00  0.00     0.186 HD
ENDROOT
BRANCH   1  15
HETATM   15  N1  UNL     1     117.968  40.398  66.495  1.00  0.00    -0.234 N 
ATOM     16  H12 UNL     1     117.083  40.642  66.938  1.00  0.00     0.174 HD
ATOM     17  H11 UNL     1     118.754  40.150  67.095  1.00  0.00     0.174 HD
ENDBRANCH   1  15
BRANCH   4  18
HETATM   18  N3  UNL     1     116.871  42.346  62.326  1.00  0.00    -0.095 N 
HETATM   19  O1  UNL     1     116.272  41.938  61.305  1.00  0.00    -0.530 OA
HETATM   20  O2  UNL     1     116.856  43.672  62.641  1.00  0.00    -0.530 OA
ENDBRANCH   4  18
TORSDOF 2
ENDMDL
MODEL 3
REMARK VINA RESULT: -6.942494164      1.611      3.679
REMARK  2 active torsions:
REMARK  status: ('A' for Active; 'I' for Inactive)
REMARK    1  A    between atoms: N1_1  and  C1_4 
REMARK    2  A    between atoms: C2_7  and  N3_8 
ROOT
HETATM    1  C1  UNL     1     118.175  40.248  64.702  1.00  0.00     0.679 A 
HETATM    2  N2  UNL     1     117.921  39.113  64.050  1.00  0.00    -0.169 N 
ATOM      3  H2  UNL     1     117.145  38.535  64.372  1.00  0.00     0.186 HD
HETATM    4  C2  UNL     1     118.631  38.688  62.987  1.00  0.00     0.219 A 
HETATM    5  C3  UNL     1     119.680  39.473  62.553  1.00  0.00     0.132 A 
HETATM    6  N4  UNL     1     120.589  39.396  61.569  1.00  0.00    -0.302 N 
ATOM      7  H4  UNL     1     120.648  38.631  60.896  1.00  0.00     0.171 HD
HETATM    8  C4  UNL     1     121.410  40.456  61.586  1.00  0.00     0.326 A 
HETATM    9  O3  UNL     1     122.387  40.720  60.806  1.00  0.00    -0.247 OA
HETATM   10  N5  UNL     1     121.019  41.231  62.604  1.00  0.00    -0.292 N 
ATOM     11  H5  UNL     1     121.452  42.114  62.872  1.00  0.00     0.172 HD
HETATM   12  C5  UNL     1     119.966  40.663  63.218  1.00  0.00     0.156 A 
HETATM   13  N6  UNL     1     119.198  41.010  64.276  1.00  0.00    -0.174 N 
ATOM     14  H6  UNL     1     119.402  41.880  64.767  1.00  0.00     0.186 HD
ENDROOT
BRANCH   1  15
HETATM   15  N1  UNL     1     117.459  40.621  65.729  1.00  0.00    -0.234 N 
ATOM     16  H12 UNL     1     116.689  40.040  66.057  1.00  0.00     0.174 HD
ATOM     17  H11 UNL     1     117.649  41.493  66.223  1.00  0.00     0.174 HD
ENDBRANCH   1  15
BRANCH   4  18
HETATM   18  N3  UNL     1     118.343  37.477  62.307  1.00  0.00    -0.095 N 
HETATM   19  O1  UNL     1     117.989  36.508  63.017  1.00  0.00    -0.530 OA
HETATM   20  O2  UNL     1     118.432  37.334  60.954  1.00  0.00    -0.530 OA
ENDBRANCH   4  18
TORSDOF 2
ENDMDL
MODEL 4
REMARK VINA RESULT: -6.489678183      2.292      3.310
REMARK  2 active torsions:
REMARK  status: ('A' for Active; 'I' for Inactive)
REMARK    1  A    between atoms: N1_1  and  C1_4 
REMARK    2  A    between atoms: C2_7  and  N3_8 
ROOT
HETATM    1  C1  UNL     1     118.977  37.973  62.709  1.00  0.00     0.679 A 
HETATM    2  N2  UNL     1     119.840  38.803  62.124  1.00  0.00    -0.169 N 
ATOM      3  H2  UNL     1     120.324  38.482  61.285  1.00  0.00     0.186 HD
HETATM    4  C2  UNL     1     120.109  40.043  62.577  1.00  0.00     0.219 A 
HETATM    5  C3  UNL     1     119.452  40.474  63.710  1.00  0.00     0.132 A 
HETATM    6  N4  UNL     1     119.448  41.598  64.445  1.00  0.00    -0.302 N 
ATOM      7  H4  UNL     1     120.014  42.422  64.242  1.00  0.00     0.171 HD
HETATM    8  C4  UNL     1     118.601  41.496  65.479  1.00  0.00     0.326 A 
HETATM    9  O3  UNL     1     118.337  42.360  66.382  1.00  0.00    -0.247 OA
HETATM   10  N5  UNL     1     118.050  40.279  65.408  1.00  0.00    -0.292 N 
ATOM     11  H5  UNL     1     117.361  39.904  66.061  1.00  0.00     0.172 HD
HETATM   12  C5  UNL     1     118.545  39.626  64.342  1.00  0.00     0.156 A 
HETATM   13  N6  UNL     1     118.339  38.398  63.815  1.00  0.00    -0.174 N 
ATOM     14  H6  UNL     1     117.677  37.771  64.272  1.00  0.00     0.186 HD
ENDROOT
BRANCH   1  15
HETATM   15  N1  UNL     1     118.748  36.778  62.235  1.00  0.00    -0.234 N 
ATOM     16  H12 UNL     1     118.121  36.142  62.728  1.00  0.00     0.174 HD
ATOM     17  H11 UNL     1     119.182  36.453  61.372  1.00  0.00     0.174 HD
ENDBRANCH   1  15
BRANCH   4  18
HETATM   18  N3  UNL     1     121.031  40.910  61.936  1.00  0.00    -0.095 N 
HETATM   19  O1  UNL     1     120.732  42.125  61.913  1.00  0.00    -0.530 OA
HETATM   20  O2  UNL     1     122.193  40.483  61.364  1.00  0.00    -0.530 OA
ENDBRANCH   4  18
TORSDOF 2
ENDMDL
MODEL 5
REMARK VINA RESULT: -6.415650348      2.501      3.114
REMARK  2 active torsions:
REMARK  status: ('A' for Active; 'I' for Inactive)
REMARK    1  A    between atoms: N1_1  and  C1_4 
REMARK    2  A    between atoms: C2_7  and  N3_8 
ROOT
HETATM    1  C1  UNL     1     119.832  39.647  62.676  1.00  0.00     0.679 A 
HETATM    2  N2  UNL     1     119.062  40.484  61.980  1.00  0.00    -0.169 N 
ATOM      3  H2  UNL     1     119.242  40.586  60.981  1.00  0.00     0.186 HD
HETATM    4  C2  UNL     1     118.059  41.200  62.522  1.00  0.00     0.219 A 
HETATM    5  C3  UNL     1     117.818  41.058  63.872  1.00  0.00     0.132 A 
HETATM    6  N4  UNL     1     116.943  41.579  64.749  1.00  0.00    -0.302 N 
ATOM      7  H4  UNL     1     116.221  42.258  64.509  1.00  0.00     0.171 HD
HETATM    8  C4  UNL     1     117.145  41.089  65.981  1.00  0.00     0.326 A 
HETATM    9  O3  UNL     1     116.510  41.354  67.057  1.00  0.00    -0.247 OA
HETATM   10  N5  UNL     1     118.171  40.235  65.894  1.00  0.00    -0.292 N 
ATOM     11  H5  UNL     1     118.561  39.701  66.670  1.00  0.00     0.172 HD
HETATM   12  C5  UNL     1     118.608  40.191  64.622  1.00  0.00     0.156 A 
HETATM   13  N6  UNL     1     119.593  39.511  63.992  1.00  0.00    -0.174 N 
ATOM     14  H6  UNL     1     120.176  38.874  64.535  1.00  0.00     0.186 HD
ENDROOT
BRANCH   1  15
HETATM   15  N1  UNL     1     120.795  38.972  62.109  1.00  0.00    -0.234 N 
ATOM     16  H12 UNL     1     120.604  38.390  61.293  1.00  0.00     0.174 HD
ATOM     17  H11 UNL     1     121.752  39.007  62.461  1.00  0.00     0.174 HD
ENDBRANCH   1  15
BRANCH   4  18
HETATM   18  N3  UNL     1     117.251  42.085  61.761  1.00  0.00    -0.095 N 
HETATM   19  O1  UNL     1     117.353  43.304  62.028  1.00  0.00    -0.530 OA
HETATM   20  O2  UNL     1     116.396  41.670  60.783  1.00  0.00    -0.530 OA
ENDBRANCH   4  18
TORSDOF 2
ENDMDL
