MODEL 1
REMARK VINA RESULT: -6.430775185      0.000      0.000
REMARK  3 active torsions:
REMARK  status: ('A' for Active; 'I' for Inactive)
REMARK    1  A    between atoms: O1_2  and  N1_3 
REMARK    2  A    between atoms: C2_5  and  C3_6 
REMARK    3  A    between atoms: C5_11  and  N4_12 
ROOT
HETATM    1  C3  UNL     1     117.630  40.947  63.474  1.00  0.00     0.068 A 
HETATM    2  C4  UNL     1     117.767  40.789  62.119  1.00  0.00     0.147 A 
HETATM    3  N2  UNL     1     116.958  41.590  61.262  1.00  0.00    -0.081 NA
HETATM    4  N3  UNL     1     118.626  39.920  61.571  1.00  0.00    -0.178 N 
ATOM      5  H3  UNL     1     118.704  39.826  60.558  1.00  0.00     0.185 HD
HETATM    6  C5  UNL     1     119.388  39.171  62.400  1.00  0.00     0.678 A 
HETATM    7  N5  UNL     1     119.286  39.292  63.721  1.00  0.00    -0.175 N 
ATOM      8  H5  UNL     1     119.878  38.706  64.310  1.00  0.00     0.186 HD
HETATM    9  C6  UNL     1     118.419  40.170  64.332  1.00  0.00     0.145 A 
HETATM   10  N6  UNL     1     118.337  40.275  65.538  1.00  0.00    -0.278 N 
ATOM     11  H6  UNL     1     119.027  39.588  65.843  1.00  0.00     0.179 HD
HETATM   12  C7  UNL     1     117.923  40.711  66.645  1.00  0.00     0.183 C 
HETATM   13  N7  UNL     1     117.540  41.088  67.656  1.00  0.00    -0.172 NA
ENDROOT
BRANCH   1  14
HETATM   14  C2  UNL     1     116.690  41.906  63.993  1.00  0.00     0.132 C 
HETATM   15  N1  UNL     1     115.422  41.610  64.010  1.00  0.00    -0.277 N 
ATOM     16  H1  UNL     1     115.156  40.694  63.649  1.00  0.00     0.193 HD
BRANCH  15  17
HETATM   17  O1  UNL     1     114.425  42.402  64.463  1.00  0.00    -0.286 OA
HETATM   18  C1  UNL     1     114.381  43.017  65.704  1.00  0.00     0.237 C 
ENDBRANCH  15  17
ENDBRANCH   1  14
BRANCH   6  19
HETATM   19  N4  UNL     1     120.217  38.330  61.867  1.00  0.00    -0.234 N 
ATOM     20  H42 UNL     1     121.192  38.583  61.705  1.00  0.00     0.174 HD
ATOM     21  H41 UNL     1     119.866  37.405  61.617  1.00  0.00     0.174 HD
ENDBRANCH   6  19
TORSDOF 3
ENDMDL
MODEL 2
REMARK VINA RESULT: -6.168341846      4.177      6.083
REMARK  3 active torsions:
REMARK  status: ('A' for Active; 'I' for Inactive)
REMARK    1  A    between atoms: O1_2  and  N1_3 
REMARK    2  A    between atoms: C2_5  and  C3_6 
REMARK    3  A    between atoms: C5_11  and  N4_12 
ROOT
HETATM    1  C3  UNL     1     116.145  44.333  61.387  1.00  0.00     0.068 A 
HETATM    2  C4  UNL     1     116.292  44.082  62.727  1.00  0.00     0.147 A 
HETATM    3  N2  UNL     1     115.955  45.117  63.647  1.00  0.00    -0.081 NA
HETATM    4  N3  UNL     1     116.732  42.911  63.204  1.00  0.00    -0.178 N 
ATOM      5  H3  UNL     1     116.830  42.755  64.207  1.00  0.00     0.185 HD
HETATM    6  C5  UNL     1     117.043  41.940  62.316  1.00  0.00     0.678 A 
HETATM    7  N5  UNL     1     116.917  42.142  61.007  1.00  0.00    -0.175 N 
ATOM      8  H5  UNL     1     117.164  41.382  60.372  1.00  0.00     0.186 HD
HETATM    9  C6  UNL     1     116.468  43.326  60.469  1.00  0.00     0.145 A 
HETATM   10  N6  UNL     1     116.352  43.498  59.273  1.00  0.00    -0.278 N 
ATOM     11  H6  UNL     1     116.662  42.596  58.913  1.00  0.00     0.179 HD
HETATM   12  C7  UNL     1     116.085  44.108  58.203  1.00  0.00     0.183 C 
HETATM   13  N7  UNL     1     115.862  44.659  57.224  1.00  0.00    -0.172 NA
ENDROOT
BRANCH   1  14
HETATM   14  C2  UNL     1     115.659  45.615  60.947  1.00  0.00     0.132 C 
HETATM   15  N1  UNL     1     114.407  45.920  61.134  1.00  0.00    -0.277 N 
ATOM     16  H1  UNL     1     113.824  45.220  61.594  1.00  0.00     0.193 HD
BRANCH  15  17
HETATM   17  O1  UNL     1     113.807  47.078  60.778  1.00  0.00    -0.286 OA
HETATM   18  C1  UNL     1     114.072  47.804  59.627  1.00  0.00     0.237 C 
ENDBRANCH  15  17
ENDBRANCH   1  14
BRANCH   6  19
HETATM   19  N4  UNL     1     117.471  40.808  62.780  1.00  0.00    -0.234 N 
ATOM     20  H42 UNL     1     117.008  40.353  63.568  1.00  0.00     0.174 HD
ATOM     21  H41 UNL     1     118.284  40.384  62.332  1.00  0.00     0.174 HD
ENDBRANCH   6  19
TORSDOF 3
ENDMDL
MODEL 3
REMARK VINA RESULT: -6.161712821      1.392      1.407
REMARK  3 active torsions:
REMARK  status: ('A' for Active; 'I' for Inactive)
REMARK    1  A    between atoms: O1_2  and  N1_3 
REMARK    2  A    between atoms: C2_5  and  C3_6 
REMARK    3  A    between atoms: C5_11  and  N4_12 
ROOT
HETATM    1  C3  UNL     1     117.940  41.463  64.365  1.00  0.00     0.068 A 
HETATM    2  C4  UNL     1     118.075  41.412  63.001  1.00  0.00     0.147 A 
HETATM    3  N2  UNL     1     117.725  42.567  62.246  1.00  0.00    -0.081 NA
HETATM    4  N3  UNL     1     118.523  40.327  62.356  1.00  0.00    -0.178 N 
ATOM      5  H3  UNL     1     118.613  40.320  61.340  1.00  0.00     0.185 HD
HETATM    6  C5  UNL     1     118.854  39.241  63.090  1.00  0.00     0.678 A 
HETATM    7  N5  UNL     1     118.736  39.248  64.416  1.00  0.00    -0.175 N 
ATOM      8  H5  UNL     1     118.995  38.407  64.931  1.00  0.00     0.186 HD
HETATM    9  C6  UNL     1     118.282  40.337  65.125  1.00  0.00     0.145 A 
HETATM   10  N6  UNL     1     118.182  40.334  66.334  1.00  0.00    -0.278 N 
ATOM     11  H6  UNL     1     118.503  39.393  66.556  1.00  0.00     0.179 HD
HETATM   12  C7  UNL     1     117.925  40.780  67.484  1.00  0.00     0.183 C 
HETATM   13  N7  UNL     1     117.677  41.171  68.532  1.00  0.00    -0.172 NA
ENDROOT
BRANCH   1  14
HETATM   14  C2  UNL     1     117.457  42.666  64.992  1.00  0.00     0.132 C 
HETATM   15  N1  UNL     1     116.197  42.977  64.889  1.00  0.00    -0.277 N 
ATOM     16  H1  UNL     1     115.605  42.338  64.358  1.00  0.00     0.193 HD
BRANCH  15  17
HETATM   17  O1  UNL     1     115.600  44.068  65.419  1.00  0.00    -0.286 OA
HETATM   18  C1  UNL     1     116.238  45.078  66.119  1.00  0.00     0.237 C 
ENDBRANCH  15  17
ENDBRANCH   1  14
BRANCH   6  19
HETATM   19  N4  UNL     1     119.286  38.193  62.463  1.00  0.00    -0.234 N 
ATOM     20  H42 UNL     1     120.283  38.046  62.308  1.00  0.00     0.174 HD
ATOM     21  H41 UNL     1     118.597  37.518  62.130  1.00  0.00     0.174 HD
ENDBRANCH   6  19
TORSDOF 3
ENDMDL
MODEL 4
REMARK VINA RESULT: -6.148650244      5.739      7.194
REMARK  3 active torsions:
REMARK  status: ('A' for Active; 'I' for Inactive)
REMARK    1  A    between atoms: O1_2  and  N1_3 
REMARK    2  A    between atoms: C2_5  and  C3_6 
REMARK    3  A    between atoms: C5_11  and  N4_12 
ROOT
HETATM    1  C3  UNL     1     115.261  45.133  59.548  1.00  0.00     0.068 A 
HETATM    2  C4  UNL     1     115.877  44.176  58.783  1.00  0.00     0.147 A 
HETATM    3  N2  UNL     1     115.903  44.357  57.370  1.00  0.00    -0.081 NA
HETATM    4  N3  UNL     1     116.455  43.087  59.307  1.00  0.00    -0.178 N 
ATOM      5  H3  UNL     1     116.906  42.394  58.711  1.00  0.00     0.185 HD
HETATM    6  C5  UNL     1     116.424  42.935  60.650  1.00  0.00     0.678 A 
HETATM    7  N5  UNL     1     115.835  43.839  61.429  1.00  0.00    -0.175 N 
ATOM      8  H5  UNL     1     115.833  43.684  62.437  1.00  0.00     0.186 HD
HETATM    9  C6  UNL     1     115.229  44.974  60.939  1.00  0.00     0.145 A 
HETATM   10  N6  UNL     1     114.698  45.794  61.659  1.00  0.00    -0.278 N 
ATOM     11  H6  UNL     1     114.853  45.379  62.578  1.00  0.00     0.179 HD
HETATM   12  C7  UNL     1     114.072  46.843  61.969  1.00  0.00     0.183 C 
HETATM   13  N7  UNL     1     113.489  47.785  62.259  1.00  0.00    -0.172 NA
ENDROOT
BRANCH   1  14
HETATM   14  C2  UNL     1     114.666  46.282  58.916  1.00  0.00     0.132 C 
HETATM   15  N1  UNL     1     115.381  47.002  58.100  1.00  0.00    -0.277 N 
ATOM     16  H1  UNL     1     116.346  46.708  57.948  1.00  0.00     0.193 HD
BRANCH  15  17
HETATM   17  O1  UNL     1     114.965  48.103  57.436  1.00  0.00    -0.286 OA
HETATM   18  C1  UNL     1     114.417  48.120  56.163  1.00  0.00     0.237 C 
ENDBRANCH  15  17
ENDBRANCH   1  14
BRANCH   6  19
HETATM   19  N4  UNL     1     116.983  41.880  61.154  1.00  0.00    -0.234 N 
ATOM     20  H42 UNL     1     116.754  40.948  60.809  1.00  0.00     0.174 HD
ATOM     21  H41 UNL     1     117.661  42.011  61.905  1.00  0.00     0.174 HD
ENDBRANCH   6  19
TORSDOF 3
ENDMDL
MODEL 5
REMARK VINA RESULT: -6.131219598      1.962      4.238
REMARK  3 active torsions:
REMARK  status: ('A' for Active; 'I' for Inactive)
REMARK    1  A    between atoms: O1_2  and  N1_3 
REMARK    2  A    between atoms: C2_5  and  C3_6 
REMARK    3  A    between atoms: C5_11  and  N4_12 
ROOT
HETATM    1  C3  UNL     1     117.814  41.455  63.275  1.00  0.00     0.068 A 
HETATM    2  C4  UNL     1     117.323  42.213  64.307  1.00  0.00     0.147 A 
HETATM    3  N2  UNL     1     116.687  43.449  63.993  1.00  0.00    -0.081 NA
HETATM    4  N3  UNL     1     117.413  41.839  65.590  1.00  0.00    -0.178 N 
ATOM      5  H3  UNL     1     117.037  42.425  66.336  1.00  0.00     0.185 HD
HETATM    6  C5  UNL     1     118.016  40.662  65.868  1.00  0.00     0.678 A 
HETATM    7  N5  UNL     1     118.508  39.897  64.897  1.00  0.00    -0.175 N 
ATOM      8  H5  UNL     1     118.957  39.017  65.152  1.00  0.00     0.186 HD
HETATM    9  C6  UNL     1     118.439  40.236  63.565  1.00  0.00     0.145 A 
HETATM   10  N6  UNL     1     118.887  39.530  62.686  1.00  0.00    -0.278 N 
ATOM     11  H6  UNL     1     119.257  38.750  63.230  1.00  0.00     0.179 HD
HETATM   12  C7  UNL     1     119.176  39.167  61.514  1.00  0.00     0.183 C 
HETATM   13  N7  UNL     1     119.460  38.837  60.455  1.00  0.00    -0.172 NA
ENDROOT
BRANCH   1  14
HETATM   14  C2  UNL     1     117.675  41.917  61.918  1.00  0.00     0.132 C 
HETATM   15  N1  UNL     1     116.486  42.017  61.397  1.00  0.00    -0.277 N 
ATOM     16  H1  UNL     1     115.698  41.757  61.991  1.00  0.00     0.193 HD
BRANCH  15  17
HETATM   17  O1  UNL     1     116.197  42.432  60.143  1.00  0.00    -0.286 OA
HETATM   18  C1  UNL     1     116.193  43.748  59.709  1.00  0.00     0.237 C 
ENDBRANCH  15  17
ENDBRANCH   1  14
BRANCH   6  19
HETATM   19  N4  UNL     1     118.103  40.304  67.111  1.00  0.00    -0.234 N 
ATOM     20  H42 UNL     1     118.042  40.991  67.862  1.00  0.00     0.174 HD
ATOM     21  H41 UNL     1     118.233  39.313  67.314  1.00  0.00     0.174 HD
ENDBRANCH   6  19
TORSDOF 3
ENDMDL
