MODEL 1
REMARK VINA RESULT: -6.669472401      0.000      0.000
REMARK  4 active torsions:
REMARK  status: ('A' for Active; 'I' for Inactive)
REMARK    1  A    between atoms: O1_2  and  C2_3 
REMARK    2  A    between atoms: C2_3  and  C3_7 
REMARK    3  A    between atoms: N5_17  and  N6_19 
REMARK    4  A    between atoms: N6_19  and  O3_21 
ROOT
HETATM    1  C3  UNL     1     117.030  43.032  67.686  1.00  0.00     0.101 A 
HETATM    2  C4  UNL     1     116.921  41.886  66.930  1.00  0.00     0.138 A 
HETATM    3  N2  UNL     1     116.223  41.988  65.687  1.00  0.00    -0.081 NA
HETATM    4  N3  UNL     1     117.456  40.701  67.345  1.00  0.00    -0.296 N 
ATOM      5  H3  UNL     1     117.370  39.857  66.777  1.00  0.00     0.171 HD
HETATM    6  C5  UNL     1     118.098  40.681  68.523  1.00  0.00     0.327 A 
HETATM    7  O2  UNL     1     118.593  39.600  68.913  1.00  0.00    -0.247 OA
HETATM    8  N4  UNL     1     118.231  41.772  69.296  1.00  0.00    -0.292 N 
ATOM      9  H4  UNL     1     118.728  41.711  70.184  1.00  0.00     0.172 HD
HETATM   10  C6  UNL     1     117.697  42.963  68.888  1.00  0.00     0.143 A 
HETATM   11  N5  UNL     1     117.791  44.034  69.580  1.00  0.00    -0.265 N 
ATOM     12  H5  UNL     1     117.382  44.907  69.248  1.00  0.00     0.190 HD
ENDROOT
BRANCH   1  13
HETATM   13  C2  UNL     1     116.440  44.292  67.204  1.00  0.00     0.153 C 
HETATM   14  N1  UNL     1     116.936  44.917  66.195  1.00  0.00    -0.379 N 
ATOM     15  H12 UNL     1     116.527  45.790  65.861  1.00  0.00     0.158 HD
ATOM     16  H11 UNL     1     117.752  44.520  65.730  1.00  0.00     0.158 HD
BRANCH  13  17
HETATM   17  O1  UNL     1     115.333  44.831  67.835  1.00  0.00    -0.340 OA
HETATM   18  C1  UNL     1     114.179  44.088  68.150  1.00  0.00     0.211 C 
ENDBRANCH  13  17
ENDBRANCH   1  13
BRANCH  11  19
HETATM   19  N6  UNL     1     118.466  43.978  70.800  1.00  0.00    -0.208 N 
ATOM     20  H6  UNL     1     117.985  44.340  71.624  1.00  0.00     0.215 HD
BRANCH  19  21
HETATM   21  O3  UNL     1     119.599  43.524  70.953  1.00  0.00    -0.274 OA
ATOM     22  H3  UNL     1     120.399  44.027  70.860  1.00  0.00     0.246 HD
ENDBRANCH  19  21
ENDBRANCH  11  19
TORSDOF 4
ENDMDL
MODEL 2
REMARK VINA RESULT: -6.593284774      5.206      6.787
REMARK  4 active torsions:
REMARK  status: ('A' for Active; 'I' for Inactive)
REMARK    1  A    between atoms: O1_2  and  C2_3 
REMARK    2  A    between atoms: C2_3  and  C3_7 
REMARK    3  A    between atoms: N5_17  and  N6_19 
REMARK    4  A    between atoms: N6_19  and  O3_21 
ROOT
HETATM    1  C3  UNL     1     118.019  40.807  62.846  1.00  0.00     0.101 A 
HETATM    2  C4  UNL     1     118.791  41.818  62.317  1.00  0.00     0.138 A 
HETATM    3  N2  UNL     1     118.162  43.088  62.131  1.00  0.00    -0.081 NA
HETATM    4  N3  UNL     1     120.099  41.621  61.984  1.00  0.00    -0.296 N 
ATOM      5  H3  UNL     1     120.662  42.377  61.593  1.00  0.00     0.171 HD
HETATM    6  C5  UNL     1     120.621  40.401  62.187  1.00  0.00     0.327 A 
HETATM    7  O2  UNL     1     121.821  40.209  61.886  1.00  0.00    -0.247 OA
HETATM    8  N4  UNL     1     119.910  39.384  62.700  1.00  0.00    -0.292 N 
ATOM      9  H4  UNL     1     120.348  38.473  62.839  1.00  0.00     0.172 HD
HETATM   10  C6  UNL     1     118.598  39.572  63.036  1.00  0.00     0.143 A 
HETATM   11  N5  UNL     1     117.871  38.643  63.527  1.00  0.00    -0.265 N 
ATOM     12  H5  UNL     1     116.895  38.815  63.768  1.00  0.00     0.190 HD
ENDROOT
BRANCH   1  13
HETATM   13  C2  UNL     1     116.610  41.058  63.193  1.00  0.00     0.153 C 
HETATM   14  N1  UNL     1     115.765  41.447  62.306  1.00  0.00    -0.379 N 
ATOM     15  H12 UNL     1     114.789  41.621  62.546  1.00  0.00     0.158 HD
ATOM     16  H11 UNL     1     116.090  41.580  61.348  1.00  0.00     0.158 HD
BRANCH  13  17
HETATM   17  O1  UNL     1     116.168  40.879  64.492  1.00  0.00    -0.340 OA
HETATM   18  C1  UNL     1     116.751  41.513  65.606  1.00  0.00     0.211 C 
ENDBRANCH  13  17
ENDBRANCH   1  13
BRANCH  11  19
HETATM   19  N6  UNL     1     118.446  37.386  63.726  1.00  0.00    -0.208 N 
ATOM     20  H6  UNL     1     118.893  37.208  64.625  1.00  0.00     0.215 HD
BRANCH  19  21
HETATM   21  O3  UNL     1     118.450  36.480  62.895  1.00  0.00    -0.274 OA
ATOM     22  H3  UNL     1     119.221  36.178  62.428  1.00  0.00     0.246 HD
ENDBRANCH  19  21
ENDBRANCH  11  19
TORSDOF 4
ENDMDL
MODEL 3
REMARK VINA RESULT: -6.331948280      3.547      5.718
REMARK  4 active torsions:
REMARK  status: ('A' for Active; 'I' for Inactive)
REMARK    1  A    between atoms: O1_2  and  C2_3 
REMARK    2  A    between atoms: C2_3  and  C3_7 
REMARK    3  A    between atoms: N5_17  and  N6_19 
REMARK    4  A    between atoms: N6_19  and  O3_21 
ROOT
HETATM    1  C3  UNL     1     117.598  41.779  65.018  1.00  0.00     0.101 A 
HETATM    2  C4  UNL     1     116.900  42.806  64.422  1.00  0.00     0.138 A 
HETATM    3  N2  UNL     1     116.551  43.920  65.245  1.00  0.00    -0.081 NA
HETATM    4  N3  UNL     1     116.554  42.765  63.103  1.00  0.00    -0.296 N 
ATOM      5  H3  UNL     1     116.037  43.531  62.670  1.00  0.00     0.171 HD
HETATM    6  C5  UNL     1     116.916  41.685  62.393  1.00  0.00     0.327 A 
HETATM    7  O2  UNL     1     116.604  41.637  61.181  1.00  0.00    -0.247 OA
HETATM    8  N4  UNL     1     117.597  40.658  62.928  1.00  0.00    -0.292 N 
ATOM      9  H4  UNL     1     117.852  39.858  62.351  1.00  0.00     0.172 HD
HETATM   10  C6  UNL     1     117.947  40.691  64.250  1.00  0.00     0.143 A 
HETATM   11  N5  UNL     1     118.594  39.745  64.816  1.00  0.00    -0.265 N 
ATOM     12  H5  UNL     1     118.840  39.798  65.804  1.00  0.00     0.190 HD
ENDROOT
BRANCH   1  13
HETATM   13  C2  UNL     1     117.953  41.859  66.445  1.00  0.00     0.153 C 
HETATM   14  N1  UNL     1     118.722  42.790  66.888  1.00  0.00    -0.379 N 
ATOM     15  H12 UNL     1     118.968  42.846  67.876  1.00  0.00     0.158 HD
ATOM     16  H11 UNL     1     119.084  43.478  66.228  1.00  0.00     0.158 HD
BRANCH  13  17
HETATM   17  O1  UNL     1     117.463  40.926  67.341  1.00  0.00    -0.340 OA
HETATM   18  C1  UNL     1     118.152  40.525  68.502  1.00  0.00     0.211 C 
ENDBRANCH  13  17
ENDBRANCH   1  13
BRANCH  11  19
HETATM   19  N6  UNL     1     118.955  38.637  64.048  1.00  0.00    -0.208 N 
ATOM     20  H6  UNL     1     119.943  38.520  63.820  1.00  0.00     0.215 HD
BRANCH  19  21
HETATM   21  O3  UNL     1     118.168  37.790  63.627  1.00  0.00    -0.274 OA
ATOM     22  H3  UNL     1     117.554  37.929  62.916  1.00  0.00     0.246 HD
ENDBRANCH  19  21
ENDBRANCH  11  19
TORSDOF 4
ENDMDL
MODEL 4
REMARK VINA RESULT: -6.314060226      5.656      6.815
REMARK  4 active torsions:
REMARK  status: ('A' for Active; 'I' for Inactive)
REMARK    1  A    between atoms: O1_2  and  C2_3 
REMARK    2  A    between atoms: C2_3  and  C3_7 
REMARK    3  A    between atoms: N5_17  and  N6_19 
REMARK    4  A    between atoms: N6_19  and  O3_21 
ROOT
HETATM    1  C3  UNL     1     119.462  39.732  62.376  1.00  0.00     0.101 A 
HETATM    2  C4  UNL     1     119.421  38.743  61.419  1.00  0.00     0.138 A 
HETATM    3  N2  UNL     1     119.995  39.044  60.145  1.00  0.00    -0.081 NA
HETATM    4  N3  UNL     1     118.857  37.526  61.671  1.00  0.00    -0.296 N 
ATOM      5  H3  UNL     1     118.832  36.799  60.955  1.00  0.00     0.171 HD
HETATM    6  C5  UNL     1     118.337  37.316  62.891  1.00  0.00     0.327 A 
HETATM    7  O2  UNL     1     117.818  36.203  63.133  1.00  0.00    -0.247 OA
HETATM    8  N4  UNL     1     118.354  38.249  63.857  1.00  0.00    -0.292 N 
ATOM      9  H4  UNL     1     117.948  38.045  64.770  1.00  0.00     0.172 HD
HETATM   10  C6  UNL     1     118.916  39.471  63.613  1.00  0.00     0.143 A 
HETATM   11  N5  UNL     1     118.961  40.398  64.492  1.00  0.00    -0.265 N 
ATOM     12  H5  UNL     1     119.387  41.299  64.279  1.00  0.00     0.190 HD
ENDROOT
BRANCH   1  13
HETATM   13  C2  UNL     1     120.079  41.033  62.067  1.00  0.00     0.153 C 
HETATM   14  N1  UNL     1     121.278  41.108  61.608  1.00  0.00    -0.379 N 
ATOM     15  H12 UNL     1     121.706  42.009  61.393  1.00  0.00     0.158 HD
ATOM     16  H11 UNL     1     121.799  40.244  61.460  1.00  0.00     0.158 HD
BRANCH  13  17
HETATM   17  O1  UNL     1     119.374  42.206  62.267  1.00  0.00    -0.340 OA
HETATM   18  C1  UNL     1     118.022  42.371  61.912  1.00  0.00     0.211 C 
ENDBRANCH  13  17
ENDBRANCH   1  13
BRANCH  11  19
HETATM   19  N6  UNL     1     118.412  40.146  65.750  1.00  0.00    -0.208 N 
ATOM     20  H6  UNL     1     119.014  39.713  66.451  1.00  0.00     0.215 HD
BRANCH  19  21
HETATM   21  O3  UNL     1     117.255  40.409  66.074  1.00  0.00    -0.274 OA
ATOM     22  H3  UNL     1     116.482  40.093  65.621  1.00  0.00     0.246 HD
ENDBRANCH  19  21
ENDBRANCH  11  19
TORSDOF 4
ENDMDL
MODEL 5
REMARK VINA RESULT: -6.269249649      2.765      4.536
REMARK  4 active torsions:
REMARK  status: ('A' for Active; 'I' for Inactive)
REMARK    1  A    between atoms: O1_2  and  C2_3 
REMARK    2  A    between atoms: C2_3  and  C3_7 
REMARK    3  A    between atoms: N5_17  and  N6_19 
REMARK    4  A    between atoms: N6_19  and  O3_21 
ROOT
HETATM    1  C3  UNL     1     116.811  41.796  65.817  1.00  0.00     0.101 A 
HETATM    2  C4  UNL     1     116.509  42.288  67.067  1.00  0.00     0.138 A 
HETATM    3  N2  UNL     1     115.615  43.401  67.131  1.00  0.00    -0.081 NA
HETATM    4  N3  UNL     1     117.037  41.740  68.200  1.00  0.00    -0.296 N 
ATOM      5  H3  UNL     1     116.807  42.112  69.121  1.00  0.00     0.171 HD
HETATM    6  C5  UNL     1     117.870  40.696  68.061  1.00  0.00     0.327 A 
HETATM    7  O2  UNL     1     118.360  40.186  69.094  1.00  0.00    -0.247 OA
HETATM    8  N4  UNL     1     118.195  40.180  66.865  1.00  0.00    -0.292 N 
ATOM      9  H4  UNL     1     118.831  39.385  66.807  1.00  0.00     0.172 HD
HETATM   10  C6  UNL     1     117.670  40.724  65.725  1.00  0.00     0.143 A 
HETATM   11  N5  UNL     1     117.942  40.277  64.559  1.00  0.00    -0.265 N 
ATOM     12  H5  UNL     1     117.535  40.704  63.727  1.00  0.00     0.190 HD
ENDROOT
BRANCH   1  13
HETATM   13  C2  UNL     1     116.220  42.413  64.618  1.00  0.00     0.153 C 
HETATM   14  N1  UNL     1     114.973  42.266  64.339  1.00  0.00    -0.379 N 
ATOM     15  H12 UNL     1     114.564  42.694  63.508  1.00  0.00     0.158 HD
ATOM     16  H11 UNL     1     114.396  41.709  64.968  1.00  0.00     0.158 HD
BRANCH  13  17
HETATM   17  O1  UNL     1     117.003  43.168  63.763  1.00  0.00    -0.340 OA
HETATM   18  C1  UNL     1     116.991  43.020  62.363  1.00  0.00     0.211 C 
ENDBRANCH  13  17
ENDBRANCH   1  13
BRANCH  11  19
HETATM   19  N6  UNL     1     118.811  39.189  64.451  1.00  0.00    -0.208 N 
ATOM     20  H6  UNL     1     119.711  39.253  64.928  1.00  0.00     0.215 HD
BRANCH  19  21
HETATM   21  O3  UNL     1     118.568  38.160  63.823  1.00  0.00    -0.274 OA
ATOM     22  H3  UNL     1     119.040  37.876  63.049  1.00  0.00     0.246 HD
ENDBRANCH  19  21
ENDBRANCH  11  19
TORSDOF 4
ENDMDL
