MODEL 1
REMARK VINA RESULT: -7.600322565      0.000      0.000
REMARK  6 active torsions:
REMARK  status: ('A' for Active; 'I' for Inactive)
REMARK    1  A    between atoms: C2_2  and  C4_4 
REMARK    2  A    between atoms: C4_4  and  O1_5 
REMARK    3  A    between atoms: C4_4  and  C5_7 
REMARK    4  A    between atoms: C5_7  and  N1_8 
REMARK       I    between atoms: N1_8  and  C6_10 
REMARK       I    between atoms: C6_10  and  N2_12 
REMARK    5  A    between atoms: N2_12  and  C7_14 
REMARK    6  A    between atoms: C10_19  and  O3_20 
ROOT
HETATM    1  C7  UNL     1      61.404 -67.144   2.217  1.00  0.00     0.146 C 
HETATM    2  C8  UNL     1      62.072 -65.828   2.079  1.00  0.00     0.115 C 
HETATM    3  S1  UNL     1      62.618 -65.490   0.359  1.00  0.00    -0.095 SA
HETATM    4  S2  UNL     1      60.771 -65.653  -0.746  1.00  0.00    -0.093 SA
HETATM    5  C9  UNL     1      59.771 -66.749   0.342  1.00  0.00     0.141 C 
HETATM    6  C10 UNL     1      60.734 -67.673   1.010  1.00  0.00     0.176 C 
HETATM    7  C11 UNL     1      59.974 -68.880   1.407  1.00  0.00     0.100 C 
HETATM    8  N3  UNL     1      59.384 -69.825   1.729  1.00  0.00    -0.194 NA
ENDROOT
BRANCH   6   9
HETATM    9  O3  UNL     1      61.712 -68.134   0.102  1.00  0.00    -0.373 OA
ATOM     10  H3  UNL     1      61.293 -68.359  -0.720  1.00  0.00     0.212 HD
ENDBRANCH   6   9
BRANCH   1  11
HETATM   11  N2  UNL     1      62.343 -68.140   2.694  1.00  0.00    -0.334 N 
HETATM   12  C6  UNL     1      62.389 -68.577   4.031  1.00  0.00     0.316 C 
HETATM   13  N1  UNL     1      63.306 -69.549   4.492  1.00  0.00    -0.341 N 
HETATM   14  O2  UNL     1      61.574 -68.075   4.845  1.00  0.00    -0.247 OA
ATOM     15  H1  UNL     1      63.968 -69.957   3.831  1.00  0.00     0.164 HD
ATOM     16  H2  UNL     1      63.003 -68.544   2.029  1.00  0.00     0.164 HD
BRANCH  13  17
HETATM   17  C5  UNL     1      63.336 -69.985   5.876  1.00  0.00     0.156 C 
BRANCH  17  18
HETATM   18  C4  UNL     1      64.726 -69.792   6.397  1.00  0.00     0.139 C 
BRANCH  18  19
HETATM   19  C2  UNL     1      64.906 -70.236   7.819  1.00  0.00     0.008 C 
HETATM   20  C1  UNL     1      66.257 -70.857   8.072  1.00  0.00     0.012 C 
HETATM   21  C3  UNL     1      63.775 -71.130   8.284  1.00  0.00     0.012 C 
ENDBRANCH  18  19
BRANCH  18  22
HETATM   22  O1  UNL     1      65.652 -70.458   5.599  1.00  0.00    -0.394 OA
ATOM     23  H1  UNL     1      65.364 -70.411   4.695  1.00  0.00     0.210 HD
ENDBRANCH  18  22
ENDBRANCH  17  18
ENDBRANCH  13  17
ENDBRANCH   1  11
TORSDOF 6
ENDMDL
MODEL 2
REMARK VINA RESULT: -7.358497807      0.700      1.113
REMARK  6 active torsions:
REMARK  status: ('A' for Active; 'I' for Inactive)
REMARK    1  A    between atoms: C2_2  and  C4_4 
REMARK    2  A    between atoms: C4_4  and  O1_5 
REMARK    3  A    between atoms: C4_4  and  C5_7 
REMARK    4  A    between atoms: C5_7  and  N1_8 
REMARK       I    between atoms: N1_8  and  C6_10 
REMARK       I    between atoms: C6_10  and  N2_12 
REMARK    5  A    between atoms: N2_12  and  C7_14 
REMARK    6  A    between atoms: C10_19  and  O3_20 
ROOT
HETATM    1  C7  UNL     1      61.029 -67.010   2.014  1.00  0.00     0.146 C 
HETATM    2  C8  UNL     1      61.817 -65.763   1.869  1.00  0.00     0.115 C 
HETATM    3  S1  UNL     1      62.558 -65.587   0.198  1.00  0.00    -0.095 SA
HETATM    4  S2  UNL     1      60.823 -65.679  -1.083  1.00  0.00    -0.093 SA
HETATM    5  C9  UNL     1      59.630 -66.617  -0.042  1.00  0.00     0.141 C 
HETATM    6  C10 UNL     1      60.439 -67.566   0.777  1.00  0.00     0.176 C 
HETATM    7  C11 UNL     1      59.544 -68.680   1.163  1.00  0.00     0.100 C 
HETATM    8  N3  UNL     1      58.846 -69.552   1.477  1.00  0.00    -0.194 NA
ENDROOT
BRANCH   6   9
HETATM    9  O3  UNL     1      61.460 -68.163   0.005  1.00  0.00    -0.373 OA
ATOM     10  H3  UNL     1      62.224 -68.302   0.552  1.00  0.00     0.212 HD
ENDBRANCH   6   9
BRANCH   1  11
HETATM   11  N2  UNL     1      61.828 -68.043   2.645  1.00  0.00    -0.334 N 
HETATM   12  C6  UNL     1      61.776 -68.322   4.023  1.00  0.00     0.316 C 
HETATM   13  N1  UNL     1      62.556 -69.330   4.634  1.00  0.00    -0.341 N 
HETATM   14  O2  UNL     1      60.997 -67.640   4.735  1.00  0.00    -0.247 OA
ATOM     15  H1  UNL     1      63.188 -69.884   4.056  1.00  0.00     0.164 HD
ATOM     16  H2  UNL     1      62.459 -68.592   2.062  1.00  0.00     0.164 HD
BRANCH  13  17
HETATM   17  C5  UNL     1      62.485 -69.600   6.059  1.00  0.00     0.156 C 
BRANCH  17  18
HETATM   18  C4  UNL     1      63.864 -69.933   6.540  1.00  0.00     0.139 C 
BRANCH  18  19
HETATM   19  C2  UNL     1      63.886 -70.880   7.703  1.00  0.00     0.008 C 
HETATM   20  C1  UNL     1      62.552 -70.987   8.397  1.00  0.00     0.012 C 
HETATM   21  C3  UNL     1      65.007 -70.565   8.673  1.00  0.00     0.012 C 
ENDBRANCH  18  19
BRANCH  18  22
HETATM   22  O1  UNL     1      64.632 -70.469   5.511  1.00  0.00    -0.394 OA
ATOM     23  H1  UNL     1      64.051 -70.811   4.842  1.00  0.00     0.210 HD
ENDBRANCH  18  22
ENDBRANCH  17  18
ENDBRANCH  13  17
ENDBRANCH   1  11
TORSDOF 6
ENDMDL
MODEL 3
REMARK VINA RESULT: -7.236771803      2.101      2.241
REMARK  6 active torsions:
REMARK  status: ('A' for Active; 'I' for Inactive)
REMARK    1  A    between atoms: C2_2  and  C4_4 
REMARK    2  A    between atoms: C4_4  and  O1_5 
REMARK    3  A    between atoms: C4_4  and  C5_7 
REMARK    4  A    between atoms: C5_7  and  N1_8 
REMARK       I    between atoms: N1_8  and  C6_10 
REMARK       I    between atoms: C6_10  and  N2_12 
REMARK    5  A    between atoms: N2_12  and  C7_14 
REMARK    6  A    between atoms: C10_19  and  O3_20 
ROOT
HETATM    1  C7  UNL     1      60.880 -68.559   3.386  1.00  0.00     0.146 C 
HETATM    2  C8  UNL     1      59.947 -67.589   4.009  1.00  0.00     0.115 C 
HETATM    3  S1  UNL     1      59.561 -66.173   2.906  1.00  0.00    -0.095 SA
HETATM    4  S2  UNL     1      58.762 -67.158   1.160  1.00  0.00    -0.093 SA
HETATM    5  C9  UNL     1      59.530 -68.825   1.277  1.00  0.00     0.141 C 
HETATM    6  C10 UNL     1      60.868 -68.630   1.910  1.00  0.00     0.176 C 
HETATM    7  C11 UNL     1      61.712 -69.777   1.506  1.00  0.00     0.100 C 
HETATM    8  N3  UNL     1      62.376 -70.677   1.200  1.00  0.00    -0.194 NA
ENDROOT
BRANCH   6   9
HETATM    9  O3  UNL     1      61.518 -67.490   1.386  1.00  0.00    -0.373 OA
ATOM     10  H3  UNL     1      61.247 -67.364   0.484  1.00  0.00     0.212 HD
ENDBRANCH   6   9
BRANCH   1  11
HETATM   11  N2  UNL     1      62.238 -68.303   3.823  1.00  0.00    -0.334 N 
HETATM   12  C6  UNL     1      62.855 -69.011   4.872  1.00  0.00     0.316 C 
HETATM   13  N1  UNL     1      64.181 -68.759   5.294  1.00  0.00    -0.341 N 
HETATM   14  O2  UNL     1      62.190 -69.904   5.453  1.00  0.00    -0.247 OA
ATOM     15  H1  UNL     1      64.721 -68.034   4.821  1.00  0.00     0.164 HD
ATOM     16  H2  UNL     1      62.773 -67.577   3.347  1.00  0.00     0.164 HD
BRANCH  13  17
HETATM   17  C5  UNL     1      64.797 -69.501   6.379  1.00  0.00     0.156 C 
BRANCH  17  18
HETATM   18  C4  UNL     1      63.997 -69.261   7.622  1.00  0.00     0.139 C 
BRANCH  18  19
HETATM   19  C2  UNL     1      64.095 -70.370   8.627  1.00  0.00     0.008 C 
HETATM   20  C1  UNL     1      65.306 -71.245   8.419  1.00  0.00     0.012 C 
HETATM   21  C3  UNL     1      62.817 -71.180   8.710  1.00  0.00     0.012 C 
ENDBRANCH  18  19
BRANCH  18  22
HETATM   22  O1  UNL     1      64.374 -68.069   8.232  1.00  0.00    -0.394 OA
ATOM     23  H1  UNL     1      63.607 -67.515   8.319  1.00  0.00     0.210 HD
ENDBRANCH  18  22
ENDBRANCH  17  18
ENDBRANCH  13  17
ENDBRANCH   1  11
TORSDOF 6
ENDMDL
MODEL 4
REMARK VINA RESULT: -7.117605760      1.089      1.121
REMARK  6 active torsions:
REMARK  status: ('A' for Active; 'I' for Inactive)
REMARK    1  A    between atoms: C2_2  and  C4_4 
REMARK    2  A    between atoms: C4_4  and  O1_5 
REMARK    3  A    between atoms: C4_4  and  C5_7 
REMARK    4  A    between atoms: C5_7  and  N1_8 
REMARK       I    between atoms: N1_8  and  C6_10 
REMARK       I    between atoms: C6_10  and  N2_12 
REMARK    5  A    between atoms: N2_12  and  C7_14 
REMARK    6  A    between atoms: C10_19  and  O3_20 
ROOT
HETATM    1  C7  UNL     1      61.560 -66.484   1.729  1.00  0.00     0.146 C 
HETATM    2  C8  UNL     1      62.328 -65.330   1.204  1.00  0.00     0.115 C 
HETATM    3  S1  UNL     1      62.771 -65.523  -0.567  1.00  0.00    -0.095 SA
HETATM    4  S2  UNL     1      60.839 -65.784  -1.495  1.00  0.00    -0.093 SA
HETATM    5  C9  UNL     1      59.832 -66.438  -0.101  1.00  0.00     0.141 C 
HETATM    6  C10 UNL     1      60.758 -67.245   0.747  1.00  0.00     0.176 C 
HETATM    7  C11 UNL     1      59.928 -68.215   1.495  1.00  0.00     0.100 C 
HETATM    8  N3  UNL     1      59.283 -68.973   2.092  1.00  0.00    -0.194 NA
ENDROOT
BRANCH   6   9
HETATM    9  O3  UNL     1      61.622 -68.031  -0.047  1.00  0.00    -0.373 OA
ATOM     10  H3  UNL     1      62.364 -67.504  -0.317  1.00  0.00     0.212 HD
ENDBRANCH   6   9
BRANCH   1  11
HETATM   11  N2  UNL     1      62.442 -67.409   2.414  1.00  0.00    -0.334 N 
HETATM   12  C6  UNL     1      62.697 -67.348   3.798  1.00  0.00     0.316 C 
HETATM   13  N1  UNL     1      63.558 -68.251   4.462  1.00  0.00    -0.341 N 
HETATM   14  O2  UNL     1      62.129 -66.446   4.463  1.00  0.00    -0.247 OA
ATOM     15  H1  UNL     1      64.018 -68.983   3.921  1.00  0.00     0.164 HD
ATOM     16  H2  UNL     1      62.901 -68.138   1.868  1.00  0.00     0.164 HD
BRANCH  13  17
HETATM   17  C5  UNL     1      63.806 -68.169   5.890  1.00  0.00     0.156 C 
BRANCH  17  18
HETATM   18  C4  UNL     1      64.452 -69.447   6.326  1.00  0.00     0.139 C 
BRANCH  18  19
HETATM   19  C2  UNL     1      63.918 -69.983   7.621  1.00  0.00     0.008 C 
HETATM   20  C1  UNL     1      64.799 -71.050   8.222  1.00  0.00     0.012 C 
HETATM   21  C3  UNL     1      62.478 -70.440   7.498  1.00  0.00     0.012 C 
ENDBRANCH  18  19
BRANCH  18  22
HETATM   22  O1  UNL     1      64.321 -70.428   5.347  1.00  0.00    -0.394 OA
ATOM     23  H1  UNL     1      63.575 -70.214   4.798  1.00  0.00     0.210 HD
ENDBRANCH  18  22
ENDBRANCH  17  18
ENDBRANCH  13  17
ENDBRANCH   1  11
TORSDOF 6
ENDMDL
MODEL 5
REMARK VINA RESULT: -7.026132213      0.909      1.244
REMARK  6 active torsions:
REMARK  status: ('A' for Active; 'I' for Inactive)
REMARK    1  A    between atoms: C2_2  and  C4_4 
REMARK    2  A    between atoms: C4_4  and  O1_5 
REMARK    3  A    between atoms: C4_4  and  C5_7 
REMARK    4  A    between atoms: C5_7  and  N1_8 
REMARK       I    between atoms: N1_8  and  C6_10 
REMARK       I    between atoms: C6_10  and  N2_12 
REMARK    5  A    between atoms: N2_12  and  C7_14 
REMARK    6  A    between atoms: C10_19  and  O3_20 
ROOT
HETATM    1  C7  UNL     1      61.376 -66.830   1.819  1.00  0.00     0.146 C 
HETATM    2  C8  UNL     1      62.174 -65.593   1.646  1.00  0.00     0.115 C 
HETATM    3  S1  UNL     1      62.655 -65.301  -0.102  1.00  0.00    -0.095 SA
HETATM    4  S2  UNL     1      60.742 -65.254  -1.100  1.00  0.00    -0.093 SA
HETATM    5  C9  UNL     1      59.692 -66.245   0.041  1.00  0.00     0.141 C 
HETATM    6  C10 UNL     1      60.586 -67.273   0.651  1.00  0.00     0.176 C 
HETATM    7  C11 UNL     1      59.724 -68.394   1.087  1.00  0.00     0.100 C 
HETATM    8  N3  UNL     1      59.053 -69.273   1.440  1.00  0.00    -0.194 NA
ENDROOT
BRANCH   6   9
HETATM    9  O3  UNL     1      61.455 -67.829  -0.314  1.00  0.00    -0.373 OA
ATOM     10  H3  UNL     1      62.277 -68.061   0.103  1.00  0.00     0.212 HD
ENDBRANCH   6   9
BRANCH   1  11
HETATM   11  N2  UNL     1      62.228 -67.926   2.238  1.00  0.00    -0.334 N 
HETATM   12  C6  UNL     1      62.283 -68.394   3.565  1.00  0.00     0.316 C 
HETATM   13  N1  UNL     1      63.114 -69.463   3.969  1.00  0.00    -0.341 N 
HETATM   14  O2  UNL     1      61.557 -67.829   4.420  1.00  0.00    -0.247 OA
ATOM     15  H1  UNL     1      63.703 -69.921   3.274  1.00  0.00     0.164 HD
ATOM     16  H2  UNL     1      62.816 -68.380   1.539  1.00  0.00     0.164 HD
BRANCH  13  17
HETATM   17  C5  UNL     1      63.155 -69.928   5.344  1.00  0.00     0.156 C 
BRANCH  17  18
HETATM   18  C4  UNL     1      64.365 -69.339   6.001  1.00  0.00     0.139 C 
BRANCH  18  19
HETATM   19  C2  UNL     1      64.135 -68.915   7.421  1.00  0.00     0.008 C 
HETATM   20  C1  UNL     1      64.000 -67.420   7.571  1.00  0.00     0.012 C 
HETATM   21  C3  UNL     1      65.174 -69.488   8.363  1.00  0.00     0.012 C 
ENDBRANCH  18  19
BRANCH  18  22
HETATM   22  O1  UNL     1      65.431 -70.233   5.968  1.00  0.00    -0.394 OA
ATOM     23  H1  UNL     1      65.109 -71.083   5.693  1.00  0.00     0.210 HD
ENDBRANCH  18  22
ENDBRANCH  17  18
ENDBRANCH  13  17
ENDBRANCH   1  11
TORSDOF 6
ENDMDL
