MODEL 1
REMARK VINA RESULT: -7.611391821      0.000      0.000
REMARK  7 active torsions:
REMARK  status: ('A' for Active; 'I' for Inactive)
REMARK    1  A    between atoms: C2_2  and  O1_3 
REMARK    2  A    between atoms: O1_3  and  C3_4 
REMARK    3  A    between atoms: C3_4  and  C4_6 
REMARK    4  A    between atoms: C5_9  and  N2_10 
REMARK    5  A    between atoms: N2_10  and  C6_12 
REMARK    6  A    between atoms: C9_17  and  N4_18 
REMARK    7  A    between atoms: N4_18  and  N5_20 
REMARK       I    between atoms: N5_20  and  C10_21 
ROOT
HETATM    1  C4  UNL     1      62.205 -67.029   5.394  1.00  0.00     0.152 A 
HETATM    2  N1  UNL     1      62.039 -66.184   6.432  1.00  0.00    -0.184 N 
ATOM      3  H1  UNL     1      61.704 -65.233   6.277  1.00  0.00     0.184 HD
HETATM    4  C5  UNL     1      62.320 -66.610   7.666  1.00  0.00     0.680 A 
HETATM    5  N3  UNL     1      62.767 -67.884   7.861  1.00  0.00    -0.173 N 
ATOM      6  H3  UNL     1      62.980 -68.203   8.807  1.00  0.00     0.186 HD
HETATM    7  C9  UNL     1      62.931 -68.721   6.827  1.00  0.00     0.173 A 
HETATM    8  C12 UNL     1      62.655 -68.327   5.533  1.00  0.00     0.126 A 
HETATM    9  N6  UNL     1      62.832 -69.217   4.440  1.00  0.00    -0.096 NA
ENDROOT
BRANCH   7  10
HETATM   10  N4  UNL     1      63.351 -69.942   6.971  1.00  0.00    -0.213 N 
ATOM     11  H4  UNL     1      62.882 -70.685   6.454  1.00  0.00     0.204 HD
BRANCH  10  12
HETATM   12  N5  UNL     1      64.357 -70.257   7.755  1.00  0.00    -0.286 NA
HETATM   13  C10 UNL     1      65.389 -70.582   8.560  1.00  0.00     0.308 C 
HETATM   14  C11 UNL     1      66.622 -71.253   7.931  1.00  0.00     0.137 C 
HETATM   15  O3  UNL     1      65.540 -70.427   9.809  1.00  0.00    -0.256 OA
ENDBRANCH  10  12
ENDBRANCH   7  10
BRANCH   4  16
HETATM   16  N2  UNL     1      62.167 -65.809   8.660  1.00  0.00    -0.222 N 
ATOM     17  H2  UNL     1      61.398 -66.021   9.296  1.00  0.00     0.178 HD
BRANCH  16  18
HETATM   18  C6  UNL     1      62.944 -64.663   8.975  1.00  0.00     0.091 C 
HETATM   19  C7  UNL     1      62.317 -63.339   8.643  1.00  0.00     0.032 C 
HETATM   20  C8  UNL     1      63.294 -64.748  10.466  1.00  0.00     0.032 C 
ENDBRANCH  16  18
ENDBRANCH   4  16
BRANCH   1  21
HETATM   21  C3  UNL     1      61.886 -66.549   4.050  1.00  0.00     0.312 C 
HETATM   22  O2  UNL     1      62.667 -65.726   3.472  1.00  0.00    -0.258 OA
BRANCH  21  23
HETATM   23  O1  UNL     1      60.769 -66.950   3.374  1.00  0.00    -0.317 OA
BRANCH  23  24
HETATM   24  C2  UNL     1      59.453 -66.704   3.891  1.00  0.00     0.175 C 
HETATM   25  C1  UNL     1      58.544 -67.868   3.605  1.00  0.00     0.034 C 
ENDBRANCH  23  24
ENDBRANCH  21  23
ENDBRANCH   1  21
TORSDOF 7
ENDMDL
MODEL 2
REMARK VINA RESULT: -7.531268852      1.045      1.097
REMARK  7 active torsions:
REMARK  status: ('A' for Active; 'I' for Inactive)
REMARK    1  A    between atoms: C2_2  and  O1_3 
REMARK    2  A    between atoms: O1_3  and  C3_4 
REMARK    3  A    between atoms: C3_4  and  C4_6 
REMARK    4  A    between atoms: C5_9  and  N2_10 
REMARK    5  A    between atoms: N2_10  and  C6_12 
REMARK    6  A    between atoms: C9_17  and  N4_18 
REMARK    7  A    between atoms: N4_18  and  N5_20 
REMARK       I    between atoms: N5_20  and  C10_21 
ROOT
HETATM    1  C4  UNL     1      61.981 -66.634   5.450  1.00  0.00     0.152 A 
HETATM    2  N1  UNL     1      61.817 -66.052   6.656  1.00  0.00    -0.184 N 
ATOM      3  H1  UNL     1      61.131 -65.309   6.783  1.00  0.00     0.184 HD
HETATM    4  C5  UNL     1      62.568 -66.465   7.681  1.00  0.00     0.680 A 
HETATM    5  N3  UNL     1      63.481 -67.461   7.499  1.00  0.00    -0.173 N 
ATOM      6  H3  UNL     1      64.050 -67.773   8.286  1.00  0.00     0.186 HD
HETATM    7  C9  UNL     1      63.640 -68.037   6.299  1.00  0.00     0.173 A 
HETATM    8  C12 UNL     1      62.890 -67.645   5.208  1.00  0.00     0.126 A 
HETATM    9  N6  UNL     1      63.063 -68.257   3.938  1.00  0.00    -0.096 NA
ENDROOT
BRANCH   7  10
HETATM   10  N4  UNL     1      64.496 -68.991   6.085  1.00  0.00    -0.213 N 
ATOM     11  H4  UNL     1      64.620 -69.332   5.132  1.00  0.00     0.204 HD
BRANCH  10  12
HETATM   12  N5  UNL     1      65.208 -69.533   7.046  1.00  0.00    -0.286 NA
HETATM   13  C10 UNL     1      65.939 -70.088   8.034  1.00  0.00     0.308 C 
HETATM   14  C11 UNL     1      65.198 -70.782   9.189  1.00  0.00     0.137 C 
HETATM   15  O3  UNL     1      67.196 -70.147   8.196  1.00  0.00    -0.256 OA
ENDBRANCH  10  12
ENDBRANCH   7  10
BRANCH   4  16
HETATM   16  N2  UNL     1      62.419 -65.913   8.833  1.00  0.00    -0.222 N 
ATOM     17  H2  UNL     1      61.927 -66.464   9.537  1.00  0.00     0.178 HD
BRANCH  16  18
HETATM   18  C6  UNL     1      62.860 -64.626   9.238  1.00  0.00     0.091 C 
HETATM   19  C7  UNL     1      61.863 -63.515   9.078  1.00  0.00     0.032 C 
HETATM   20  C8  UNL     1      63.324 -64.743  10.696  1.00  0.00     0.032 C 
ENDBRANCH  16  18
ENDBRANCH   4  16
BRANCH   1  21
HETATM   21  C3  UNL     1      61.147 -66.176   4.340  1.00  0.00     0.312 C 
HETATM   22  O2  UNL     1      61.617 -65.344   3.499  1.00  0.00    -0.258 OA
BRANCH  21  23
HETATM   23  O1  UNL     1      59.863 -66.607   4.160  1.00  0.00    -0.317 OA
BRANCH  23  24
HETATM   24  C2  UNL     1      59.576 -67.954   3.758  1.00  0.00     0.175 C 
HETATM   25  C1  UNL     1      58.113 -68.114   3.442  1.00  0.00     0.034 C 
ENDBRANCH  23  24
ENDBRANCH  21  23
ENDBRANCH   1  21
TORSDOF 7
ENDMDL
MODEL 3
REMARK VINA RESULT: -7.514451836      2.333      5.802
REMARK  7 active torsions:
REMARK  status: ('A' for Active; 'I' for Inactive)
REMARK    1  A    between atoms: C2_2  and  O1_3 
REMARK    2  A    between atoms: O1_3  and  C3_4 
REMARK    3  A    between atoms: C3_4  and  C4_6 
REMARK    4  A    between atoms: C5_9  and  N2_10 
REMARK    5  A    between atoms: N2_10  and  C6_12 
REMARK    6  A    between atoms: C9_17  and  N4_18 
REMARK    7  A    between atoms: N4_18  and  N5_20 
REMARK       I    between atoms: N5_20  and  C10_21 
ROOT
HETATM    1  C4  UNL     1      63.260 -67.184   5.608  1.00  0.00     0.152 A 
HETATM    2  N1  UNL     1      63.774 -68.204   6.325  1.00  0.00    -0.184 N 
ATOM      3  H1  UNL     1      64.160 -68.041   7.255  1.00  0.00     0.184 HD
HETATM    4  C5  UNL     1      63.771 -69.432   5.799  1.00  0.00     0.680 A 
HETATM    5  N3  UNL     1      63.252 -69.639   4.555  1.00  0.00    -0.173 N 
ATOM      6  H3  UNL     1      63.252 -70.579   4.159  1.00  0.00     0.186 HD
HETATM    7  C9  UNL     1      62.741 -68.622   3.846  1.00  0.00     0.173 A 
HETATM    8  C12 UNL     1      62.722 -67.335   4.345  1.00  0.00     0.126 A 
HETATM    9  N6  UNL     1      62.181 -66.261   3.589  1.00  0.00    -0.096 NA
ENDROOT
BRANCH   7  10
HETATM   10  N4  UNL     1      62.234 -68.777   2.659  1.00  0.00    -0.213 N 
ATOM     11  H4  UNL     1      62.863 -68.791   1.856  1.00  0.00     0.204 HD
BRANCH  10  12
HETATM   12  N5  UNL     1      60.944 -68.917   2.453  1.00  0.00    -0.286 NA
HETATM   13  C10 UNL     1      59.621 -69.062   2.242  1.00  0.00     0.308 C 
HETATM   14  C11 UNL     1      58.649 -68.272   3.133  1.00  0.00     0.137 C 
HETATM   15  O3  UNL     1      58.993 -69.769   1.396  1.00  0.00    -0.256 OA
ENDBRANCH  10  12
ENDBRANCH   7  10
BRANCH   4  16
HETATM   16  N2  UNL     1      64.263 -70.409   6.475  1.00  0.00    -0.222 N 
ATOM     17  H2  UNL     1      64.614 -71.199   5.935  1.00  0.00     0.178 HD
BRANCH  16  18
HETATM   18  C6  UNL     1      64.373 -70.514   7.887  1.00  0.00     0.091 C 
HETATM   19  C7  UNL     1      63.281 -71.287   8.569  1.00  0.00     0.032 C 
HETATM   20  C8  UNL     1      65.749 -71.121   8.191  1.00  0.00     0.032 C 
ENDBRANCH  16  18
ENDBRANCH   4  16
BRANCH   1  21
HETATM   21  C3  UNL     1      63.264 -65.848   6.201  1.00  0.00     0.312 C 
HETATM   22  O2  UNL     1      64.293 -65.108   6.081  1.00  0.00    -0.258 OA
BRANCH  21  23
HETATM   23  O1  UNL     1      62.196 -65.348   6.890  1.00  0.00    -0.317 OA
BRANCH  23  24
HETATM   24  C2  UNL     1      61.951 -65.711   8.257  1.00  0.00     0.175 C 
HETATM   25  C1  UNL     1      62.721 -64.816   9.190  1.00  0.00     0.034 C 
ENDBRANCH  23  24
ENDBRANCH  21  23
ENDBRANCH   1  21
TORSDOF 7
ENDMDL
MODEL 4
REMARK VINA RESULT: -7.514274338      2.420      4.720
REMARK  7 active torsions:
REMARK  status: ('A' for Active; 'I' for Inactive)
REMARK    1  A    between atoms: C2_2  and  O1_3 
REMARK    2  A    between atoms: O1_3  and  C3_4 
REMARK    3  A    between atoms: C3_4  and  C4_6 
REMARK    4  A    between atoms: C5_9  and  N2_10 
REMARK    5  A    between atoms: N2_10  and  C6_12 
REMARK    6  A    between atoms: C9_17  and  N4_18 
REMARK    7  A    between atoms: N4_18  and  N5_20 
REMARK       I    between atoms: N5_20  and  C10_21 
ROOT
HETATM    1  C4  UNL     1      62.641 -68.639   3.976  1.00  0.00     0.152 A 
HETATM    2  N1  UNL     1      62.948 -69.674   4.784  1.00  0.00    -0.184 N 
ATOM      3  H1  UNL     1      62.651 -70.621   4.549  1.00  0.00     0.184 HD
HETATM    4  C5  UNL     1      63.648 -69.441   5.898  1.00  0.00     0.680 A 
HETATM    5  N3  UNL     1      64.041 -68.171   6.202  1.00  0.00    -0.173 N 
ATOM      6  H3  UNL     1      64.576 -67.999   7.054  1.00  0.00     0.186 HD
HETATM    7  C9  UNL     1      63.734 -67.145   5.396  1.00  0.00     0.173 A 
HETATM    8  C12 UNL     1      63.012 -67.334   4.235  1.00  0.00     0.126 A 
HETATM    9  N6  UNL     1      62.687 -66.244   3.384  1.00  0.00    -0.096 NA
ENDROOT
BRANCH   7  10
HETATM   10  N4  UNL     1      64.091 -65.921   5.648  1.00  0.00    -0.213 N 
ATOM     11  H4  UNL     1      64.829 -65.501   5.083  1.00  0.00     0.204 HD
BRANCH  10  12
HETATM   12  N5  UNL     1      63.541 -65.204   6.601  1.00  0.00    -0.286 NA
HETATM   13  C10 UNL     1      62.975 -64.469   7.580  1.00  0.00     0.308 C 
HETATM   14  C11 UNL     1      62.928 -65.057   9.000  1.00  0.00     0.137 C 
HETATM   15  O3  UNL     1      62.444 -63.318   7.543  1.00  0.00    -0.256 OA
ENDBRANCH  10  12
ENDBRANCH   7  10
BRANCH   4  16
HETATM   16  N2  UNL     1      63.942 -70.422   6.675  1.00  0.00    -0.222 N 
ATOM     17  H2  UNL     1      64.259 -71.278   6.219  1.00  0.00     0.178 HD
BRANCH  16  18
HETATM   18  C6  UNL     1      63.877 -70.453   8.093  1.00  0.00     0.091 C 
HETATM   19  C7  UNL     1      62.761 -71.271   8.677  1.00  0.00     0.032 C 
HETATM   20  C8  UNL     1      65.241 -70.940   8.600  1.00  0.00     0.032 C 
ENDBRANCH  16  18
ENDBRANCH   4  16
BRANCH   1  21
HETATM   21  C3  UNL     1      61.881 -68.913   2.757  1.00  0.00     0.312 C 
HETATM   22  O2  UNL     1      62.456 -69.468   1.767  1.00  0.00    -0.258 OA
BRANCH  21  23
HETATM   23  O1  UNL     1      60.559 -68.594   2.630  1.00  0.00    -0.317 OA
BRANCH  23  24
HETATM   24  C2  UNL     1      59.688 -68.547   3.769  1.00  0.00     0.175 C 
HETATM   25  C1  UNL     1      58.301 -68.129   3.360  1.00  0.00     0.034 C 
ENDBRANCH  23  24
ENDBRANCH  21  23
ENDBRANCH   1  21
TORSDOF 7
ENDMDL
MODEL 5
REMARK VINA RESULT: -7.482243847      2.130      4.767
REMARK  7 active torsions:
REMARK  status: ('A' for Active; 'I' for Inactive)
REMARK    1  A    between atoms: C2_2  and  O1_3 
REMARK    2  A    between atoms: O1_3  and  C3_4 
REMARK    3  A    between atoms: C3_4  and  C4_6 
REMARK    4  A    between atoms: C5_9  and  N2_10 
REMARK    5  A    between atoms: N2_10  and  C6_12 
REMARK    6  A    between atoms: C9_17  and  N4_18 
REMARK    7  A    between atoms: N4_18  and  N5_20 
REMARK       I    between atoms: N5_20  and  C10_21 
ROOT
HETATM    1  C4  UNL     1      62.592 -67.864   5.550  1.00  0.00     0.152 A 
HETATM    2  N1  UNL     1      63.338 -68.677   6.325  1.00  0.00    -0.184 N 
ATOM      3  H1  UNL     1      63.492 -69.649   6.057  1.00  0.00     0.184 HD
HETATM    4  C5  UNL     1      63.873 -68.190   7.449  1.00  0.00     0.680 A 
HETATM    5  N3  UNL     1      63.661 -66.889   7.795  1.00  0.00    -0.173 N 
ATOM      6  H3  UNL     1      64.073 -66.523   8.654  1.00  0.00     0.186 HD
HETATM    7  C9  UNL     1      62.919 -66.083   7.023  1.00  0.00     0.173 A 
HETATM    8  C12 UNL     1      62.344 -66.539   5.853  1.00  0.00     0.126 A 
HETATM    9  N6  UNL     1      61.557 -65.682   5.038  1.00  0.00    -0.096 NA
ENDROOT
BRANCH   7  10
HETATM   10  N4  UNL     1      62.696 -64.837   7.316  1.00  0.00    -0.213 N 
ATOM     11  H4  UNL     1      62.574 -64.170   6.555  1.00  0.00     0.204 HD
BRANCH  10  12
HETATM   12  N5  UNL     1      62.622 -64.403   8.554  1.00  0.00    -0.286 NA
HETATM   13  C10 UNL     1      62.545 -63.958   9.824  1.00  0.00     0.308 C 
HETATM   14  C11 UNL     1      63.296 -64.737  10.917  1.00  0.00     0.137 C 
HETATM   15  O3  UNL     1      61.934 -62.960  10.312  1.00  0.00    -0.256 OA
ENDBRANCH  10  12
ENDBRANCH   7  10
BRANCH   4  16
HETATM   16  N2  UNL     1      64.583 -68.961   8.193  1.00  0.00    -0.222 N 
ATOM     17  H2  UNL     1      65.017 -68.526   9.008  1.00  0.00     0.178 HD
BRANCH  16  18
HETATM   18  C6  UNL     1      64.835 -70.347   8.013  1.00  0.00     0.091 C 
HETATM   19  C7  UNL     1      66.208 -70.816   8.399  1.00  0.00     0.032 C 
HETATM   20  C8  UNL     1      63.753 -71.109   8.790  1.00  0.00     0.032 C 
ENDBRANCH  16  18
ENDBRANCH   4  16
BRANCH   1  21
HETATM   21  C3  UNL     1      62.020 -68.409   4.320  1.00  0.00     0.312 C 
HETATM   22  O2  UNL     1      62.724 -68.447   3.260  1.00  0.00    -0.258 OA
BRANCH  21  23
HETATM   23  O1  UNL     1      60.743 -68.889   4.255  1.00  0.00    -0.317 OA
BRANCH  23  24
HETATM   24  C2  UNL     1      59.888 -68.593   3.141  1.00  0.00     0.175 C 
HETATM   25  C1  UNL     1      58.570 -68.042   3.614  1.00  0.00     0.034 C 
ENDBRANCH  23  24
ENDBRANCH  21  23
ENDBRANCH   1  21
TORSDOF 7
ENDMDL
