MODEL 1
REMARK VINA RESULT: -8.166366624      0.000      0.000
REMARK  6 active torsions:
REMARK  status: ('A' for Active; 'I' for Inactive)
REMARK    1  A    between atoms: C2_2  and  O1_3 
REMARK    2  A    between atoms: O1_3  and  C3_4 
REMARK    3  A    between atoms: C3_4  and  C4_6 
REMARK    4  A    between atoms: C5_7  and  N1_8 
REMARK       I    between atoms: N1_8  and  C6_10 
REMARK    5  A    between atoms: C6_10  and  C7_12 
REMARK    6  A    between atoms: C9_24  and  O5_25 
ROOT
HETATM    1  C4  UNL     1      62.671 -68.362   5.525  1.00  0.00     0.125 A 
HETATM    2  C5  UNL     1      63.077 -68.225   6.833  1.00  0.00     0.114 A 
HETATM    3  S1  UNL     1      64.246 -69.490   6.981  1.00  0.00     0.007 SA
HETATM    4  N5  UNL     1      64.168 -70.108   5.439  1.00  0.00    -0.304 N 
ATOM      5  H5  UNL     1      64.699 -70.889   5.053  1.00  0.00     0.176 HD
HETATM    6  C9  UNL     1      63.263 -69.360   4.822  1.00  0.00     0.165 A 
ENDROOT
BRANCH   2   7
HETATM    7  N1  UNL     1      62.693 -67.318   7.859  1.00  0.00    -0.312 N 
HETATM    8  C6  UNL     1      63.403 -66.091   7.992  1.00  0.00     0.292 C 
HETATM    9  O3  UNL     1      64.356 -65.833   7.200  1.00  0.00    -0.264 OA
ATOM     10  H1  UNL     1      61.922 -67.543   8.488  1.00  0.00     0.170 HD
BRANCH   8  11
HETATM   11  C7  UNL     1      63.067 -65.116   9.015  1.00  0.00     0.193 A 
HETATM   12  N2  UNL     1      62.204 -64.089   8.930  1.00  0.00    -0.277 N 
HETATM   13  N3  UNL     1      62.168 -63.418  10.079  1.00  0.00    -0.250 N 
ATOM     14  H2  UNL     1      61.654 -63.857   8.103  1.00  0.00     0.189 HD
HETATM   15  C8  UNL     1      63.026 -64.021  10.922  1.00  0.00     0.340 A 
ATOM     16  H3  UNL     1      61.596 -62.599  10.283  1.00  0.00     0.192 HD
HETATM   17  O4  UNL     1      63.283 -63.685  12.123  1.00  0.00    -0.245 OA
HETATM   18  N4  UNL     1      63.568 -65.056  10.260  1.00  0.00    -0.288 N 
ATOM     19  H4  UNL     1      64.258 -65.701  10.645  1.00  0.00     0.172 HD
ENDBRANCH   8  11
ENDBRANCH   2   7
BRANCH   1  20
HETATM   20  C3  UNL     1      61.638 -67.463   4.916  1.00  0.00     0.300 C 
HETATM   21  O2  UNL     1      61.764 -66.236   5.079  1.00  0.00    -0.259 OA
BRANCH  20  22
HETATM   22  O1  UNL     1      60.580 -67.918   4.201  1.00  0.00    -0.318 OA
BRANCH  22  23
HETATM   23  C2  UNL     1      59.467 -67.153   3.805  1.00  0.00     0.174 C 
HETATM   24  C1  UNL     1      58.291 -68.065   3.486  1.00  0.00     0.034 C 
ENDBRANCH  22  23
ENDBRANCH  20  22
ENDBRANCH   1  20
BRANCH   6  25
HETATM   25  O5  UNL     1      62.982 -69.611   3.575  1.00  0.00    -0.345 OA
ATOM     26  H5  UNL     1      62.103 -69.807   3.273  1.00  0.00     0.219 HD
ENDBRANCH   6  25
TORSDOF 6
ENDMDL
MODEL 2
REMARK VINA RESULT: -8.036710039      2.363      3.315
REMARK  6 active torsions:
REMARK  status: ('A' for Active; 'I' for Inactive)
REMARK    1  A    between atoms: C2_2  and  O1_3 
REMARK    2  A    between atoms: O1_3  and  C3_4 
REMARK    3  A    between atoms: C3_4  and  C4_6 
REMARK    4  A    between atoms: C5_7  and  N1_8 
REMARK       I    between atoms: N1_8  and  C6_10 
REMARK    5  A    between atoms: C6_10  and  C7_12 
REMARK    6  A    between atoms: C9_24  and  O5_25 
ROOT
HETATM    1  C4  UNL     1      63.661 -68.916   6.556  1.00  0.00     0.125 A 
HETATM    2  C5  UNL     1      62.836 -67.821   6.686  1.00  0.00     0.114 A 
HETATM    3  S1  UNL     1      62.170 -67.683   5.096  1.00  0.00     0.007 SA
HETATM    4  N5  UNL     1      62.940 -68.968   4.372  1.00  0.00    -0.304 N 
ATOM      5  H5  UNL     1      62.852 -69.283   3.405  1.00  0.00     0.176 HD
HETATM    6  C9  UNL     1      63.692 -69.493   5.330  1.00  0.00     0.165 A 
ENDROOT
BRANCH   2   7
HETATM    7  N1  UNL     1      62.546 -66.972   7.789  1.00  0.00    -0.312 N 
HETATM    8  C6  UNL     1      63.253 -65.742   7.912  1.00  0.00     0.292 C 
HETATM    9  O3  UNL     1      64.120 -65.431   7.044  1.00  0.00    -0.264 OA
ATOM     10  H1  UNL     1      61.845 -67.240   8.480  1.00  0.00     0.170 HD
BRANCH   8  11
HETATM   11  C7  UNL     1      63.011 -64.823   9.011  1.00  0.00     0.193 A 
HETATM   12  N2  UNL     1      62.273 -63.700   9.005  1.00  0.00    -0.277 N 
HETATM   13  N3  UNL     1      62.291 -63.128  10.207  1.00  0.00    -0.250 N 
ATOM     14  H2  UNL     1      61.770 -63.337   8.195  1.00  0.00     0.189 HD
HETATM   15  C8  UNL     1      63.057 -63.894  11.004  1.00  0.00     0.340 A 
ATOM     16  H3  UNL     1      61.813 -62.267  10.474  1.00  0.00     0.192 HD
HETATM   17  O4  UNL     1      63.327 -63.691  12.232  1.00  0.00    -0.245 OA
HETATM   18  N4  UNL     1      63.490 -64.925  10.262  1.00  0.00    -0.288 N 
ATOM     19  H4  UNL     1      64.094 -65.676  10.598  1.00  0.00     0.172 HD
ENDBRANCH   8  11
ENDBRANCH   2   7
BRANCH   1  20
HETATM   20  C3  UNL     1      64.475 -69.435   7.703  1.00  0.00     0.300 C 
HETATM   21  O2  UNL     1      65.164 -68.621   8.345  1.00  0.00    -0.259 OA
BRANCH  20  22
HETATM   22  O1  UNL     1      64.497 -70.738   8.073  1.00  0.00    -0.318 OA
BRANCH  22  23
HETATM   23  C2  UNL     1      63.573 -71.365   8.930  1.00  0.00     0.174 C 
HETATM   24  C1  UNL     1      62.152 -71.060   8.479  1.00  0.00     0.034 C 
ENDBRANCH  22  23
ENDBRANCH  20  22
ENDBRANCH   1  20
BRANCH   6  25
HETATM   25  O5  UNL     1      64.425 -70.534   5.056  1.00  0.00    -0.345 OA
ATOM     26  H5  UNL     1      64.784 -70.700   4.192  1.00  0.00     0.219 HD
ENDBRANCH   6  25
TORSDOF 6
ENDMDL
MODEL 3
REMARK VINA RESULT: -8.029229674      2.545      3.984
REMARK  6 active torsions:
REMARK  status: ('A' for Active; 'I' for Inactive)
REMARK    1  A    between atoms: C2_2  and  O1_3 
REMARK    2  A    between atoms: O1_3  and  C3_4 
REMARK    3  A    between atoms: C3_4  and  C4_6 
REMARK    4  A    between atoms: C5_7  and  N1_8 
REMARK       I    between atoms: N1_8  and  C6_10 
REMARK    5  A    between atoms: C6_10  and  C7_12 
REMARK    6  A    between atoms: C9_24  and  O5_25 
ROOT
HETATM    1  C4  UNL     1      63.852 -68.334   6.655  1.00  0.00     0.125 A 
HETATM    2  C5  UNL     1      63.883 -66.983   6.914  1.00  0.00     0.114 A 
HETATM    3  S1  UNL     1      63.742 -66.310   5.327  1.00  0.00     0.007 SA
HETATM    4  N5  UNL     1      63.654 -67.718   4.447  1.00  0.00    -0.304 N 
ATOM      5  H5  UNL     1      63.561 -67.816   3.435  1.00  0.00     0.176 HD
HETATM    6  C9  UNL     1      63.732 -68.686   5.351  1.00  0.00     0.165 A 
ENDROOT
BRANCH   2   7
HETATM    7  N1  UNL     1      63.998 -66.248   8.126  1.00  0.00    -0.312 N 
HETATM    8  C6  UNL     1      62.870 -65.516   8.594  1.00  0.00     0.292 C 
HETATM    9  O3  UNL     1      61.794 -65.533   7.928  1.00  0.00    -0.264 OA
ATOM     10  H1  UNL     1      64.873 -66.245   8.650  1.00  0.00     0.170 HD
BRANCH   8  11
HETATM   11  C7  UNL     1      62.912 -64.742   9.823  1.00  0.00     0.193 A 
HETATM   12  N2  UNL     1      63.361 -65.128  11.031  1.00  0.00    -0.277 N 
HETATM   13  N3  UNL     1      63.236 -64.136  11.909  1.00  0.00    -0.250 N 
ATOM     14  H2  UNL     1      63.743 -66.050  11.244  1.00  0.00     0.189 HD
HETATM   15  C8  UNL     1      62.695 -63.090  11.259  1.00  0.00     0.340 A 
ATOM     16  H3  UNL     1      63.501 -64.164  12.894  1.00  0.00     0.192 HD
HETATM   17  O4  UNL     1      62.415 -61.948  11.746  1.00  0.00    -0.245 OA
HETATM   18  N4  UNL     1      62.503 -63.474   9.987  1.00  0.00    -0.288 N 
ATOM     19  H4  UNL     1      62.104 -62.888   9.253  1.00  0.00     0.172 HD
ENDBRANCH   8  11
ENDBRANCH   2   7
BRANCH   1  20
HETATM   20  C3  UNL     1      63.947 -69.354   7.750  1.00  0.00     0.300 C 
HETATM   21  O2  UNL     1      63.028 -70.188   7.850  1.00  0.00    -0.259 OA
BRANCH  20  22
HETATM   22  O1  UNL     1      64.977 -69.413   8.629  1.00  0.00    -0.318 OA
BRANCH  22  23
HETATM   23  C2  UNL     1      65.599 -70.590   9.088  1.00  0.00     0.174 C 
HETATM   24  C1  UNL     1      66.435 -71.207   7.976  1.00  0.00     0.034 C 
ENDBRANCH  22  23
ENDBRANCH  20  22
ENDBRANCH   1  20
BRANCH   6  25
HETATM   25  O5  UNL     1      63.689 -69.925   4.952  1.00  0.00    -0.345 OA
ATOM     26  H5  UNL     1      64.083 -70.220   4.140  1.00  0.00     0.219 HD
ENDBRANCH   6  25
TORSDOF 6
ENDMDL
MODEL 4
REMARK VINA RESULT: -7.976361478      2.630      3.523
REMARK  6 active torsions:
REMARK  status: ('A' for Active; 'I' for Inactive)
REMARK    1  A    between atoms: C2_2  and  O1_3 
REMARK    2  A    between atoms: O1_3  and  C3_4 
REMARK    3  A    between atoms: C3_4  and  C4_6 
REMARK    4  A    between atoms: C5_7  and  N1_8 
REMARK       I    between atoms: N1_8  and  C6_10 
REMARK    5  A    between atoms: C6_10  and  C7_12 
REMARK    6  A    between atoms: C9_24  and  O5_25 
ROOT
HETATM    1  C4  UNL     1      64.126 -68.555   6.696  1.00  0.00     0.125 A 
HETATM    2  C5  UNL     1      63.849 -67.227   6.928  1.00  0.00     0.114 A 
HETATM    3  S1  UNL     1      63.269 -66.706   5.384  1.00  0.00     0.007 SA
HETATM    4  N5  UNL     1      63.399 -68.141   4.552  1.00  0.00    -0.304 N 
ATOM      5  H5  UNL     1      63.163 -68.319   3.576  1.00  0.00     0.176 HD
HETATM    6  C9  UNL     1      63.879 -69.002   5.440  1.00  0.00     0.165 A 
ENDROOT
BRANCH   2   7
HETATM    7  N1  UNL     1      63.976 -66.416   8.089  1.00  0.00    -0.312 N 
HETATM    8  C6  UNL     1      62.840 -65.686   8.544  1.00  0.00     0.292 C 
HETATM    9  O3  UNL     1      61.748 -65.772   7.909  1.00  0.00    -0.264 OA
ATOM     10  H1  UNL     1      64.864 -66.358   8.587  1.00  0.00     0.170 HD
BRANCH   8  11
HETATM   11  C7  UNL     1      62.893 -64.838   9.722  1.00  0.00     0.193 A 
HETATM   12  N2  UNL     1      63.427 -65.120  10.923  1.00  0.00    -0.277 N 
HETATM   13  N3  UNL     1      63.281 -64.086  11.748  1.00  0.00    -0.250 N 
ATOM     14  H2  UNL     1      63.879 -66.001  11.168  1.00  0.00     0.189 HD
HETATM   15  C8  UNL     1      62.640 -63.118  11.069  1.00  0.00     0.340 A 
ATOM     16  H3  UNL     1      63.596 -64.037  12.717  1.00  0.00     0.192 HD
HETATM   17  O4  UNL     1      62.310 -61.968  11.504  1.00  0.00    -0.245 OA
HETATM   18  N4  UNL     1      62.410 -63.590   9.834  1.00  0.00    -0.288 N 
ATOM     19  H4  UNL     1      61.937 -63.077   9.089  1.00  0.00     0.172 HD
ENDBRANCH   8  11
ENDBRANCH   2   7
BRANCH   1  20
HETATM   20  C3  UNL     1      64.668 -69.451   7.769  1.00  0.00     0.300 C 
HETATM   21  O2  UNL     1      65.414 -68.946   8.628  1.00  0.00    -0.259 OA
BRANCH  20  22
HETATM   22  O1  UNL     1      64.387 -70.774   7.849  1.00  0.00    -0.318 OA
BRANCH  22  23
HETATM   23  C2  UNL     1      63.370 -71.351   8.634  1.00  0.00     0.174 C 
HETATM   24  C1  UNL     1      62.021 -70.752   8.264  1.00  0.00     0.034 C 
ENDBRANCH  22  23
ENDBRANCH  20  22
ENDBRANCH   1  20
BRANCH   6  25
HETATM   25  O5  UNL     1      64.091 -70.233   5.072  1.00  0.00    -0.345 OA
ATOM     26  H5  UNL     1      63.436 -70.917   5.151  1.00  0.00     0.219 HD
ENDBRANCH   6  25
TORSDOF 6
ENDMDL
MODEL 5
REMARK VINA RESULT: -7.811484321      1.000      1.608
REMARK  6 active torsions:
REMARK  status: ('A' for Active; 'I' for Inactive)
REMARK    1  A    between atoms: C2_2  and  O1_3 
REMARK    2  A    between atoms: O1_3  and  C3_4 
REMARK    3  A    between atoms: C3_4  and  C4_6 
REMARK    4  A    between atoms: C5_7  and  N1_8 
REMARK       I    between atoms: N1_8  and  C6_10 
REMARK    5  A    between atoms: C6_10  and  C7_12 
REMARK    6  A    between atoms: C9_24  and  O5_25 
ROOT
HETATM    1  C4  UNL     1      62.670 -68.348   5.551  1.00  0.00     0.125 A 
HETATM    2  C5  UNL     1      63.092 -68.212   6.854  1.00  0.00     0.114 A 
HETATM    3  S1  UNL     1      64.277 -69.466   6.981  1.00  0.00     0.007 SA
HETATM    4  N5  UNL     1      64.185 -70.078   5.437  1.00  0.00    -0.304 N 
ATOM      5  H5  UNL     1      64.718 -70.851   5.040  1.00  0.00     0.176 HD
HETATM    6  C9  UNL     1      63.263 -69.336   4.836  1.00  0.00     0.165 A 
ENDROOT
BRANCH   2   7
HETATM    7  N1  UNL     1      62.713 -67.314   7.889  1.00  0.00    -0.312 N 
HETATM    8  C6  UNL     1      63.395 -66.069   8.002  1.00  0.00     0.292 C 
HETATM    9  O3  UNL     1      64.321 -65.788   7.185  1.00  0.00    -0.264 OA
ATOM     10  H1  UNL     1      61.966 -67.558   8.540  1.00  0.00     0.170 HD
BRANCH   8  11
HETATM   11  C7  UNL     1      63.063 -65.101   9.034  1.00  0.00     0.193 A 
HETATM   12  N2  UNL     1      62.198 -64.074   8.959  1.00  0.00    -0.277 N 
HETATM   13  N3  UNL     1      62.166 -63.412  10.113  1.00  0.00    -0.250 N 
ATOM     14  H2  UNL     1      61.645 -63.837   8.135  1.00  0.00     0.189 HD
HETATM   15  C8  UNL     1      63.027 -64.020  10.949  1.00  0.00     0.340 A 
ATOM     16  H3  UNL     1      61.595 -62.594  10.324  1.00  0.00     0.192 HD
HETATM   17  O4  UNL     1      63.288 -63.692  12.151  1.00  0.00    -0.245 OA
HETATM   18  N4  UNL     1      63.567 -65.050  10.277  1.00  0.00    -0.288 N 
ATOM     19  H4  UNL     1      64.259 -65.697  10.655  1.00  0.00     0.172 HD
ENDBRANCH   8  11
ENDBRANCH   2   7
BRANCH   1  20
HETATM   20  C3  UNL     1      61.619 -67.458   4.961  1.00  0.00     0.300 C 
HETATM   21  O2  UNL     1      60.883 -67.932   4.076  1.00  0.00    -0.259 OA
BRANCH  20  22
HETATM   22  O1  UNL     1      61.431 -66.171   5.341  1.00  0.00    -0.318 OA
BRANCH  22  23
HETATM   23  C2  UNL     1      61.594 -65.039   4.519  1.00  0.00     0.174 C 
HETATM   24  C1  UNL     1      63.032 -64.953   4.028  1.00  0.00     0.034 C 
ENDBRANCH  22  23
ENDBRANCH  20  22
ENDBRANCH   1  20
BRANCH   6  25
HETATM   25  O5  UNL     1      62.968 -69.585   3.592  1.00  0.00    -0.345 OA
ATOM     26  H5  UNL     1      62.155 -69.304   3.188  1.00  0.00     0.219 HD
ENDBRANCH   6  25
TORSDOF 6
ENDMDL
