MODEL 1
REMARK VINA RESULT: -7.742191776      0.000      0.000
REMARK  7 active torsions:
REMARK  status: ('A' for Active; 'I' for Inactive)
REMARK    1  A    between atoms: N1_1  and  C1_5 
REMARK    2  A    between atoms: C7_11  and  O1_12 
REMARK    3  A    between atoms: O1_12  and  C8_13 
REMARK    4  A    between atoms: C8_13  and  C9_15 
REMARK    5  A    between atoms: C9_15  and  O3_16 
REMARK    6  A    between atoms: C9_15  and  C10_19 
REMARK       I    between atoms: C10_19  and  N2_21 
REMARK    7  A    between atoms: N2_21  and  C11_23 
ROOT
HETATM    1  C8  UNL     1      61.054 -69.048   2.555  1.00  0.00     0.316 C 
HETATM    2  O2  UNL     1      61.992 -69.417   1.801  1.00  0.00    -0.260 OA
ENDROOT
BRANCH   1   3
HETATM    3  O1  UNL     1      61.292 -69.028   3.906  1.00  0.00    -0.310 OA
BRANCH   3   4
HETATM    4  C7  UNL     1      62.542 -68.669   4.487  1.00  0.00     0.162 C 
HETATM    5  C1  UNL     1      62.965 -69.647   5.551  1.00  0.00     0.212 C 
HETATM    6  C2  UNL     1      62.831 -69.139   6.938  1.00  0.00     0.035 C 
HETATM    7  C3  UNL     1      64.018 -68.375   7.441  1.00  0.00     0.002 C 
HETATM    8  C4  UNL     1      63.999 -66.926   6.937  1.00  0.00     0.000 C 
HETATM    9  C5  UNL     1      63.935 -66.899   5.427  1.00  0.00     0.002 C 
HETATM   10  C6  UNL     1      62.563 -67.247   4.953  1.00  0.00     0.035 C 
BRANCH   5  11
HETATM   11  N1  UNL     1      64.301 -70.161   5.345  1.00  0.00    -0.073 N 
ATOM     12  H13 UNL     1      64.825 -69.605   4.668  1.00  0.00     0.274 HD
ATOM     13  H12 UNL     1      64.899 -70.009   6.156  1.00  0.00     0.274 HD
ATOM     14  H11 UNL     1      64.254 -71.144   5.080  1.00  0.00     0.274 HD
ENDBRANCH   5  11
ENDBRANCH   3   4
ENDBRANCH   1   3
BRANCH   1  15
HETATM   15  C9  UNL     1      59.772 -68.667   1.922  1.00  0.00     0.287 C 
HETATM   16  S1  UNL     1      58.498 -68.305   3.180  1.00  0.00    -0.035 SA
BRANCH  15  17
HETATM   17  O3  UNL     1      59.319 -69.776   1.210  1.00  0.00    -0.363 OA
ATOM     18  H3  UNL     1      58.831 -69.449   0.463  1.00  0.00     0.212 HD
ENDBRANCH  15  17
BRANCH  15  19
HETATM   19  C10 UNL     1      59.882 -67.513   1.031  1.00  0.00     0.274 C 
HETATM   20  O4  UNL     1      59.179 -66.461   1.187  1.00  0.00    -0.268 OA
HETATM   21  N2  UNL     1      60.791 -67.532  -0.055  1.00  0.00    -0.353 N 
ATOM     22  H2  UNL     1      61.366 -68.362  -0.204  1.00  0.00     0.163 HD
BRANCH  21  23
HETATM   23  C11 UNL     1      60.932 -66.403  -0.966  1.00  0.00     0.084 A 
HETATM   24  C12 UNL     1      61.733 -66.504  -2.193  1.00  0.00     0.027 A 
HETATM   25  C13 UNL     1      62.237 -65.703  -1.050  1.00  0.00     0.027 A 
ENDBRANCH  21  23
ENDBRANCH  15  19
ENDBRANCH   1  15
TORSDOF 7
ENDMDL
MODEL 2
REMARK VINA RESULT: -7.693676517      2.556      7.020
REMARK  7 active torsions:
REMARK  status: ('A' for Active; 'I' for Inactive)
REMARK    1  A    between atoms: N1_1  and  C1_5 
REMARK    2  A    between atoms: C7_11  and  O1_12 
REMARK    3  A    between atoms: O1_12  and  C8_13 
REMARK    4  A    between atoms: C8_13  and  C9_15 
REMARK    5  A    between atoms: C9_15  and  O3_16 
REMARK    6  A    between atoms: C9_15  and  C10_19 
REMARK       I    between atoms: C10_19  and  N2_21 
REMARK    7  A    between atoms: N2_21  and  C11_23 
ROOT
HETATM    1  C8  UNL     1      62.702 -68.658   5.064  1.00  0.00     0.316 C 
HETATM    2  O2  UNL     1      62.273 -69.595   5.787  1.00  0.00    -0.260 OA
ENDROOT
BRANCH   1   3
HETATM    3  O1  UNL     1      62.412 -68.702   3.723  1.00  0.00    -0.310 OA
BRANCH   3   4
HETATM    4  C7  UNL     1      61.107 -68.929   3.201  1.00  0.00     0.162 C 
HETATM    5  C1  UNL     1      61.110 -68.993   1.696  1.00  0.00     0.212 C 
HETATM    6  C2  UNL     1      60.540 -67.797   1.030  1.00  0.00     0.035 C 
HETATM    7  C3  UNL     1      59.055 -67.838   0.836  1.00  0.00     0.002 C 
HETATM    8  C4  UNL     1      58.316 -67.443   2.121  1.00  0.00     0.000 C 
HETATM    9  C5  UNL     1      58.739 -68.337   3.263  1.00  0.00     0.002 C 
HETATM   10  C6  UNL     1      60.101 -67.963   3.746  1.00  0.00     0.035 C 
BRANCH   5  11
HETATM   11  N1  UNL     1      60.478 -70.187   1.182  1.00  0.00    -0.073 N 
ATOM     12  H13 UNL     1      59.796 -69.976   0.453  1.00  0.00     0.274 HD
ATOM     13  H12 UNL     1      61.120 -70.751   0.625  1.00  0.00     0.274 HD
ATOM     14  H11 UNL     1      60.067 -70.718   1.949  1.00  0.00     0.274 HD
ENDBRANCH   5  11
ENDBRANCH   3   4
ENDBRANCH   1   3
BRANCH   1  15
HETATM   15  C9  UNL     1      63.483 -67.586   5.719  1.00  0.00     0.287 C 
HETATM   16  S1  UNL     1      62.424 -66.156   6.131  1.00  0.00    -0.035 SA
BRANCH  15  17
HETATM   17  O3  UNL     1      64.416 -67.131   4.790  1.00  0.00    -0.363 OA
ATOM     18  H3  UNL     1      65.228 -67.595   4.958  1.00  0.00     0.212 HD
ENDBRANCH  15  17
BRANCH  15  19
HETATM   19  C10 UNL     1      64.164 -68.022   6.937  1.00  0.00     0.274 C 
HETATM   20  O4  UNL     1      64.228 -67.294   7.982  1.00  0.00    -0.268 OA
HETATM   21  N2  UNL     1      64.787 -69.293   6.993  1.00  0.00    -0.353 N 
ATOM     22  H2  UNL     1      64.752 -69.896   6.171  1.00  0.00     0.163 HD
BRANCH  21  23
HETATM   23  C11 UNL     1      65.475 -69.765   8.187  1.00  0.00     0.084 A 
HETATM   24  C12 UNL     1      66.243 -71.018   8.183  1.00  0.00     0.027 A 
HETATM   25  C13 UNL     1      64.946 -70.953   8.902  1.00  0.00     0.027 A 
ENDBRANCH  21  23
ENDBRANCH  15  19
ENDBRANCH   1  15
TORSDOF 7
ENDMDL
MODEL 3
REMARK VINA RESULT: -7.503543368      1.762      2.119
REMARK  7 active torsions:
REMARK  status: ('A' for Active; 'I' for Inactive)
REMARK    1  A    between atoms: N1_1  and  C1_5 
REMARK    2  A    between atoms: C7_11  and  O1_12 
REMARK    3  A    between atoms: O1_12  and  C8_13 
REMARK    4  A    between atoms: C8_13  and  C9_15 
REMARK    5  A    between atoms: C9_15  and  O3_16 
REMARK    6  A    between atoms: C9_15  and  C10_19 
REMARK       I    between atoms: C10_19  and  N2_21 
REMARK    7  A    between atoms: N2_21  and  C11_23 
ROOT
HETATM    1  C8  UNL     1      61.534 -68.906   2.246  1.00  0.00     0.316 C 
HETATM    2  O2  UNL     1      62.278 -69.801   1.767  1.00  0.00    -0.260 OA
ENDROOT
BRANCH   1   3
HETATM    3  O1  UNL     1      61.507 -68.762   3.611  1.00  0.00    -0.310 OA
BRANCH   3   4
HETATM    4  C7  UNL     1      62.669 -68.579   4.413  1.00  0.00     0.162 C 
HETATM    5  C1  UNL     1      62.928 -69.765   5.304  1.00  0.00     0.212 C 
HETATM    6  C2  UNL     1      62.610 -69.538   6.735  1.00  0.00     0.035 C 
HETATM    7  C3  UNL     1      63.726 -68.939   7.535  1.00  0.00     0.002 C 
HETATM    8  C4  UNL     1      63.797 -67.419   7.337  1.00  0.00     0.000 C 
HETATM    9  C5  UNL     1      63.944 -67.091   5.869  1.00  0.00     0.002 C 
HETATM   10  C6  UNL     1      62.645 -67.280   5.157  1.00  0.00     0.035 C 
BRANCH   5  11
HETATM   11  N1  UNL     1      64.271 -70.283   5.177  1.00  0.00    -0.073 N 
ATOM     12  H13 UNL     1      64.280 -71.290   5.012  1.00  0.00     0.274 HD
ATOM     13  H12 UNL     1      64.716 -69.987   4.308  1.00  0.00     0.274 HD
ATOM     14  H11 UNL     1      64.819 -70.023   5.997  1.00  0.00     0.274 HD
ENDBRANCH   5  11
ENDBRANCH   3   4
ENDBRANCH   1   3
BRANCH   1  15
HETATM   15  C9  UNL     1      60.750 -68.083   1.300  1.00  0.00     0.287 C 
HETATM   16  S1  UNL     1      59.033 -68.691   1.163  1.00  0.00    -0.035 SA
BRANCH  15  17
HETATM   17  O3  UNL     1      61.326 -68.242   0.041  1.00  0.00    -0.363 OA
ATOM     18  H3  UNL     1      60.630 -68.153  -0.599  1.00  0.00     0.212 HD
ENDBRANCH  15  17
BRANCH  15  19
HETATM   19  C10 UNL     1      60.711 -66.665   1.655  1.00  0.00     0.274 C 
HETATM   20  O4  UNL     1      59.622 -66.004   1.706  1.00  0.00    -0.268 OA
HETATM   21  N2  UNL     1      61.907 -65.970   1.957  1.00  0.00    -0.353 N 
ATOM     22  H2  UNL     1      62.793 -66.474   1.923  1.00  0.00     0.163 HD
BRANCH  21  23
HETATM   23  C11 UNL     1      61.912 -64.558   2.315  1.00  0.00     0.084 A 
HETATM   24  C12 UNL     1      62.985 -63.658   1.869  1.00  0.00     0.027 A 
HETATM   25  C13 UNL     1      62.913 -64.065   3.294  1.00  0.00     0.027 A 
ENDBRANCH  21  23
ENDBRANCH  15  19
ENDBRANCH   1  15
TORSDOF 7
ENDMDL
MODEL 4
REMARK VINA RESULT: -7.486948363      1.394      1.994
REMARK  7 active torsions:
REMARK  status: ('A' for Active; 'I' for Inactive)
REMARK    1  A    between atoms: N1_1  and  C1_5 
REMARK    2  A    between atoms: C7_11  and  O1_12 
REMARK    3  A    between atoms: O1_12  and  C8_13 
REMARK    4  A    between atoms: C8_13  and  C9_15 
REMARK    5  A    between atoms: C9_15  and  O3_16 
REMARK    6  A    between atoms: C9_15  and  C10_19 
REMARK       I    between atoms: C10_19  and  N2_21 
REMARK    7  A    between atoms: N2_21  and  C11_23 
ROOT
HETATM    1  C8  UNL     1      60.534 -69.484   1.699  1.00  0.00     0.316 C 
HETATM    2  O2  UNL     1      60.570 -70.720   1.466  1.00  0.00    -0.260 OA
ENDROOT
BRANCH   1   3
HETATM    3  O1  UNL     1      61.654 -68.903   2.237  1.00  0.00    -0.310 OA
BRANCH   3   4
HETATM    4  C7  UNL     1      61.798 -68.584   3.618  1.00  0.00     0.162 C 
HETATM    5  C1  UNL     1      62.041 -67.113   3.830  1.00  0.00     0.212 C 
HETATM    6  C2  UNL     1      63.436 -66.770   4.200  1.00  0.00     0.035 C 
HETATM    7  C3  UNL     1      63.726 -66.832   5.669  1.00  0.00     0.002 C 
HETATM    8  C4  UNL     1      63.989 -68.274   6.121  1.00  0.00     0.000 C 
HETATM    9  C5  UNL     1      62.816 -69.156   5.761  1.00  0.00     0.002 C 
HETATM   10  C6  UNL     1      62.811 -69.451   4.298  1.00  0.00     0.035 C 
BRANCH   5  11
HETATM   11  N1  UNL     1      61.123 -66.521   4.777  1.00  0.00    -0.073 N 
ATOM     12  H13 UNL     1      60.995 -65.522   4.614  1.00  0.00     0.274 HD
ATOM     13  H12 UNL     1      60.161 -66.822   4.619  1.00  0.00     0.274 HD
ATOM     14  H11 UNL     1      61.435 -66.717   5.728  1.00  0.00     0.274 HD
ENDBRANCH   5  11
ENDBRANCH   3   4
ENDBRANCH   1   3
BRANCH   1  15
HETATM   15  C9  UNL     1      59.286 -68.758   1.373  1.00  0.00     0.287 C 
HETATM   16  S1  UNL     1      58.396 -68.263   2.889  1.00  0.00    -0.035 SA
BRANCH  15  17
HETATM   17  O3  UNL     1      58.454 -69.652   0.701  1.00  0.00    -0.363 OA
ATOM     18  H3  UNL     1      57.794 -69.940   1.320  1.00  0.00     0.212 HD
ENDBRANCH  15  17
BRANCH  15  19
HETATM   19  C10 UNL     1      59.502 -67.566   0.555  1.00  0.00     0.274 C 
HETATM   20  O4  UNL     1      58.658 -66.612   0.502  1.00  0.00    -0.268 OA
HETATM   21  N2  UNL     1      60.679 -67.435  -0.222  1.00  0.00    -0.353 N 
ATOM     22  H2  UNL     1      61.371 -68.184  -0.200  1.00  0.00     0.163 HD
BRANCH  21  23
HETATM   23  C11 UNL     1      60.933 -66.263  -1.051  1.00  0.00     0.084 A 
HETATM   24  C12 UNL     1      61.581 -66.380  -2.364  1.00  0.00     0.027 A 
HETATM   25  C13 UNL     1      62.329 -65.792  -1.226  1.00  0.00     0.027 A 
ENDBRANCH  21  23
ENDBRANCH  15  19
ENDBRANCH   1  15
TORSDOF 7
ENDMDL
MODEL 5
REMARK VINA RESULT: -7.407577891      2.286      6.900
REMARK  7 active torsions:
REMARK  status: ('A' for Active; 'I' for Inactive)
REMARK    1  A    between atoms: N1_1  and  C1_5 
REMARK    2  A    between atoms: C7_11  and  O1_12 
REMARK    3  A    between atoms: O1_12  and  C8_13 
REMARK    4  A    between atoms: C8_13  and  C9_15 
REMARK    5  A    between atoms: C9_15  and  O3_16 
REMARK    6  A    between atoms: C9_15  and  C10_19 
REMARK       I    between atoms: C10_19  and  N2_21 
REMARK    7  A    between atoms: N2_21  and  C11_23 
ROOT
HETATM    1  C8  UNL     1      62.271 -68.659   4.449  1.00  0.00     0.316 C 
HETATM    2  O2  UNL     1      62.956 -69.572   3.918  1.00  0.00    -0.260 OA
ENDROOT
BRANCH   1   3
HETATM    3  O1  UNL     1      60.922 -68.645   4.195  1.00  0.00    -0.310 OA
BRANCH   3   4
HETATM    4  C7  UNL     1      60.359 -68.717   2.889  1.00  0.00     0.162 C 
HETATM    5  C1  UNL     1      61.089 -67.831   1.915  1.00  0.00     0.212 C 
HETATM    6  C2  UNL     1      60.353 -66.600   1.536  1.00  0.00     0.035 C 
HETATM    7  C3  UNL     1      59.412 -66.765   0.382  1.00  0.00     0.002 C 
HETATM    8  C4  UNL     1      58.085 -67.388   0.834  1.00  0.00     0.000 C 
HETATM    9  C5  UNL     1      58.336 -68.709   1.524  1.00  0.00     0.002 C 
HETATM   10  C6  UNL     1      58.879 -68.489   2.896  1.00  0.00     0.035 C 
BRANCH   5  11
HETATM   11  N1  UNL     1      61.515 -68.532   0.725  1.00  0.00    -0.073 N 
ATOM     12  H13 UNL     1      61.270 -68.026  -0.126  1.00  0.00     0.274 HD
ATOM     13  H12 UNL     1      62.529 -68.521   0.617  1.00  0.00     0.274 HD
ATOM     14  H11 UNL     1      61.140 -69.480   0.730  1.00  0.00     0.274 HD
ENDBRANCH   5  11
ENDBRANCH   3   4
ENDBRANCH   1   3
BRANCH   1  15
HETATM   15  C9  UNL     1      62.975 -67.677   5.302  1.00  0.00     0.287 C 
HETATM   16  S1  UNL     1      61.972 -66.169   5.537  1.00  0.00    -0.035 SA
BRANCH  15  17
HETATM   17  O3  UNL     1      64.123 -67.285   4.616  1.00  0.00    -0.363 OA
ATOM     18  H3  UNL     1      63.841 -66.767   3.871  1.00  0.00     0.212 HD
ENDBRANCH  15  17
BRANCH  15  19
HETATM   19  C10 UNL     1      63.336 -68.201   6.618  1.00  0.00     0.274 C 
HETATM   20  O4  UNL     1      63.981 -67.512   7.475  1.00  0.00    -0.268 OA
HETATM   21  N2  UNL     1      62.973 -69.520   6.987  1.00  0.00    -0.353 N 
ATOM     22  H2  UNL     1      62.457 -70.095   6.321  1.00  0.00     0.163 HD
BRANCH  21  23
HETATM   23  C11 UNL     1      63.313 -70.080   8.289  1.00  0.00     0.084 A 
HETATM   24  C12 UNL     1      64.063 -71.338   8.409  1.00  0.00     0.027 A 
HETATM   25  C13 UNL     1      62.618 -71.308   8.749  1.00  0.00     0.027 A 
ENDBRANCH  21  23
ENDBRANCH  15  19
ENDBRANCH   1  15
TORSDOF 7
ENDMDL
