MODEL 1
REMARK VINA RESULT: -8.386639050      0.000      0.000
REMARK  5 active torsions:
REMARK  status: ('A' for Active; 'I' for Inactive)
REMARK    1  A    between atoms: C3_3  and  C4_4 
REMARK       I    between atoms: C4_4  and  N1_6 
REMARK    2  A    between atoms: N1_6  and  C5_7 
REMARK    3  A    between atoms: N1_6  and  C9_12 
REMARK    4  A    between atoms: C5_7  and  C6_8 
REMARK    5  A    between atoms: C11_19  and  O3_20 
ROOT
HETATM    1  C6  UNL     1      62.641 -68.485   2.836  1.00  0.00     0.107 C 
HETATM    2  C7  UNL     1      62.380 -67.182   2.130  1.00  0.00     0.027 C 
HETATM    3  C8  UNL     1      62.351 -69.601   1.915  1.00  0.00     0.065 C 
HETATM    4  N2  UNL     1      62.136 -70.475   1.179  1.00  0.00    -0.197 NA
ENDROOT
BRANCH   1   5
HETATM    5  C5  UNL     1      61.857 -68.699   4.078  1.00  0.00     0.153 C 
BRANCH   5   6
HETATM    6  N1  UNL     1      62.480 -68.263   5.301  1.00  0.00    -0.293 N 
HETATM    7  C4  UNL     1      62.189 -67.010   5.845  1.00  0.00     0.286 C 
HETATM    8  O1  UNL     1      61.341 -66.274   5.294  1.00  0.00    -0.265 OA
BRANCH   7   9
HETATM    9  C3  UNL     1      62.870 -66.554   7.053  1.00  0.00     0.178 A 
HETATM   10  C2  UNL     1      62.330 -65.608   7.921  1.00  0.00     0.049 A 
HETATM   11  C1  UNL     1      61.025 -64.926   7.775  1.00  0.00     0.057 C 
HETATM   12  C12 UNL     1      63.255 -65.447   8.924  1.00  0.00     0.274 A 
HETATM   13  N5  UNL     1      64.260 -66.265   8.626  1.00  0.00    -0.225 N 
HETATM   14  O5  UNL     1      63.129 -64.659   9.919  1.00  0.00    -0.266 OA
HETATM   15  O4  UNL     1      64.032 -66.914   7.529  1.00  0.00    -0.229 OA
ATOM     16  H5  UNL     1      65.104 -66.369   9.189  1.00  0.00     0.198 HD
ENDBRANCH   7   9
BRANCH   6  17
HETATM   17  C9  UNL     1      63.403 -69.128   5.931  1.00  0.00     0.166 A 
HETATM   18  N3  UNL     1      64.753 -69.143   5.759  1.00  0.00    -0.291 N 
HETATM   19  C10 UNL     1      65.326 -70.088   6.525  1.00  0.00     0.328 A 
ATOM     20  H3  UNL     1      65.262 -68.521   5.132  1.00  0.00     0.172 HD
HETATM   21  O2  UNL     1      66.573 -70.327   6.567  1.00  0.00    -0.247 OA
HETATM   22  N4  UNL     1      64.334 -70.682   7.195  1.00  0.00    -0.286 N 
HETATM   23  C11 UNL     1      63.150 -70.135   6.868  1.00  0.00     0.189 A 
ATOM     24  H4  UNL     1      64.458 -71.444   7.861  1.00  0.00     0.172 HD
BRANCH  23  25
HETATM   25  O3  UNL     1      61.935 -70.508   7.370  1.00  0.00    -0.343 OA
ATOM     26  H3  UNL     1      61.568 -70.277   8.216  1.00  0.00     0.219 HD
ENDBRANCH  23  25
ENDBRANCH   6  17
ENDBRANCH   5   6
ENDBRANCH   1   5
TORSDOF 5
ENDMDL
MODEL 2
REMARK VINA RESULT: -8.260590681      1.866      5.080
REMARK  5 active torsions:
REMARK  status: ('A' for Active; 'I' for Inactive)
REMARK    1  A    between atoms: C3_3  and  C4_4 
REMARK       I    between atoms: C4_4  and  N1_6 
REMARK    2  A    between atoms: N1_6  and  C5_7 
REMARK    3  A    between atoms: N1_6  and  C9_12 
REMARK    4  A    between atoms: C5_7  and  C6_8 
REMARK    5  A    between atoms: C11_19  and  O3_20 
ROOT
HETATM    1  C6  UNL     1      63.249 -65.459   8.039  1.00  0.00     0.107 C 
HETATM    2  C7  UNL     1      63.773 -65.423   9.449  1.00  0.00     0.027 C 
HETATM    3  C8  UNL     1      62.621 -64.163   7.723  1.00  0.00     0.065 C 
HETATM    4  N2  UNL     1      62.142 -63.133   7.475  1.00  0.00    -0.197 NA
ENDROOT
BRANCH   1   5
HETATM    5  C5  UNL     1      62.258 -66.529   7.761  1.00  0.00     0.153 C 
BRANCH   5   6
HETATM    6  N1  UNL     1      62.509 -67.335   6.594  1.00  0.00    -0.293 N 
HETATM    7  C4  UNL     1      61.924 -67.019   5.366  1.00  0.00     0.286 C 
HETATM    8  O1  UNL     1      61.211 -65.997   5.261  1.00  0.00    -0.265 OA
BRANCH   7   9
HETATM    9  C3  UNL     1      62.140 -67.876   4.204  1.00  0.00     0.178 A 
HETATM   10  C2  UNL     1      61.103 -68.501   3.516  1.00  0.00     0.049 A 
HETATM   11  C1  UNL     1      59.660 -68.411   3.830  1.00  0.00     0.057 C 
HETATM   12  C12 UNL     1      61.699 -69.208   2.500  1.00  0.00     0.274 A 
HETATM   13  N5  UNL     1      63.006 -68.985   2.620  1.00  0.00    -0.225 N 
HETATM   14  O5  UNL     1      61.082 -69.920   1.640  1.00  0.00    -0.266 OA
HETATM   15  O4  UNL     1      63.261 -68.203   3.619  1.00  0.00    -0.229 OA
ATOM     16  H5  UNL     1      63.716 -69.379   2.002  1.00  0.00     0.198 HD
ENDBRANCH   7   9
BRANCH   6  17
HETATM   17  C9  UNL     1      63.353 -68.462   6.724  1.00  0.00     0.166 A 
HETATM   18  N3  UNL     1      64.553 -68.655   6.113  1.00  0.00    -0.291 N 
HETATM   19  C10 UNL     1      65.092 -69.833   6.472  1.00  0.00     0.328 A 
ATOM     20  H3  UNL     1      64.986 -67.994   5.469  1.00  0.00     0.172 HD
HETATM   21  O2  UNL     1      66.209 -70.275   6.056  1.00  0.00    -0.247 OA
HETATM   22  N4  UNL     1      64.230 -70.400   7.321  1.00  0.00    -0.286 N 
HETATM   23  C11 UNL     1      63.159 -69.607   7.505  1.00  0.00     0.189 A 
ATOM     24  H4  UNL     1      64.364 -71.306   7.767  1.00  0.00     0.172 HD
BRANCH  23  25
HETATM   25  O3  UNL     1      62.091 -69.885   8.311  1.00  0.00    -0.343 OA
ATOM     26  H3  UNL     1      62.015 -69.713   9.242  1.00  0.00     0.219 HD
ENDBRANCH  23  25
ENDBRANCH   6  17
ENDBRANCH   5   6
ENDBRANCH   1   5
TORSDOF 5
ENDMDL
MODEL 3
REMARK VINA RESULT: -8.208832435      4.192      6.853
REMARK  5 active torsions:
REMARK  status: ('A' for Active; 'I' for Inactive)
REMARK    1  A    between atoms: C3_3  and  C4_4 
REMARK       I    between atoms: C4_4  and  N1_6 
REMARK    2  A    between atoms: N1_6  and  C5_7 
REMARK    3  A    between atoms: N1_6  and  C9_12 
REMARK    4  A    between atoms: C5_7  and  C6_8 
REMARK    5  A    between atoms: C11_19  and  O3_20 
ROOT
HETATM    1  C6  UNL     1      58.454 -68.208   2.825  1.00  0.00     0.107 C 
HETATM    2  C7  UNL     1      59.378 -68.756   3.879  1.00  0.00     0.027 C 
HETATM    3  C8  UNL     1      58.493 -69.089   1.643  1.00  0.00     0.065 C 
HETATM    4  N2  UNL     1      58.516 -69.797   0.721  1.00  0.00    -0.197 NA
ENDROOT
BRANCH   1   5
HETATM    5  C5  UNL     1      58.757 -66.825   2.377  1.00  0.00     0.153 C 
BRANCH   5   6
HETATM    6  N1  UNL     1      59.918 -66.673   1.539  1.00  0.00    -0.293 N 
HETATM    7  C4  UNL     1      59.800 -66.192   0.232  1.00  0.00     0.286 C 
HETATM    8  O1  UNL     1      58.681 -65.843  -0.203  1.00  0.00    -0.265 OA
BRANCH   7   9
HETATM    9  C3  UNL     1      60.976 -66.096  -0.627  1.00  0.00     0.178 A 
HETATM   10  C2  UNL     1      61.835 -65.001  -0.623  1.00  0.00     0.049 A 
HETATM   11  C1  UNL     1      61.712 -63.790   0.220  1.00  0.00     0.057 C 
HETATM   12  C12 UNL     1      62.806 -65.281  -1.553  1.00  0.00     0.274 A 
HETATM   13  N5  UNL     1      62.499 -66.476  -2.050  1.00  0.00    -0.225 N 
HETATM   14  O5  UNL     1      63.785 -64.517  -1.847  1.00  0.00    -0.266 OA
HETATM   15  O4  UNL     1      61.426 -66.952  -1.506  1.00  0.00    -0.229 OA
ATOM     16  H5  UNL     1      63.040 -66.956  -2.770  1.00  0.00     0.198 HD
ENDBRANCH   7   9
BRANCH   6  17
HETATM   17  C9  UNL     1      61.179 -67.033   2.065  1.00  0.00     0.166 A 
HETATM   18  N3  UNL     1      61.862 -66.395   3.054  1.00  0.00    -0.291 N 
HETATM   19  C10 UNL     1      63.025 -67.016   3.315  1.00  0.00     0.328 A 
ATOM     20  H3  UNL     1      61.534 -65.556   3.533  1.00  0.00     0.172 HD
HETATM   21  O2  UNL     1      63.865 -66.640   4.191  1.00  0.00    -0.247 OA
HETATM   22  N4  UNL     1      63.088 -68.062   2.487  1.00  0.00    -0.286 N 
HETATM   23  C11 UNL     1      61.992 -68.115   1.709  1.00  0.00     0.189 A 
ATOM     24  H4  UNL     1      63.859 -68.728   2.450  1.00  0.00     0.172 HD
BRANCH  23  25
HETATM   25  O3  UNL     1      61.738 -69.058   0.754  1.00  0.00    -0.343 OA
ATOM     26  H3  UNL     1      62.079 -69.945   0.718  1.00  0.00     0.219 HD
ENDBRANCH  23  25
ENDBRANCH   6  17
ENDBRANCH   5   6
ENDBRANCH   1   5
TORSDOF 5
ENDMDL
MODEL 4
REMARK VINA RESULT: -8.180712267      1.004      1.621
REMARK  5 active torsions:
REMARK  status: ('A' for Active; 'I' for Inactive)
REMARK    1  A    between atoms: C3_3  and  C4_4 
REMARK       I    between atoms: C4_4  and  N1_6 
REMARK    2  A    between atoms: N1_6  and  C5_7 
REMARK    3  A    between atoms: N1_6  and  C9_12 
REMARK    4  A    between atoms: C5_7  and  C6_8 
REMARK    5  A    between atoms: C11_19  and  O3_20 
ROOT
HETATM    1  C6  UNL     1      62.531 -68.546   2.921  1.00  0.00     0.107 C 
HETATM    2  C7  UNL     1      62.268 -67.275   2.158  1.00  0.00     0.027 C 
HETATM    3  C8  UNL     1      62.356 -69.698   2.017  1.00  0.00     0.065 C 
HETATM    4  N2  UNL     1      62.232 -70.601   1.295  1.00  0.00    -0.197 NA
ENDROOT
BRANCH   1   5
HETATM    5  C5  UNL     1      61.668 -68.759   4.110  1.00  0.00     0.153 C 
BRANCH   5   6
HETATM    6  N1  UNL     1      62.222 -68.350   5.374  1.00  0.00    -0.293 N 
HETATM    7  C4  UNL     1      62.308 -66.997   5.713  1.00  0.00     0.286 C 
HETATM    8  O1  UNL     1      61.856 -66.130   4.934  1.00  0.00    -0.265 OA
BRANCH   7   9
HETATM    9  C3  UNL     1      62.925 -66.591   6.973  1.00  0.00     0.178 A 
HETATM   10  C2  UNL     1      62.384 -65.614   7.805  1.00  0.00     0.049 A 
HETATM   11  C1  UNL     1      61.140 -64.848   7.567  1.00  0.00     0.057 C 
HETATM   12  C12 UNL     1      63.239 -65.516   8.875  1.00  0.00     0.274 A 
HETATM   13  N5  UNL     1      64.209 -66.398   8.647  1.00  0.00    -0.225 N 
HETATM   14  O5  UNL     1      63.091 -64.724   9.864  1.00  0.00    -0.266 OA
HETATM   15  O4  UNL     1      64.023 -67.027   7.531  1.00  0.00    -0.229 OA
ATOM     16  H5  UNL     1      65.000 -66.558   9.271  1.00  0.00     0.198 HD
ENDBRANCH   7   9
BRANCH   6  17
HETATM   17  C9  UNL     1      62.689 -69.348   6.259  1.00  0.00     0.166 A 
HETATM   18  N3  UNL     1      62.162 -69.673   7.471  1.00  0.00    -0.291 N 
HETATM   19  C10 UNL     1      62.848 -70.679   8.040  1.00  0.00     0.328 A 
ATOM     20  H3  UNL     1      61.354 -69.214   7.891  1.00  0.00     0.172 HD
HETATM   21  O2  UNL     1      62.579 -71.188   9.173  1.00  0.00    -0.247 OA
HETATM   22  N4  UNL     1      63.822 -71.003   7.185  1.00  0.00    -0.286 N 
HETATM   23  C11 UNL     1      63.767 -70.223   6.090  1.00  0.00     0.189 A 
ATOM     24  H4  UNL     1      64.511 -71.738   7.340  1.00  0.00     0.172 HD
BRANCH  23  25
HETATM   25  O3  UNL     1      64.617 -70.290   5.022  1.00  0.00    -0.343 OA
ATOM     26  H3  UNL     1      65.231 -69.624   4.736  1.00  0.00     0.219 HD
ENDBRANCH  23  25
ENDBRANCH   6  17
ENDBRANCH   5   6
ENDBRANCH   1   5
TORSDOF 5
ENDMDL
MODEL 5
REMARK VINA RESULT: -8.116360119      4.033      6.347
REMARK  5 active torsions:
REMARK  status: ('A' for Active; 'I' for Inactive)
REMARK    1  A    between atoms: C3_3  and  C4_4 
REMARK       I    between atoms: C4_4  and  N1_6 
REMARK    2  A    between atoms: N1_6  and  C5_7 
REMARK    3  A    between atoms: N1_6  and  C9_12 
REMARK    4  A    between atoms: C5_7  and  C6_8 
REMARK    5  A    between atoms: C11_19  and  O3_20 
ROOT
HETATM    1  C6  UNL     1      60.588 -65.508  -1.600  1.00  0.00     0.107 C 
HETATM    2  C7  UNL     1      61.919 -65.550  -2.302  1.00  0.00     0.027 C 
HETATM    3  C8  UNL     1      59.657 -64.669  -2.379  1.00  0.00     0.065 C 
HETATM    4  N2  UNL     1      58.924 -64.020  -3.006  1.00  0.00    -0.197 NA
ENDROOT
BRANCH   1   5
HETATM    5  C5  UNL     1      60.622 -64.988  -0.210  1.00  0.00     0.153 C 
BRANCH   5   6
HETATM    6  N1  UNL     1      60.976 -65.939   0.811  1.00  0.00    -0.293 N 
HETATM    7  C4  UNL     1      62.246 -65.927   1.392  1.00  0.00     0.286 C 
HETATM    8  O1  UNL     1      63.074 -65.049   1.060  1.00  0.00    -0.265 OA
BRANCH   7   9
HETATM    9  C3  UNL     1      62.613 -66.932   2.385  1.00  0.00     0.178 A 
HETATM   10  C2  UNL     1      62.906 -66.621   3.711  1.00  0.00     0.049 A 
HETATM   11  C1  UNL     1      62.897 -65.273   4.320  1.00  0.00     0.057 C 
HETATM   12  C12 UNL     1      63.200 -67.817   4.320  1.00  0.00     0.274 A 
HETATM   13  N5  UNL     1      63.076 -68.746   3.376  1.00  0.00    -0.225 N 
HETATM   14  O5  UNL     1      63.522 -67.956   5.547  1.00  0.00    -0.266 OA
HETATM   15  O4  UNL     1      62.732 -68.225   2.243  1.00  0.00    -0.229 OA
ATOM     16  H5  UNL     1      63.233 -69.743   3.527  1.00  0.00     0.198 HD
ENDBRANCH   7   9
BRANCH   6  17
HETATM   17  C9  UNL     1      60.012 -66.895   1.203  1.00  0.00     0.166 A 
HETATM   18  N3  UNL     1      59.725 -68.067   0.575  1.00  0.00    -0.291 N 
HETATM   19  C10 UNL     1      58.761 -68.740   1.227  1.00  0.00     0.328 A 
ATOM     20  H3  UNL     1      60.181 -68.392  -0.277  1.00  0.00     0.172 HD
HETATM   21  O2  UNL     1      58.294 -69.866   0.868  1.00  0.00    -0.247 OA
HETATM   22  N4  UNL     1      58.428 -67.992   2.284  1.00  0.00    -0.286 N 
HETATM   23  C11 UNL     1      59.158 -66.864   2.312  1.00  0.00     0.189 A 
ATOM     24  H4  UNL     1      57.719 -68.243   2.972  1.00  0.00     0.172 HD
BRANCH  23  25
HETATM   25  O3  UNL     1      59.069 -65.881   3.257  1.00  0.00    -0.343 OA
ATOM     26  H3  UNL     1      58.525 -65.102   3.225  1.00  0.00     0.219 HD
ENDBRANCH  23  25
ENDBRANCH   6  17
ENDBRANCH   5   6
ENDBRANCH   1   5
TORSDOF 5
ENDMDL
