MODEL 1
REMARK VINA RESULT: -7.121451992      0.000      0.000
REMARK  1 active torsions:
REMARK  status: ('A' for Active; 'I' for Inactive)
REMARK    1  A    between atoms: S1_2  and  C2_3 
ROOT
HETATM    1  C2  UNL     1      -1.983   9.225  11.633  1.00  0.00     0.148 A 
HETATM    2  N1  UNL     1      -0.818   9.876  11.577  1.00  0.00    -0.321 N 
ATOM      3  H1  UNL     1      -0.184   9.872  12.376  1.00  0.00     0.169 HD
HETATM    4  C3  UNL     1      -0.493  10.536  10.451  1.00  0.00     0.133 A 
HETATM    5  C4  UNL     1      -1.357  10.537   9.374  1.00  0.00     0.071 A 
HETATM    6  C5  UNL     1      -2.555   9.866   9.437  1.00  0.00     0.258 A 
HETATM    7  O1  UNL     1      -3.334   9.871   8.455  1.00  0.00    -0.267 OA
HETATM    8  N2  UNL     1      -2.825   9.220  10.596  1.00  0.00    -0.303 N 
ATOM      9  H2  UNL     1      -3.704   8.711  10.680  1.00  0.00     0.171 HD
HETATM   10  C6  UNL     1      -0.916  11.293   8.171  1.00  0.00     0.180 C 
HETATM   11  N3  UNL     1      -0.283  12.505   8.628  1.00  0.00    -0.121 NA
HETATM   12  N4  UNL     1       0.872  12.234   9.331  1.00  0.00    -0.030 NA
HETATM   13  N5  UNL     1       0.721  11.254  10.299  1.00  0.00    -0.272 N 
ATOM     14  H5  UNL     1       1.503  11.044  10.919  1.00  0.00     0.185 HD
ENDROOT
BRANCH   1  15
HETATM   15  S1  UNL     1      -2.420   8.352  13.114  1.00  0.00    -0.098 SA
HETATM   16  C1  UNL     1      -1.008   8.001  14.163  1.00  0.00     0.099 C 
ENDBRANCH   1  15
TORSDOF 1
ENDMDL
MODEL 2
REMARK VINA RESULT: -6.311481403      2.066      2.890
REMARK  1 active torsions:
REMARK  status: ('A' for Active; 'I' for Inactive)
REMARK    1  A    between atoms: S1_2  and  C2_3 
ROOT
HETATM    1  C2  UNL     1      -1.496   9.086  12.133  1.00  0.00     0.148 A 
HETATM    2  N1  UNL     1      -2.583   8.982  11.363  1.00  0.00    -0.321 N 
ATOM      3  H1  UNL     1      -3.358   8.380  11.641  1.00  0.00     0.169 HD
HETATM    4  C3  UNL     1      -2.638   9.682  10.216  1.00  0.00     0.133 A 
HETATM    5  C4  UNL     1      -1.584  10.494   9.847  1.00  0.00     0.071 A 
HETATM    6  C5  UNL     1      -0.468  10.597  10.643  1.00  0.00     0.258 A 
HETATM    7  O1  UNL     1       0.486  11.336  10.301  1.00  0.00    -0.267 OA
HETATM    8  N2  UNL     1      -0.472   9.868  11.784  1.00  0.00    -0.303 N 
ATOM      9  H2  UNL     1       0.339   9.919  12.401  1.00  0.00     0.171 HD
HETATM   10  C6  UNL     1      -1.732  11.230   8.563  1.00  0.00     0.180 C 
HETATM   11  N3  UNL     1      -2.360  10.338   7.621  1.00  0.00    -0.121 NA
HETATM   12  N4  UNL     1      -3.645  10.021   8.009  1.00  0.00    -0.030 NA
HETATM   13  N5  UNL     1      -3.749   9.636   9.336  1.00  0.00    -0.272 N 
ATOM     14  H5  UNL     1      -4.649   9.310   9.688  1.00  0.00     0.185 HD
ENDROOT
BRANCH   1  15
HETATM   15  S1  UNL     1      -1.414   8.166  13.648  1.00  0.00    -0.098 SA
HETATM   16  C1  UNL     1       0.179   7.382  13.907  1.00  0.00     0.099 C 
ENDBRANCH   1  15
TORSDOF 1
ENDMDL
MODEL 3
REMARK VINA RESULT: -6.113570607      4.037      6.714
REMARK  1 active torsions:
REMARK  status: ('A' for Active; 'I' for Inactive)
REMARK    1  A    between atoms: S1_2  and  C2_3 
ROOT
HETATM    1  C2  UNL     1      -1.738   8.779  12.960  1.00  0.00     0.148 A 
HETATM    2  N1  UNL     1      -2.253   7.546  12.963  1.00  0.00    -0.321 N 
ATOM      3  H1  UNL     1      -2.186   6.955  12.135  1.00  0.00     0.169 HD
HETATM    4  C3  UNL     1      -2.860   7.097  14.076  1.00  0.00     0.133 A 
HETATM    5  C4  UNL     1      -2.947   7.904  15.193  1.00  0.00     0.071 A 
HETATM    6  C5  UNL     1      -2.417   9.171  15.184  1.00  0.00     0.258 A 
HETATM    7  O1  UNL     1      -2.499   9.898  16.202  1.00  0.00    -0.267 OA
HETATM    8  N2  UNL     1      -1.817   9.566  14.035  1.00  0.00    -0.303 N 
ATOM      9  H2  UNL     1      -1.411  10.501  13.991  1.00  0.00     0.171 HD
HETATM   10  C6  UNL     1      -3.637   7.325  16.377  1.00  0.00     0.180 C 
HETATM   11  N3  UNL     1      -4.774   6.580  15.896  1.00  0.00    -0.121 NA
HETATM   12  N4  UNL     1      -4.382   5.497  15.138  1.00  0.00    -0.030 NA
HETATM   13  N5  UNL     1      -3.435   5.804  14.173  1.00  0.00    -0.272 N 
ATOM     14  H5  UNL     1      -3.144   5.080  13.516  1.00  0.00     0.185 HD
ENDROOT
BRANCH   1  15
HETATM   15  S1  UNL     1      -0.934   9.380  11.497  1.00  0.00    -0.098 SA
HETATM   16  C1  UNL     1      -2.078  10.079  10.305  1.00  0.00     0.099 C 
ENDBRANCH   1  15
TORSDOF 1
ENDMDL
MODEL 4
REMARK VINA RESULT: -6.099758336      4.880      7.428
REMARK  1 active torsions:
REMARK  status: ('A' for Active; 'I' for Inactive)
REMARK    1  A    between atoms: S1_2  and  C2_3 
ROOT
HETATM    1  C2  UNL     1      -2.251   8.037  14.039  1.00  0.00     0.148 A 
HETATM    2  N1  UNL     1      -1.565   8.063  15.184  1.00  0.00    -0.321 N 
ATOM      3  H1  UNL     1      -0.732   8.644  15.275  1.00  0.00     0.169 HD
HETATM    4  C3  UNL     1      -1.989   7.311  16.216  1.00  0.00     0.133 A 
HETATM    5  C4  UNL     1      -3.117   6.526  16.083  1.00  0.00     0.071 A 
HETATM    6  C5  UNL     1      -3.819   6.502  14.902  1.00  0.00     0.258 A 
HETATM    7  O1  UNL     1      -4.843   5.787  14.790  1.00  0.00    -0.267 OA
HETATM    8  N2  UNL     1      -3.343   7.280  13.902  1.00  0.00    -0.303 N 
ATOM      9  H2  UNL     1      -3.837   7.289  13.010  1.00  0.00     0.171 HD
HETATM   10  C6  UNL     1      -3.512   5.727  17.275  1.00  0.00     0.180 C 
HETATM   11  N3  UNL     1      -2.305   5.215  17.874  1.00  0.00    -0.121 NA
HETATM   12  N4  UNL     1      -1.516   6.234  18.364  1.00  0.00    -0.030 NA
HETATM   13  N5  UNL     1      -1.327   7.275  17.469  1.00  0.00    -0.272 N 
ATOM     14  H5  UNL     1      -0.694   8.035  17.719  1.00  0.00     0.185 HD
ENDROOT
BRANCH   1  15
HETATM   15  S1  UNL     1      -1.699   9.025  12.673  1.00  0.00    -0.098 SA
HETATM   16  C1  UNL     1      -0.620   8.133  11.552  1.00  0.00     0.099 C 
ENDBRANCH   1  15
TORSDOF 1
ENDMDL
MODEL 5
REMARK VINA RESULT: -6.043610633      6.432      8.862
REMARK  1 active torsions:
REMARK  status: ('A' for Active; 'I' for Inactive)
REMARK    1  A    between atoms: S1_2  and  C2_3 
ROOT
HETATM    1  C2  UNL     1      -2.215   7.497  16.391  1.00  0.00     0.148 A 
HETATM    2  N1  UNL     1      -0.982   6.997  16.504  1.00  0.00    -0.321 N 
ATOM      3  H1  UNL     1      -0.180   7.508  16.136  1.00  0.00     0.169 HD
HETATM    4  C3  UNL     1      -0.814   5.809  17.112  1.00  0.00     0.133 A 
HETATM    5  C4  UNL     1      -1.905   5.123  17.608  1.00  0.00     0.071 A 
HETATM    6  C5  UNL     1      -3.171   5.641  17.488  1.00  0.00     0.258 A 
HETATM    7  O1  UNL     1      -4.158   5.013  17.940  1.00  0.00    -0.267 OA
HETATM    8  N2  UNL     1      -3.276   6.840  16.867  1.00  0.00    -0.303 N 
ATOM      9  H2  UNL     1      -4.201   7.258  16.759  1.00  0.00     0.171 HD
HETATM   10  C6  UNL     1      -1.625   3.817  18.264  1.00  0.00     0.180 C 
HETATM   11  N3  UNL     1      -0.606   3.152  17.491  1.00  0.00    -0.121 NA
HETATM   12  N4  UNL     1       0.587   3.843  17.531  1.00  0.00    -0.030 NA
HETATM   13  N5  UNL     1       0.456   5.199  17.280  1.00  0.00    -0.272 N 
ATOM     14  H5  UNL     1       1.295   5.775  17.214  1.00  0.00     0.185 HD
ENDROOT
BRANCH   1  15
HETATM   15  S1  UNL     1      -2.447   9.063  15.591  1.00  0.00    -0.098 SA
HETATM   16  C1  UNL     1      -1.726   9.126  13.949  1.00  0.00     0.099 C 
ENDBRANCH   1  15
TORSDOF 1
ENDMDL
