MODEL 1
REMARK VINA RESULT: -7.386697119      0.000      0.000
REMARK  1 active torsions:
REMARK  status: ('A' for Active; 'I' for Inactive)
REMARK    1  A    between atoms: N1_1  and  C1_4 
ROOT
HETATM    1  C1  UNL     1      -1.604   9.132  12.281  1.00  0.00     0.680 A 
HETATM    2  N2  UNL     1      -2.724   8.965  11.557  1.00  0.00    -0.155 N 
ATOM      3  H2  UNL     1      -3.515   8.484  11.986  1.00  0.00     0.187 HD
HETATM    4  C2  UNL     1      -2.849   9.401  10.301  1.00  0.00     0.279 A 
HETATM    5  O1  UNL     1      -3.891   9.249   9.620  1.00  0.00    -0.266 OA
HETATM    6  C3  UNL     1      -1.788  10.056   9.703  1.00  0.00     0.152 A 
HETATM    7  C4  UNL     1      -1.867  10.527   8.405  1.00  0.00     0.269 A 
HETATM    8  O2  UNL     1      -2.925  10.345   7.782  1.00  0.00    -0.267 OA
HETATM    9  N3  UNL     1      -0.783  11.147   7.920  1.00  0.00    -0.268 N 
ATOM     10  H3  UNL     1      -0.793  11.510   6.967  1.00  0.00     0.174 HD
HETATM   11  C5  UNL     1       0.314  11.294   8.673  1.00  0.00     0.374 A 
HETATM   12  O3  UNL     1       1.304  11.895   8.141  1.00  0.00    -0.238 OA
HETATM   13  O4  UNL     1       0.417  10.857   9.907  1.00  0.00    -0.242 OA
HETATM   14  C6  UNL     1      -0.631  10.232  10.440  1.00  0.00     0.189 A 
HETATM   15  N4  UNL     1      -0.575   9.768  11.699  1.00  0.00    -0.169 N 
ATOM     16  H4  UNL     1       0.283   9.904  12.232  1.00  0.00     0.186 HD
ENDROOT
BRANCH   1  17
HETATM   17  N1  UNL     1      -1.523   8.687  13.513  1.00  0.00    -0.234 N 
ATOM     18  H12 UNL     1      -0.980   7.855  13.743  1.00  0.00     0.174 HD
ATOM     19  H11 UNL     1      -2.005   9.164  14.276  1.00  0.00     0.174 HD
ENDBRANCH   1  17
TORSDOF 1
ENDMDL
MODEL 2
REMARK VINA RESULT: -7.151622409      6.399      8.090
REMARK  1 active torsions:
REMARK  status: ('A' for Active; 'I' for Inactive)
REMARK    1  A    between atoms: N1_1  and  C1_4 
ROOT
HETATM    1  C1  UNL     1      -0.740   5.042  17.887  1.00  0.00     0.680 A 
HETATM    2  N2  UNL     1      -2.000   4.603  18.054  1.00  0.00    -0.155 N 
ATOM      3  H2  UNL     1      -2.147   3.708  18.521  1.00  0.00     0.187 HD
HETATM    4  C2  UNL     1      -3.068   5.286  17.636  1.00  0.00     0.279 A 
HETATM    5  O1  UNL     1      -4.247   4.882  17.789  1.00  0.00    -0.266 OA
HETATM    6  C3  UNL     1      -2.890   6.500  17.000  1.00  0.00     0.152 A 
HETATM    7  C4  UNL     1      -3.965   7.246  16.549  1.00  0.00     0.269 A 
HETATM    8  O2  UNL     1      -5.105   6.793  16.730  1.00  0.00    -0.267 OA
HETATM    9  N3  UNL     1      -3.683   8.409  15.947  1.00  0.00    -0.268 N 
ATOM     10  H3  UNL     1      -4.442   8.993  15.596  1.00  0.00     0.174 HD
HETATM   11  C5  UNL     1      -2.415   8.812  15.800  1.00  0.00     0.374 A 
HETATM   12  O3  UNL     1      -2.228   9.930  15.217  1.00  0.00    -0.238 OA
HETATM   13  O4  UNL     1      -1.377   8.125  16.218  1.00  0.00    -0.242 OA
HETATM   14  C6  UNL     1      -1.598   6.961  16.824  1.00  0.00     0.189 A 
HETATM   15  N4  UNL     1      -0.569   6.223  17.269  1.00  0.00    -0.169 N 
ATOM     16  H4  UNL     1       0.379   6.572  17.134  1.00  0.00     0.186 HD
ENDROOT
BRANCH   1  17
HETATM   17  N1  UNL     1       0.282   4.339  18.313  1.00  0.00    -0.234 N 
ATOM     18  H12 UNL     1       1.070   4.122  17.701  1.00  0.00     0.174 HD
ATOM     19  H11 UNL     1       0.317   3.990  19.271  1.00  0.00     0.174 HD
ENDBRANCH   1  17
TORSDOF 1
ENDMDL
MODEL 3
REMARK VINA RESULT: -6.788404622      2.851      3.362
REMARK  1 active torsions:
REMARK  status: ('A' for Active; 'I' for Inactive)
REMARK    1  A    between atoms: N1_1  and  C1_4 
ROOT
HETATM    1  C1  UNL     1      -0.122   6.539   9.216  1.00  0.00     0.680 A 
HETATM    2  N2  UNL     1      -0.770   6.461  10.391  1.00  0.00    -0.155 N 
ATOM      3  H2  UNL     1      -1.047   5.541  10.735  1.00  0.00     0.187 HD
HETATM    4  C2  UNL     1      -1.067   7.533  11.129  1.00  0.00     0.279 A 
HETATM    5  O1  UNL     1      -1.672   7.468  12.226  1.00  0.00    -0.266 OA
HETATM    6  C3  UNL     1      -0.700   8.788  10.679  1.00  0.00     0.152 A 
HETATM    7  C4  UNL     1      -0.984   9.930  11.406  1.00  0.00     0.269 A 
HETATM    8  O2  UNL     1      -1.586   9.800  12.484  1.00  0.00    -0.267 OA
HETATM    9  N3  UNL     1      -0.585  11.096  10.882  1.00  0.00    -0.268 N 
ATOM     10  H3  UNL     1      -0.773  11.965  11.381  1.00  0.00     0.174 HD
HETATM   11  C5  UNL     1       0.059  11.132   9.709  1.00  0.00     0.374 A 
HETATM   12  O3  UNL     1       0.407  12.279   9.276  1.00  0.00    -0.238 OA
HETATM   13  O4  UNL     1       0.341  10.065   8.997  1.00  0.00    -0.242 OA
HETATM   14  C6  UNL     1      -0.033   8.879   9.471  1.00  0.00     0.189 A 
HETATM   15  N4  UNL     1       0.235   7.759   8.781  1.00  0.00    -0.169 N 
ATOM     16  H4  UNL     1       0.727   7.838   7.892  1.00  0.00     0.186 HD
ENDROOT
BRANCH   1  17
HETATM   17  N1  UNL     1       0.151   5.460   8.522  1.00  0.00    -0.234 N 
ATOM     18  H12 UNL     1      -0.061   5.400   7.526  1.00  0.00     0.174 HD
ATOM     19  H11 UNL     1       0.584   4.647   8.962  1.00  0.00     0.174 HD
ENDBRANCH   1  17
TORSDOF 1
ENDMDL
MODEL 4
REMARK VINA RESULT: -6.685828748      2.678      4.648
REMARK  1 active torsions:
REMARK  status: ('A' for Active; 'I' for Inactive)
REMARK    1  A    between atoms: N1_1  and  C1_4 
ROOT
HETATM    1  C1  UNL     1      -0.170  11.027  10.053  1.00  0.00     0.680 A 
HETATM    2  N2  UNL     1       0.201   9.941   9.352  1.00  0.00    -0.155 N 
ATOM      3  H2  UNL     1       0.698  10.075   8.471  1.00  0.00     0.187 HD
HETATM    4  C2  UNL     1      -0.050   8.695   9.759  1.00  0.00     0.279 A 
HETATM    5  O1  UNL     1       0.294   7.676   9.111  1.00  0.00    -0.266 OA
HETATM    6  C3  UNL     1      -0.721   8.493  10.951  1.00  0.00     0.152 A 
HETATM    7  C4  UNL     1      -1.005   7.221  11.416  1.00  0.00     0.269 A 
HETATM    8  O2  UNL     1      -0.640   6.255  10.729  1.00  0.00    -0.267 OA
HETATM    9  N3  UNL     1      -1.660   7.136  12.581  1.00  0.00    -0.268 N 
ATOM     10  H3  UNL     1      -1.893   6.220  12.964  1.00  0.00     0.174 HD
HETATM   11  C5  UNL     1      -2.012   8.242  13.249  1.00  0.00     0.374 A 
HETATM   12  O3  UNL     1      -2.632   8.078  14.350  1.00  0.00    -0.238 OA
HETATM   13  O4  UNL     1      -1.756   9.460  12.831  1.00  0.00    -0.242 OA
HETATM   14  C6  UNL     1      -1.107   9.604  11.678  1.00  0.00     0.189 A 
HETATM   15  N4  UNL     1      -0.821  10.829  11.210  1.00  0.00    -0.169 N 
ATOM     16  H4  UNL     1      -1.110  11.641  11.755  1.00  0.00     0.186 HD
ENDROOT
BRANCH   1  17
HETATM   17  N1  UNL     1       0.098  12.236   9.617  1.00  0.00    -0.234 N 
ATOM     18  H12 UNL     1       1.040  12.623   9.667  1.00  0.00     0.174 HD
ATOM     19  H11 UNL     1      -0.634  12.823   9.215  1.00  0.00     0.174 HD
ENDBRANCH   1  17
TORSDOF 1
ENDMDL
MODEL 5
REMARK VINA RESULT: -6.659627205      4.828      7.360
REMARK  1 active torsions:
REMARK  status: ('A' for Active; 'I' for Inactive)
REMARK    1  A    between atoms: N1_1  and  C1_4 
ROOT
HETATM    1  C1  UNL     1      -1.053   8.792  13.021  1.00  0.00     0.680 A 
HETATM    2  N2  UNL     1      -0.023   8.079  13.513  1.00  0.00    -0.155 N 
ATOM      3  H2  UNL     1       0.892   8.177  13.073  1.00  0.00     0.187 HD
HETATM    4  C2  UNL     1      -0.146   7.251  14.552  1.00  0.00     0.279 A 
HETATM    5  O1  UNL     1       0.810   6.584  15.017  1.00  0.00    -0.266 OA
HETATM    6  C3  UNL     1      -1.378   7.106  15.162  1.00  0.00     0.152 A 
HETATM    7  C4  UNL     1      -1.556   6.260  16.242  1.00  0.00     0.269 A 
HETATM    8  O2  UNL     1      -0.572   5.626  16.655  1.00  0.00    -0.267 OA
HETATM    9  N3  UNL     1      -2.790   6.192  16.759  1.00  0.00    -0.268 N 
ATOM     10  H3  UNL     1      -2.971   5.581  17.555  1.00  0.00     0.174 HD
HETATM   11  C5  UNL     1      -3.788   6.917  16.241  1.00  0.00     0.374 A 
HETATM   12  O3  UNL     1      -4.933   6.798  16.788  1.00  0.00    -0.238 OA
HETATM   13  O4  UNL     1      -3.648   7.727  15.217  1.00  0.00    -0.242 OA
HETATM   14  C6  UNL     1      -2.443   7.834  14.663  1.00  0.00     0.189 A 
HETATM   15  N4  UNL     1      -2.248   8.649  13.614  1.00  0.00    -0.169 N 
ATOM     16  H4  UNL     1      -3.040   9.181  13.255  1.00  0.00     0.186 HD
ENDROOT
BRANCH   1  17
HETATM   17  N1  UNL     1      -0.889   9.596  11.997  1.00  0.00    -0.234 N 
ATOM     18  H12 UNL     1      -1.686   9.958  11.473  1.00  0.00     0.174 HD
ATOM     19  H11 UNL     1       0.043   9.880  11.696  1.00  0.00     0.174 HD
ENDBRANCH   1  17
TORSDOF 1
ENDMDL
