MODEL 1
REMARK VINA RESULT: -6.609516435      0.000      0.000
REMARK  5 active torsions:
REMARK  status: ('A' for Active; 'I' for Inactive)
REMARK    1  A    between atoms: O1_2  and  C2_3 
REMARK    2  A    between atoms: C2_3  and  C3_5 
REMARK    3  A    between atoms: C6_11  and  N3_12 
REMARK    4  A    between atoms: N3_12  and  N4_14 
REMARK    5  A    between atoms: C7_19  and  N6_20 
ROOT
HETATM    1  C3  UNL     1      -2.769   7.589  15.304  1.00  0.00     0.121 A 
HETATM    2  C4  UNL     1      -2.303   6.868  14.227  1.00  0.00     0.149 A 
HETATM    3  C5  UNL     1      -2.509   5.431  14.160  1.00  0.00     0.119 C 
HETATM    4  N1  UNL     1      -2.665   4.282  14.086  1.00  0.00    -0.190 NA
HETATM    5  N2  UNL     1      -1.649   7.516  13.232  1.00  0.00    -0.179 N 
ATOM      6  H2  UNL     1      -1.298   6.997  12.428  1.00  0.00     0.185 HD
HETATM    7  C6  UNL     1      -1.468   8.831  13.311  1.00  0.00     0.699 A 
HETATM    8  N5  UNL     1      -1.913   9.551  14.347  1.00  0.00    -0.175 N 
ATOM      9  H5  UNL     1      -1.754  10.559  14.366  1.00  0.00     0.186 HD
HETATM   10  C7  UNL     1      -2.567   8.963  15.360  1.00  0.00     0.134 A 
ENDROOT
BRANCH   1  11
HETATM   11  C2  UNL     1      -3.479   6.960  16.407  1.00  0.00     0.299 C 
HETATM   12  O2  UNL     1      -4.743   7.015  16.438  1.00  0.00    -0.259 OA
BRANCH  11  13
HETATM   13  O1  UNL     1      -2.899   6.290  17.457  1.00  0.00    -0.322 OA
HETATM   14  C1  UNL     1      -1.512   6.332  17.745  1.00  0.00     0.213 C 
ENDBRANCH  11  13
ENDBRANCH   1  11
BRANCH  10  15
HETATM   15  N6  UNL     1      -3.003   9.641  16.369  1.00  0.00    -0.384 N 
ATOM     16  H62 UNL     1      -2.466   9.721  17.232  1.00  0.00     0.157 HD
ATOM     17  H61 UNL     1      -3.905  10.115  16.315  1.00  0.00     0.157 HD
ENDBRANCH  10  15
BRANCH   7  18
HETATM   18  N3  UNL     1      -0.843   9.423  12.349  1.00  0.00    -0.138 N 
ATOM     19  H3  UNL     1      -0.000   8.986  11.977  1.00  0.00     0.205 HD
BRANCH  18  20
HETATM   20  N4  UNL     1      -1.263  10.631  11.794  1.00  0.00    -0.331 N 
ATOM     21  H42 UNL     1      -1.347  11.431  12.422  1.00  0.00     0.177 HD
ATOM     22  H41 UNL     1      -1.485  10.745  10.805  1.00  0.00     0.177 HD
ENDBRANCH  18  20
ENDBRANCH   7  18
TORSDOF 5
ENDMDL
MODEL 2
REMARK VINA RESULT: -6.298114225      1.384      1.637
REMARK  5 active torsions:
REMARK  status: ('A' for Active; 'I' for Inactive)
REMARK    1  A    between atoms: O1_2  and  C2_3 
REMARK    2  A    between atoms: C2_3  and  C3_5 
REMARK    3  A    between atoms: C6_11  and  N3_12 
REMARK    4  A    between atoms: N3_12  and  N4_14 
REMARK    5  A    between atoms: C7_19  and  N6_20 
ROOT
HETATM    1  C3  UNL     1      -1.647   7.702  15.550  1.00  0.00     0.121 A 
HETATM    2  C4  UNL     1      -0.880   7.054  14.608  1.00  0.00     0.149 A 
HETATM    3  C5  UNL     1      -0.352   5.726  14.876  1.00  0.00     0.119 C 
HETATM    4  N1  UNL     1       0.078   4.664  15.069  1.00  0.00    -0.190 NA
HETATM    5  N2  UNL     1      -0.622   7.670  13.429  1.00  0.00    -0.179 N 
ATOM      6  H2  UNL     1      -0.056   7.204  12.720  1.00  0.00     0.185 HD
HETATM    7  C6  UNL     1      -1.111   8.886  13.201  1.00  0.00     0.699 A 
HETATM    8  N5  UNL     1      -1.859   9.533  14.101  1.00  0.00    -0.175 N 
ATOM      9  H5  UNL     1      -2.216  10.464  13.884  1.00  0.00     0.186 HD
HETATM   10  C7  UNL     1      -2.146   8.971  15.285  1.00  0.00     0.134 A 
ENDROOT
BRANCH   1  11
HETATM   11  C2  UNL     1      -1.963   7.101  16.836  1.00  0.00     0.299 C 
HETATM   12  O2  UNL     1      -1.181   7.286  17.813  1.00  0.00    -0.259 OA
BRANCH  11  13
HETATM   13  O1  UNL     1      -3.065   6.324  17.110  1.00  0.00    -0.322 OA
HETATM   14  C1  UNL     1      -2.996   5.068  17.762  1.00  0.00     0.213 C 
ENDBRANCH  11  13
ENDBRANCH   1  11
BRANCH  10  15
HETATM   15  N6  UNL     1      -2.866   9.581  16.167  1.00  0.00    -0.384 N 
ATOM     16  H62 UNL     1      -2.466  10.279  16.795  1.00  0.00     0.157 HD
ATOM     17  H61 UNL     1      -3.861   9.371  16.250  1.00  0.00     0.157 HD
ENDBRANCH  10  15
BRANCH   7  18
HETATM   18  N3  UNL     1      -0.852   9.450  12.069  1.00  0.00    -0.138 N 
ATOM     19  H3  UNL     1      -0.222   8.974  11.423  1.00  0.00     0.205 HD
BRANCH  18  20
HETATM   20  N4  UNL     1      -1.390  10.677  11.686  1.00  0.00    -0.331 N 
ATOM     21  H42 UNL     1      -2.251  10.661  11.139  1.00  0.00     0.177 HD
ATOM     22  H41 UNL     1      -0.966  11.574  11.926  1.00  0.00     0.177 HD
ENDBRANCH  18  20
ENDBRANCH   7  18
TORSDOF 5
ENDMDL
MODEL 3
REMARK VINA RESULT: -6.249434633      1.349      1.440
REMARK  5 active torsions:
REMARK  status: ('A' for Active; 'I' for Inactive)
REMARK    1  A    between atoms: O1_2  and  C2_3 
REMARK    2  A    between atoms: C2_3  and  C3_5 
REMARK    3  A    between atoms: C6_11  and  N3_12 
REMARK    4  A    between atoms: N3_12  and  N4_14 
REMARK    5  A    between atoms: C7_19  and  N6_20 
ROOT
HETATM    1  C3  UNL     1      -1.631   7.686  15.560  1.00  0.00     0.121 A 
HETATM    2  C4  UNL     1      -0.866   7.037  14.617  1.00  0.00     0.149 A 
HETATM    3  C5  UNL     1      -0.341   5.708  14.885  1.00  0.00     0.119 C 
HETATM    4  N1  UNL     1       0.087   4.646  15.078  1.00  0.00    -0.190 NA
HETATM    5  N2  UNL     1      -0.609   7.653  13.438  1.00  0.00    -0.179 N 
ATOM      6  H2  UNL     1      -0.044   7.186  12.729  1.00  0.00     0.185 HD
HETATM    7  C6  UNL     1      -1.096   8.870  13.211  1.00  0.00     0.699 A 
HETATM    8  N5  UNL     1      -1.842   9.518  14.112  1.00  0.00    -0.175 N 
ATOM      9  H5  UNL     1      -2.198  10.450  13.896  1.00  0.00     0.186 HD
HETATM   10  C7  UNL     1      -2.129   8.956  15.297  1.00  0.00     0.134 A 
ENDROOT
BRANCH   1  11
HETATM   11  C2  UNL     1      -1.948   7.086  16.847  1.00  0.00     0.299 C 
HETATM   12  O2  UNL     1      -3.022   6.428  16.974  1.00  0.00    -0.259 OA
BRANCH  11  13
HETATM   13  O1  UNL     1      -1.174   7.162  17.981  1.00  0.00    -0.322 OA
HETATM   14  C1  UNL     1      -0.760   6.030  18.726  1.00  0.00     0.213 C 
ENDBRANCH  11  13
ENDBRANCH   1  11
BRANCH  10  15
HETATM   15  N6  UNL     1      -2.847   9.568  16.179  1.00  0.00    -0.384 N 
ATOM     16  H62 UNL     1      -3.441   9.056  16.833  1.00  0.00     0.157 HD
ATOM     17  H61 UNL     1      -2.832  10.586  16.236  1.00  0.00     0.157 HD
ENDBRANCH  10  15
BRANCH   7  18
HETATM   18  N3  UNL     1      -0.837   9.434  12.079  1.00  0.00    -0.138 N 
ATOM     19  H3  UNL     1      -0.210   8.956  11.432  1.00  0.00     0.205 HD
BRANCH  18  20
HETATM   20  N4  UNL     1      -1.371  10.663  11.698  1.00  0.00    -0.331 N 
ATOM     21  H42 UNL     1      -2.030  10.666  10.919  1.00  0.00     0.177 HD
ATOM     22  H41 UNL     1      -1.135  11.543  12.157  1.00  0.00     0.177 HD
ENDBRANCH  18  20
ENDBRANCH   7  18
TORSDOF 5
ENDMDL
MODEL 4
REMARK VINA RESULT: -6.185230042      3.625      4.963
REMARK  5 active torsions:
REMARK  status: ('A' for Active; 'I' for Inactive)
REMARK    1  A    between atoms: O1_2  and  C2_3 
REMARK    2  A    between atoms: C2_3  and  C3_5 
REMARK    3  A    between atoms: C6_11  and  N3_12 
REMARK    4  A    between atoms: N3_12  and  N4_14 
REMARK    5  A    between atoms: C7_19  and  N6_20 
ROOT
HETATM    1  C3  UNL     1      -0.577   8.474  11.149  1.00  0.00     0.121 A 
HETATM    2  C4  UNL     1      -0.225   8.482   9.818  1.00  0.00     0.149 A 
HETATM    3  C5  UNL     1       0.437   7.331   9.226  1.00  0.00     0.119 C 
HETATM    4  N1  UNL     1       0.965   6.421   8.733  1.00  0.00    -0.190 NA
HETATM    5  N2  UNL     1      -0.502   9.576   9.069  1.00  0.00    -0.179 N 
ATOM      6  H2  UNL     1      -0.248   9.598   8.081  1.00  0.00     0.185 HD
HETATM    7  C6  UNL     1      -1.106  10.621   9.627  1.00  0.00     0.699 A 
HETATM    8  N5  UNL     1      -1.458  10.634  10.918  1.00  0.00    -0.175 N 
ATOM      9  H5  UNL     1      -1.922  11.456  11.305  1.00  0.00     0.186 HD
HETATM   10  C7  UNL     1      -1.209   9.578  11.707  1.00  0.00     0.134 A 
ENDROOT
BRANCH   1  11
HETATM   11  C2  UNL     1      -0.312   7.334  12.013  1.00  0.00     0.299 C 
HETATM   12  O2  UNL     1       0.785   7.278  12.642  1.00  0.00    -0.259 OA
BRANCH  11  13
HETATM   13  O1  UNL     1      -1.159   6.272  12.224  1.00  0.00    -0.322 OA
HETATM   14  C1  UNL     1      -1.693   5.935  13.492  1.00  0.00     0.213 C 
ENDBRANCH  11  13
ENDBRANCH   1  11
BRANCH  10  15
HETATM   15  N6  UNL     1      -1.541   9.574  12.956  1.00  0.00    -0.384 N 
ATOM     16  H62 UNL     1      -1.656   8.703  13.475  1.00  0.00     0.157 HD
ATOM     17  H61 UNL     1      -1.695  10.454  13.447  1.00  0.00     0.157 HD
ENDBRANCH  10  15
BRANCH   7  18
HETATM   18  N3  UNL     1      -1.359  11.650   8.891  1.00  0.00    -0.138 N 
ATOM     19  H3  UNL     1      -2.271  11.709   8.436  1.00  0.00     0.205 HD
BRANCH  18  20
HETATM   20  N4  UNL     1      -0.449  12.685   8.686  1.00  0.00    -0.331 N 
ATOM     21  H42 UNL     1       0.430  12.646   9.203  1.00  0.00     0.177 HD
ATOM     22  H41 UNL     1      -0.622  13.465   8.051  1.00  0.00     0.177 HD
ENDBRANCH  18  20
ENDBRANCH   7  18
TORSDOF 5
ENDMDL
MODEL 5
REMARK VINA RESULT: -6.153212598      3.653      4.821
REMARK  5 active torsions:
REMARK  status: ('A' for Active; 'I' for Inactive)
REMARK    1  A    between atoms: O1_2  and  C2_3 
REMARK    2  A    between atoms: C2_3  and  C3_5 
REMARK    3  A    between atoms: C6_11  and  N3_12 
REMARK    4  A    between atoms: N3_12  and  N4_14 
REMARK    5  A    between atoms: C7_19  and  N6_20 
ROOT
HETATM    1  C3  UNL     1      -0.642   8.481  11.213  1.00  0.00     0.121 A 
HETATM    2  C4  UNL     1      -0.280   8.464   9.885  1.00  0.00     0.149 A 
HETATM    3  C5  UNL     1       0.368   7.294   9.315  1.00  0.00     0.119 C 
HETATM    4  N1  UNL     1       0.886   6.370   8.839  1.00  0.00    -0.190 NA
HETATM    5  N2  UNL     1      -0.535   9.551   9.117  1.00  0.00    -0.179 N 
ATOM      6  H2  UNL     1      -0.274   9.554   8.132  1.00  0.00     0.185 HD
HETATM    7  C6  UNL     1      -1.128  10.612   9.656  1.00  0.00     0.699 A 
HETATM    8  N5  UNL     1      -1.489  10.651  10.943  1.00  0.00    -0.175 N 
ATOM      9  H5  UNL     1      -1.943  11.485  11.315  1.00  0.00     0.186 HD
HETATM   10  C7  UNL     1      -1.261   9.603  11.750  1.00  0.00     0.134 A 
ENDROOT
BRANCH   1  11
HETATM   11  C2  UNL     1      -0.400   7.350  12.096  1.00  0.00     0.299 C 
HETATM   12  O2  UNL     1      -1.201   6.371  12.079  1.00  0.00    -0.259 OA
BRANCH  11  13
HETATM   13  O1  UNL     1       0.646   7.232  12.981  1.00  0.00    -0.322 OA
HETATM   14  C1  UNL     1       0.480   6.950  14.359  1.00  0.00     0.213 C 
ENDBRANCH  11  13
ENDBRANCH   1  11
BRANCH  10  15
HETATM   15  N6  UNL     1      -1.602   9.622  12.996  1.00  0.00    -0.384 N 
ATOM     16  H62 UNL     1      -2.554   9.405  13.293  1.00  0.00     0.157 HD
ATOM     17  H61 UNL     1      -0.914   9.857  13.711  1.00  0.00     0.157 HD
ENDBRANCH  10  15
BRANCH   7  18
HETATM   18  N3  UNL     1      -1.361  11.634   8.902  1.00  0.00    -0.138 N 
ATOM     19  H3  UNL     1      -2.266  11.699   8.437  1.00  0.00     0.205 HD
BRANCH  18  20
HETATM   20  N4  UNL     1      -0.434  12.655   8.691  1.00  0.00    -0.331 N 
ATOM     21  H42 UNL     1       0.080  12.646   7.810  1.00  0.00     0.177 HD
ATOM     22  H41 UNL     1      -0.254  13.395   9.369  1.00  0.00     0.177 HD
ENDBRANCH  18  20
ENDBRANCH   7  18
TORSDOF 5
ENDMDL
