MODEL 1
REMARK VINA RESULT: -7.119640702      0.000      0.000
REMARK  3 active torsions:
REMARK  status: ('A' for Active; 'I' for Inactive)
REMARK    1  A    between atoms: C3_3  and  C4_5 
REMARK    2  A    between atoms: C6_7  and  N1_8 
REMARK    3  A    between atoms: C7_14  and  N3_15 
ROOT
HETATM    1  C1  UNL     1      -3.563   7.102  14.234  1.00  0.00     0.021 C 
HETATM    2  C2  UNL     1      -2.624   7.663  13.750  1.00  0.00    -0.033 C 
HETATM    3  C3  UNL     1      -1.397   8.332  13.194  1.00  0.00     0.246 C 
HETATM    4  O1  UNL     1      -0.424   8.391  13.838  1.00  0.00    -0.276 OA
ENDROOT
BRANCH   3   5
HETATM    5  C4  UNL     1      -1.571   8.908  11.818  1.00  0.00     0.072 C 
HETATM    6  C5  UNL     1      -1.762   7.914  10.767  1.00  0.00     0.115 C 
HETATM    7  C6  UNL     1      -1.093   8.187   9.467  1.00  0.00     0.287 C 
HETATM    8  N2  UNL     1      -0.284   9.358   9.443  1.00  0.00    -0.335 N 
HETATM    9  C7  UNL     1      -0.703  10.449  10.250  1.00  0.00     0.361 C 
ATOM     10  H2  UNL     1       0.559   9.410   8.872  1.00  0.00     0.160 HD
HETATM   11  C8  UNL     1       0.269  11.533  10.087  1.00  0.00     0.144 C 
HETATM   12  N5  UNL     1      -0.754  10.026  11.629  1.00  0.00    -0.328 N 
HETATM   13  N4  UNL     1       1.023  12.398   9.994  1.00  0.00    -0.191 NA
ATOM     14  H5  UNL     1      -0.250  10.492  12.383  1.00  0.00     0.164 HD
BRANCH   7  15
HETATM   15  N1  UNL     1      -0.231   7.055   9.132  1.00  0.00    -0.058 N 
ATOM     16  H13 UNL     1       0.245   6.673   9.949  1.00  0.00     0.276 HD
ATOM     17  H12 UNL     1      -0.763   6.224   8.875  1.00  0.00     0.276 HD
ATOM     18  H11 UNL     1       0.422   7.342   8.401  1.00  0.00     0.276 HD
ENDBRANCH   7  15
BRANCH   9  19
HETATM   19  N3  UNL     1      -1.994  10.944   9.810  1.00  0.00    -0.020 N 
ATOM     20  H33 UNL     1      -2.258  10.558   8.903  1.00  0.00     0.280 HD
ATOM     21  H32 UNL     1      -2.757  10.561  10.368  1.00  0.00     0.280 HD
ATOM     22  H31 UNL     1      -2.004  11.965   9.804  1.00  0.00     0.280 HD
ENDBRANCH   9  19
ENDBRANCH   3   5
TORSDOF 3
ENDMDL
MODEL 2
REMARK VINA RESULT: -6.834421578      2.370      3.046
REMARK  3 active torsions:
REMARK  status: ('A' for Active; 'I' for Inactive)
REMARK    1  A    between atoms: C3_3  and  C4_5 
REMARK    2  A    between atoms: C6_7  and  N1_8 
REMARK    3  A    between atoms: C7_14  and  N3_15 
ROOT
HETATM    1  C1  UNL     1       1.765   6.334  11.446  1.00  0.00     0.021 C 
HETATM    2  C2  UNL     1       0.736   6.618  10.906  1.00  0.00    -0.033 C 
HETATM    3  C3  UNL     1      -0.570   6.898  10.215  1.00  0.00     0.246 C 
HETATM    4  O1  UNL     1      -1.042   6.093   9.513  1.00  0.00    -0.276 OA
ENDROOT
BRANCH   3   5
HETATM    5  C4  UNL     1      -1.139   8.260  10.488  1.00  0.00     0.072 C 
HETATM    6  C5  UNL     1      -2.499   8.457   9.996  1.00  0.00     0.115 C 
HETATM    7  C6  UNL     1      -2.807   9.789   9.410  1.00  0.00     0.287 C 
HETATM    8  N2  UNL     1      -1.701  10.682   9.339  1.00  0.00    -0.335 N 
HETATM    9  C7  UNL     1      -0.724  10.584  10.366  1.00  0.00     0.361 C 
ATOM     10  H2  UNL     1      -1.613  11.362   8.584  1.00  0.00     0.160 HD
HETATM   11  C8  UNL     1       0.321  11.575  10.093  1.00  0.00     0.144 C 
HETATM   12  N5  UNL     1      -0.164   9.254  10.362  1.00  0.00    -0.328 N 
HETATM   13  N4  UNL     1       1.167  12.331   9.900  1.00  0.00    -0.191 NA
ATOM     14  H5  UNL     1       0.833   9.059  10.277  1.00  0.00     0.164 HD
BRANCH   7  15
HETATM   15  N1  UNL     1      -3.304   9.604   8.048  1.00  0.00    -0.058 N 
ATOM     16  H13 UNL     1      -2.820   8.853   7.556  1.00  0.00     0.276 HD
ATOM     17  H12 UNL     1      -4.243   9.205   8.029  1.00  0.00     0.276 HD
ATOM     18  H11 UNL     1      -3.249  10.494   7.552  1.00  0.00     0.276 HD
ENDBRANCH   7  15
BRANCH   9  19
HETATM   19  N3  UNL     1      -1.306  10.900  11.656  1.00  0.00    -0.020 N 
ATOM     20  H33 UNL     1      -1.067  11.845  11.958  1.00  0.00     0.280 HD
ATOM     21  H32 UNL     1      -2.319  11.010  11.598  1.00  0.00     0.280 HD
ATOM     22  H31 UNL     1      -1.040  10.202  12.351  1.00  0.00     0.280 HD
ENDBRANCH   9  19
ENDBRANCH   3   5
TORSDOF 3
ENDMDL
MODEL 3
REMARK VINA RESULT: -6.797936316      1.098      1.411
REMARK  3 active torsions:
REMARK  status: ('A' for Active; 'I' for Inactive)
REMARK    1  A    between atoms: C3_3  and  C4_5 
REMARK    2  A    between atoms: C6_7  and  N1_8 
REMARK    3  A    between atoms: C7_14  and  N3_15 
ROOT
HETATM    1  C1  UNL     1       0.542   7.032  13.871  1.00  0.00     0.021 C 
HETATM    2  C2  UNL     1      -0.321   7.834  13.666  1.00  0.00    -0.033 C 
HETATM    3  C3  UNL     1      -1.402   8.864  13.486  1.00  0.00     0.246 C 
HETATM    4  O1  UNL     1      -1.982   9.269  14.416  1.00  0.00    -0.276 OA
ENDROOT
BRANCH   3   5
HETATM    5  C4  UNL     1      -1.655   9.258  12.060  1.00  0.00     0.072 C 
HETATM    6  C5  UNL     1      -2.015   8.149  11.181  1.00  0.00     0.115 C 
HETATM    7  C6  UNL     1      -1.446   8.181   9.807  1.00  0.00     0.287 C 
HETATM    8  N2  UNL     1      -0.558   9.263   9.550  1.00  0.00    -0.335 N 
HETATM    9  C7  UNL     1      -0.819  10.487  10.222  1.00  0.00     0.361 C 
ATOM     10  H2  UNL     1       0.232   9.163   8.913  1.00  0.00     0.160 HD
HETATM   11  C8  UNL     1       0.213  11.449   9.827  1.00  0.00     0.144 C 
HETATM   12  N5  UNL     1      -0.777  10.264  11.647  1.00  0.00    -0.328 N 
HETATM   13  N4  UNL     1       1.018  12.225   9.551  1.00  0.00    -0.191 NA
ATOM     14  H5  UNL     1      -0.173  10.784  12.283  1.00  0.00     0.164 HD
BRANCH   7  15
HETATM   15  N1  UNL     1      -0.705   6.944   9.573  1.00  0.00    -0.058 N 
ATOM     16  H13 UNL     1      -1.141   6.138  10.021  1.00  0.00     0.276 HD
ATOM     17  H12 UNL     1      -0.776   6.624   8.606  1.00  0.00     0.276 HD
ATOM     18  H11 UNL     1       0.263   7.077   9.868  1.00  0.00     0.276 HD
ENDBRANCH   7  15
BRANCH   9  19
HETATM   19  N3  UNL     1      -2.103  11.027   9.817  1.00  0.00    -0.020 N 
ATOM     20  H33 UNL     1      -2.122  11.256   8.823  1.00  0.00     0.280 HD
ATOM     21  H32 UNL     1      -2.833  10.314   9.824  1.00  0.00     0.280 HD
ATOM     22  H31 UNL     1      -2.353  11.830  10.395  1.00  0.00     0.280 HD
ENDBRANCH   9  19
ENDBRANCH   3   5
TORSDOF 3
ENDMDL
MODEL 4
REMARK VINA RESULT: -6.665336573      2.047      3.026
REMARK  3 active torsions:
REMARK  status: ('A' for Active; 'I' for Inactive)
REMARK    1  A    between atoms: C3_3  and  C4_5 
REMARK    2  A    between atoms: C6_7  and  N1_8 
REMARK    3  A    between atoms: C7_14  and  N3_15 
ROOT
HETATM    1  C1  UNL     1       0.883   6.385   8.629  1.00  0.00     0.021 C 
HETATM    2  C2  UNL     1       0.233   6.647   9.598  1.00  0.00    -0.033 C 
HETATM    3  C3  UNL     1      -0.551   6.914  10.854  1.00  0.00     0.246 C 
HETATM    4  O1  UNL     1      -0.682   6.070  11.650  1.00  0.00    -0.276 OA
ENDROOT
BRANCH   3   5
HETATM    5  C4  UNL     1      -1.138   8.294  10.940  1.00  0.00     0.072 C 
HETATM    6  C5  UNL     1      -2.485   8.413  10.391  1.00  0.00     0.115 C 
HETATM    7  C6  UNL     1      -2.785   9.659   9.636  1.00  0.00     0.287 C 
HETATM    8  N2  UNL     1      -1.684  10.547   9.483  1.00  0.00    -0.335 N 
HETATM    9  C7  UNL     1      -0.735  10.588  10.539  1.00  0.00     0.361 C 
ATOM     10  H2  UNL     1      -1.581  11.128   8.651  1.00  0.00     0.160 HD
HETATM   11  C8  UNL     1       0.310  11.548  10.173  1.00  0.00     0.144 C 
HETATM   12  N5  UNL     1      -0.166   9.273  10.716  1.00  0.00    -0.328 N 
HETATM   13  N4  UNL     1       1.156  12.283   9.909  1.00  0.00    -0.191 NA
ATOM     14  H5  UNL     1       0.835   9.080  10.682  1.00  0.00     0.164 HD
BRANCH   7  15
HETATM   15  N1  UNL     1      -3.244   9.300   8.296  1.00  0.00    -0.058 N 
ATOM     16  H13 UNL     1      -3.126   8.307   8.097  1.00  0.00     0.276 HD
ATOM     17  H12 UNL     1      -4.260   9.343   8.208  1.00  0.00     0.276 HD
ATOM     18  H11 UNL     1      -2.769   9.893   7.614  1.00  0.00     0.276 HD
ENDBRANCH   7  15
BRANCH   9  19
HETATM   19  N3  UNL     1      -1.354  11.057  11.764  1.00  0.00    -0.020 N 
ATOM     20  H33 UNL     1      -2.354  10.854  11.785  1.00  0.00     0.280 HD
ATOM     21  H32 UNL     1      -1.069  10.499  12.570  1.00  0.00     0.280 HD
ATOM     22  H31 UNL     1      -1.166  12.049  11.905  1.00  0.00     0.280 HD
ENDBRANCH   9  19
ENDBRANCH   3   5
TORSDOF 3
ENDMDL
MODEL 5
REMARK VINA RESULT: -6.466595898      2.615      4.291
REMARK  3 active torsions:
REMARK  status: ('A' for Active; 'I' for Inactive)
REMARK    1  A    between atoms: C3_3  and  C4_5 
REMARK    2  A    between atoms: C6_7  and  N1_8 
REMARK    3  A    between atoms: C7_14  and  N3_15 
ROOT
HETATM    1  C1  UNL     1      -3.540   9.926   8.594  1.00  0.00     0.021 C 
HETATM    2  C2  UNL     1      -2.345   9.939   8.642  1.00  0.00    -0.033 C 
HETATM    3  C3  UNL     1      -0.844  10.027   8.670  1.00  0.00     0.246 C 
HETATM    4  O1  UNL     1      -0.293  10.802   7.991  1.00  0.00    -0.276 OA
ENDROOT
BRANCH   3   5
HETATM    5  C4  UNL     1      -0.179   9.043   9.588  1.00  0.00     0.072 C 
HETATM    6  C5  UNL     1       0.105   7.747   8.981  1.00  0.00     0.115 C 
HETATM    7  C6  UNL     1      -0.102   6.551   9.842  1.00  0.00     0.287 C 
HETATM    8  N2  UNL     1      -0.626   6.828  11.136  1.00  0.00    -0.335 N 
HETATM    9  C7  UNL     1      -0.249   8.059  11.737  1.00  0.00     0.361 C 
ATOM     10  H2  UNL     1      -1.246   6.172  11.610  1.00  0.00     0.160 HD
HETATM   11  C8  UNL     1      -0.905   8.145  13.044  1.00  0.00     0.144 C 
HETATM   12  N5  UNL     1      -0.674   9.149  10.891  1.00  0.00    -0.328 N 
HETATM   13  N4  UNL     1      -1.418   8.252  14.069  1.00  0.00    -0.191 NA
ATOM     14  H5  UNL     1      -1.271   9.912  11.209  1.00  0.00     0.164 HD
BRANCH   7  15
HETATM   15  N1  UNL     1      -1.037   5.646   9.178  1.00  0.00    -0.058 N 
ATOM     16  H13 UNL     1      -2.009   5.860   9.399  1.00  0.00     0.276 HD
ATOM     17  H12 UNL     1      -1.082   5.805   8.171  1.00  0.00     0.276 HD
ATOM     18  H11 UNL     1      -0.787   4.684   9.410  1.00  0.00     0.276 HD
ENDBRANCH   7  15
BRANCH   9  19
HETATM   19  N3  UNL     1       1.184   8.101  11.958  1.00  0.00    -0.020 N 
ATOM     20  H33 UNL     1       1.691   7.552  11.264  1.00  0.00     0.280 HD
ATOM     21  H32 UNL     1       1.574   9.019  11.742  1.00  0.00     0.280 HD
ATOM     22  H31 UNL     1       1.408   7.809  12.910  1.00  0.00     0.280 HD
ENDBRANCH   9  19
ENDBRANCH   3   5
TORSDOF 3
ENDMDL
