MODEL 1
REMARK VINA RESULT: -7.080268420      0.000      0.000
REMARK  2 active torsions:
REMARK  status: ('A' for Active; 'I' for Inactive)
REMARK       I    between atoms: C2_2  and  N1_4 
REMARK    1  A    between atoms: N1_4  and  C3_6 
REMARK    2  A    between atoms: C4_9  and  N3_10 
ROOT
HETATM    1  C3  UNL     1      -0.129   8.730  10.954  1.00  0.00     0.192 C 
HETATM    2  N2  UNL     1       0.268   9.995  10.749  1.00  0.00    -0.171 N 
ATOM      3  H2  UNL     1       1.138  10.241  11.221  1.00  0.00     0.186 HD
HETATM    4  C4  UNL     1      -0.274  11.003  10.031  1.00  0.00     0.680 C 
HETATM    5  N4  UNL     1      -1.335  10.932   9.178  1.00  0.00    -0.163 N 
ATOM      6  H4  UNL     1      -1.583  11.808   8.719  1.00  0.00     0.187 HD
HETATM    7  C5  UNL     1      -2.107   9.874   8.850  1.00  0.00     0.209 C 
HETATM    8  N5  UNL     1      -3.373  10.117   8.249  1.00  0.00    -0.062 NA
HETATM    9  N6  UNL     1      -1.751   8.570   9.059  1.00  0.00    -0.294 N 
ATOM     10  H6  UNL     1      -2.079   7.895   8.369  1.00  0.00     0.172 HD
HETATM   11  C6  UNL     1      -1.009   8.075  10.081  1.00  0.00     0.292 C 
HETATM   12  O2  UNL     1      -1.079   6.850  10.329  1.00  0.00    -0.264 OA
ENDROOT
BRANCH   1  13
HETATM   13  N1  UNL     1       0.324   7.992  12.067  1.00  0.00    -0.308 N 
HETATM   14  C2  UNL     1      -0.247   7.990  13.356  1.00  0.00     0.219 C 
HETATM   15  C1  UNL     1      -1.431   8.794  13.691  1.00  0.00     0.117 C 
HETATM   16  O1  UNL     1       0.261   7.271  14.290  1.00  0.00    -0.274 OA
ATOM     17  H1  UNL     1       1.145   7.403  11.926  1.00  0.00     0.170 HD
ENDBRANCH   1  13
BRANCH   4  18
HETATM   18  N3  UNL     1       0.266  12.183  10.156  1.00  0.00    -0.234 N 
ATOM     19  H32 UNL     1       1.216  12.192  10.527  1.00  0.00     0.174 HD
ATOM     20  H31 UNL     1      -0.297  12.986   9.878  1.00  0.00     0.174 HD
ENDBRANCH   4  18
TORSDOF 2
ENDMDL
MODEL 2
REMARK VINA RESULT: -6.722176070      4.062      6.118
REMARK  2 active torsions:
REMARK  status: ('A' for Active; 'I' for Inactive)
REMARK       I    between atoms: C2_2  and  N1_4 
REMARK    1  A    between atoms: N1_4  and  C3_6 
REMARK    2  A    between atoms: C4_9  and  N3_10 
ROOT
HETATM    1  C3  UNL     1      -1.659   7.443  15.861  1.00  0.00     0.192 C 
HETATM    2  N2  UNL     1      -1.411   8.209  14.788  1.00  0.00    -0.171 N 
ATOM      3  H2  UNL     1      -2.005   9.036  14.719  1.00  0.00     0.186 HD
HETATM    4  C4  UNL     1      -0.519   8.086  13.781  1.00  0.00     0.680 C 
HETATM    5  N4  UNL     1       0.498   7.183  13.684  1.00  0.00    -0.163 N 
ATOM      6  H4  UNL     1       1.072   7.263  12.845  1.00  0.00     0.187 HD
HETATM    7  C5  UNL     1       0.858   6.197  14.534  1.00  0.00     0.209 C 
HETATM    8  N5  UNL     1       1.693   5.154  14.049  1.00  0.00    -0.062 NA
HETATM    9  N6  UNL     1       0.470   6.134  15.844  1.00  0.00    -0.294 N 
ATOM     10  H6  UNL     1       1.142   5.730  16.496  1.00  0.00     0.172 HD
HETATM   11  C6  UNL     1      -0.708   6.549  16.373  1.00  0.00     0.292 C 
HETATM   12  O2  UNL     1      -1.052   6.097  17.489  1.00  0.00    -0.264 OA
ENDROOT
BRANCH   1  13
HETATM   13  N1  UNL     1      -2.898   7.502  16.532  1.00  0.00    -0.308 N 
HETATM   14  C2  UNL     1      -4.116   6.953  16.085  1.00  0.00     0.219 C 
HETATM   15  C1  UNL     1      -4.229   6.226  14.813  1.00  0.00     0.117 C 
HETATM   16  O1  UNL     1      -5.181   7.074  16.791  1.00  0.00    -0.274 OA
ATOM     17  H1  UNL     1      -2.913   7.990  17.428  1.00  0.00     0.170 HD
ENDBRANCH   1  13
BRANCH   4  18
HETATM   18  N3  UNL     1      -0.628   8.915  12.782  1.00  0.00    -0.234 N 
ATOM     19  H32 UNL     1       0.141   8.899  12.112  1.00  0.00     0.174 HD
ATOM     20  H31 UNL     1      -1.462   9.503  12.751  1.00  0.00     0.174 HD
ENDBRANCH   4  18
TORSDOF 2
ENDMDL
MODEL 3
REMARK VINA RESULT: -6.663523962      1.826      3.486
REMARK  2 active torsions:
REMARK  status: ('A' for Active; 'I' for Inactive)
REMARK       I    between atoms: C2_2  and  N1_4 
REMARK    1  A    between atoms: N1_4  and  C3_6 
REMARK    2  A    between atoms: C4_9  and  N3_10 
ROOT
HETATM    1  C3  UNL     1      -1.195   8.651   9.892  1.00  0.00     0.192 C 
HETATM    2  N2  UNL     1      -1.465   9.213   8.705  1.00  0.00    -0.171 N 
ATOM      3  H2  UNL     1      -2.066   8.650   8.103  1.00  0.00     0.186 HD
HETATM    4  C4  UNL     1      -1.085  10.390   8.159  1.00  0.00     0.680 C 
HETATM    5  N4  UNL     1      -0.420  11.409   8.774  1.00  0.00    -0.163 N 
ATOM      6  H4  UNL     1      -0.237  12.224   8.189  1.00  0.00     0.187 HD
HETATM    7  C5  UNL     1       0.032  11.500  10.043  1.00  0.00     0.209 C 
HETATM    8  N5  UNL     1       1.018  12.479  10.344  1.00  0.00    -0.062 NA
HETATM    9  N6  UNL     1      -0.399  10.706  11.070  1.00  0.00    -0.294 N 
ATOM     10  H6  UNL     1      -0.434  11.139  11.993  1.00  0.00     0.172 HD
HETATM   11  C6  UNL     1      -0.785   9.408  10.999  1.00  0.00     0.292 C 
HETATM   12  O2  UNL     1      -0.796   8.731  12.052  1.00  0.00    -0.264 OA
ENDROOT
BRANCH   1  13
HETATM   13  N1  UNL     1      -1.315   7.259  10.087  1.00  0.00    -0.308 N 
HETATM   14  C2  UNL     1      -0.392   6.277   9.674  1.00  0.00     0.219 C 
HETATM   15  C1  UNL     1       0.849   6.615   8.964  1.00  0.00     0.117 C 
HETATM   16  O1  UNL     1      -0.616   5.035   9.912  1.00  0.00    -0.274 OA
ATOM     17  H1  UNL     1      -2.150   6.932  10.573  1.00  0.00     0.170 HD
ENDBRANCH   1  13
BRANCH   4  18
HETATM   18  N3  UNL     1      -1.379  10.589   6.905  1.00  0.00    -0.234 N 
ATOM     19  H32 UNL     1      -1.873   9.825   6.444  1.00  0.00     0.174 HD
ATOM     20  H31 UNL     1      -1.097  11.479   6.495  1.00  0.00     0.174 HD
ENDBRANCH   4  18
TORSDOF 2
ENDMDL
MODEL 4
REMARK VINA RESULT: -6.508201659      3.808      6.114
REMARK  2 active torsions:
REMARK  status: ('A' for Active; 'I' for Inactive)
REMARK       I    between atoms: C2_2  and  N1_4 
REMARK    1  A    between atoms: N1_4  and  C3_6 
REMARK    2  A    between atoms: C4_9  and  N3_10 
ROOT
HETATM    1  C3  UNL     1      -1.660   8.445  14.144  1.00  0.00     0.192 C 
HETATM    2  N2  UNL     1      -1.545   7.121  13.964  1.00  0.00    -0.171 N 
ATOM      3  H2  UNL     1      -0.764   6.847  13.368  1.00  0.00     0.186 HD
HETATM    4  C4  UNL     1      -2.275   6.083  14.429  1.00  0.00     0.680 C 
HETATM    5  N4  UNL     1      -3.269   6.124  15.361  1.00  0.00    -0.163 N 
ATOM      6  H4  UNL     1      -3.691   5.223  15.587  1.00  0.00     0.187 HD
HETATM    7  C5  UNL     1      -3.780   7.181  16.030  1.00  0.00     0.209 C 
HETATM    8  N5  UNL     1      -5.050   7.040  16.653  1.00  0.00    -0.062 NA
HETATM    9  N6  UNL     1      -3.151   8.389  16.149  1.00  0.00    -0.294 N 
ATOM     10  H6  UNL     1      -3.303   8.894  17.022  1.00  0.00     0.172 HD
HETATM   11  C6  UNL     1      -2.348   8.991  15.237  1.00  0.00     0.292 C 
HETATM   12  O2  UNL     1      -2.155  10.224  15.336  1.00  0.00    -0.264 OA
ENDROOT
BRANCH   1  13
HETATM   13  N1  UNL     1      -1.088   9.359  13.236  1.00  0.00    -0.308 N 
HETATM   14  C2  UNL     1      -1.536   9.625  11.926  1.00  0.00     0.219 C 
HETATM   15  C1  UNL     1      -2.700   8.947  11.342  1.00  0.00     0.117 C 
HETATM   16  O1  UNL     1      -0.926  10.485  11.193  1.00  0.00    -0.274 OA
ATOM     17  H1  UNL     1      -0.270   9.878  13.557  1.00  0.00     0.170 HD
ENDBRANCH   1  13
BRANCH   4  18
HETATM   18  N3  UNL     1      -2.012   4.903  13.943  1.00  0.00    -0.234 N 
ATOM     19  H32 UNL     1      -2.374   4.115  14.481  1.00  0.00     0.174 HD
ATOM     20  H31 UNL     1      -1.473   4.864  13.077  1.00  0.00     0.174 HD
ENDBRANCH   4  18
TORSDOF 2
ENDMDL
MODEL 5
REMARK VINA RESULT: -6.484612192      1.785      1.806
REMARK  2 active torsions:
REMARK  status: ('A' for Active; 'I' for Inactive)
REMARK       I    between atoms: C2_2  and  N1_4 
REMARK    1  A    between atoms: N1_4  and  C3_6 
REMARK    2  A    between atoms: C4_9  and  N3_10 
ROOT
HETATM    1  C3  UNL     1       0.095   8.558  10.717  1.00  0.00     0.192 C 
HETATM    2  N2  UNL     1      -0.390   9.554  11.473  1.00  0.00    -0.171 N 
ATOM      3  H2  UNL     1       0.131   9.715  12.336  1.00  0.00     0.186 HD
HETATM    4  C4  UNL     1      -1.443  10.384  11.302  1.00  0.00     0.680 C 
HETATM    5  N4  UNL     1      -2.221  10.512  10.190  1.00  0.00    -0.163 N 
ATOM      6  H4  UNL     1      -2.963  11.209  10.256  1.00  0.00     0.187 HD
HETATM    7  C5  UNL     1      -2.155   9.854   9.012  1.00  0.00     0.209 C 
HETATM    8  N5  UNL     1      -3.290   9.879   8.156  1.00  0.00    -0.062 NA
HETATM    9  N6  UNL     1      -1.059   9.158   8.583  1.00  0.00    -0.294 N 
ATOM     10  H6  UNL     1      -0.888   9.158   7.578  1.00  0.00     0.172 HD
HETATM   11  C6  UNL     1      -0.174   8.467   9.344  1.00  0.00     0.292 C 
HETATM   12  O2  UNL     1       0.539   7.601   8.790  1.00  0.00    -0.264 OA
ENDROOT
BRANCH   1  13
HETATM   13  N1  UNL     1       0.907   7.547  11.271  1.00  0.00    -0.308 N 
HETATM   14  C2  UNL     1       0.469   6.461  12.055  1.00  0.00     0.219 C 
HETATM   15  C1  UNL     1      -0.946   6.258  12.394  1.00  0.00     0.117 C 
HETATM   16  O1  UNL     1       1.312   5.603  12.504  1.00  0.00    -0.274 OA
ATOM     17  H1  UNL     1       1.909   7.609  11.086  1.00  0.00     0.170 HD
ENDBRANCH   1  13
BRANCH   4  18
HETATM   18  N3  UNL     1      -1.764  11.155  12.302  1.00  0.00    -0.234 N 
ATOM     19  H32 UNL     1      -1.684  12.157  12.127  1.00  0.00     0.174 HD
ATOM     20  H31 UNL     1      -2.065  10.700  13.164  1.00  0.00     0.174 HD
ENDBRANCH   4  18
TORSDOF 2
ENDMDL
