MODEL 1
REMARK VINA RESULT: -7.069459066      0.000      0.000
REMARK  3 active torsions:
REMARK  status: ('A' for Active; 'I' for Inactive)
REMARK    1  A    between atoms: N1_2  and  N2_4 
REMARK    2  A    between atoms: N2_4  and  C2_6 
REMARK    3  A    between atoms: C4_11  and  N4_12 
ROOT
HETATM    1  C2  UNL     1      -1.619   9.478  12.215  1.00  0.00     0.170 A 
HETATM    2  N3  UNL     1      -2.718   8.793  11.766  1.00  0.00    -0.241 N 
ATOM      3  H3  UNL     1      -3.319   8.191  12.328  1.00  0.00     0.196 HD
HETATM    4  O1  UNL     1      -2.860   9.039  10.521  1.00  0.00    -0.229 OA
HETATM    5  C3  UNL     1      -1.952   9.841  10.061  1.00  0.00     0.180 A 
HETATM    6  C4  UNL     1      -1.689  10.392   8.802  1.00  0.00     0.185 A 
HETATM    7  O2  UNL     1      -0.660  11.187   8.678  1.00  0.00    -0.241 OA
HETATM    8  C5  UNL     1       0.126  11.484   9.682  1.00  0.00     0.372 A 
HETATM    9  O3  UNL     1       1.128  12.269   9.527  1.00  0.00    -0.238 OA
HETATM   10  N5  UNL     1      -0.085  10.983  10.906  1.00  0.00    -0.296 N 
ATOM     11  H5  UNL     1       0.540  11.228  11.673  1.00  0.00     0.171 HD
HETATM   12  C6  UNL     1      -1.129  10.150  11.120  1.00  0.00     0.125 A 
ENDROOT
BRANCH   1  13
HETATM   13  N2  UNL     1      -1.182   9.460  13.418  1.00  0.00    -0.287 N 
ATOM     14  H2  UNL     1      -0.222   9.147  13.557  1.00  0.00     0.188 HD
BRANCH  13  15
HETATM   15  N1  UNL     1      -1.876   9.820  14.522  1.00  0.00    -0.339 N 
HETATM   16  C1  UNL     1      -2.406   8.809  15.448  1.00  0.00     0.167 C 
ATOM     17  H1  UNL     1      -2.034  10.809  14.715  1.00  0.00     0.179 HD
ENDBRANCH  13  15
ENDBRANCH   1  13
BRANCH   6  18
HETATM   18  N4  UNL     1      -2.468  10.098   7.806  1.00  0.00    -0.377 N 
ATOM     19  H42 UNL     1      -2.113   9.742   6.918  1.00  0.00     0.158 HD
ATOM     20  H41 UNL     1      -3.476  10.224   7.906  1.00  0.00     0.158 HD
ENDBRANCH   6  18
TORSDOF 3
ENDMDL
MODEL 2
REMARK VINA RESULT: -7.043705129      1.029      1.074
REMARK  3 active torsions:
REMARK  status: ('A' for Active; 'I' for Inactive)
REMARK    1  A    between atoms: N1_2  and  N2_4 
REMARK    2  A    between atoms: N2_4  and  C2_6 
REMARK    3  A    between atoms: C4_11  and  N4_12 
ROOT
HETATM    1  C2  UNL     1      -1.852   9.543  11.984  1.00  0.00     0.170 A 
HETATM    2  N3  UNL     1      -2.877   8.882  11.359  1.00  0.00    -0.241 N 
ATOM      3  H3  UNL     1      -3.560   8.274  11.811  1.00  0.00     0.196 HD
HETATM    4  O1  UNL     1      -2.829   9.158  10.113  1.00  0.00    -0.229 OA
HETATM    5  C3  UNL     1      -1.856   9.960   9.814  1.00  0.00     0.180 A 
HETATM    6  C4  UNL     1      -1.403  10.536   8.623  1.00  0.00     0.185 A 
HETATM    7  O2  UNL     1      -0.360  11.322   8.673  1.00  0.00    -0.241 OA
HETATM    8  C5  UNL     1       0.268  11.587   9.790  1.00  0.00     0.372 A 
HETATM    9  O3  UNL     1       1.289  12.363   9.806  1.00  0.00    -0.238 OA
HETATM   10  N5  UNL     1      -0.127  11.060  10.956  1.00  0.00    -0.296 N 
ATOM     11  H5  UNL     1       0.378  11.280  11.814  1.00  0.00     0.171 HD
HETATM   12  C6  UNL     1      -1.199  10.234  10.992  1.00  0.00     0.125 A 
ENDROOT
BRANCH   1  13
HETATM   13  N2  UNL     1      -1.600   9.493  13.238  1.00  0.00    -0.287 N 
ATOM     14  H2  UNL     1      -2.224  10.011  13.856  1.00  0.00     0.188 HD
BRANCH  13  15
HETATM   15  N1  UNL     1      -0.583   8.816  13.819  1.00  0.00    -0.339 N 
HETATM   16  C1  UNL     1      -0.138   7.517  13.295  1.00  0.00     0.167 C 
ATOM     17  H1  UNL     1      -0.117   9.214  14.634  1.00  0.00     0.179 HD
ENDBRANCH  13  15
ENDBRANCH   1  13
BRANCH   6  18
HETATM   18  N4  UNL     1      -2.027  10.274   7.514  1.00  0.00    -0.377 N 
ATOM     19  H42 UNL     1      -2.963   9.872   7.494  1.00  0.00     0.158 HD
ATOM     20  H41 UNL     1      -1.569  10.476   6.625  1.00  0.00     0.158 HD
ENDBRANCH   6  18
TORSDOF 3
ENDMDL
MODEL 3
REMARK VINA RESULT: -6.486442314      1.756      1.819
REMARK  3 active torsions:
REMARK  status: ('A' for Active; 'I' for Inactive)
REMARK    1  A    between atoms: N1_2  and  N2_4 
REMARK    2  A    between atoms: N2_4  and  C2_6 
REMARK    3  A    between atoms: C4_11  and  N4_12 
ROOT
HETATM    1  C2  UNL     1      -0.119   8.098  11.268  1.00  0.00     0.170 A 
HETATM    2  N3  UNL     1      -1.057   7.279  10.696  1.00  0.00    -0.241 N 
ATOM      3  H3  UNL     1      -1.280   6.328  10.990  1.00  0.00     0.196 HD
HETATM    4  O1  UNL     1      -1.604   7.911   9.731  1.00  0.00    -0.229 OA
HETATM    5  C3  UNL     1      -1.127   9.107   9.580  1.00  0.00     0.180 A 
HETATM    6  C4  UNL     1      -1.393  10.154   8.692  1.00  0.00     0.185 A 
HETATM    7  O2  UNL     1      -0.710  11.261   8.819  1.00  0.00    -0.241 OA
HETATM    8  C5  UNL     1       0.205  11.422   9.740  1.00  0.00     0.372 A 
HETATM    9  O3  UNL     1       0.858  12.521   9.838  1.00  0.00    -0.238 OA
HETATM   10  N5  UNL     1       0.495  10.449  10.614  1.00  0.00    -0.296 N 
ATOM     11  H5  UNL     1       1.212  10.597  11.324  1.00  0.00     0.171 HD
HETATM   12  C6  UNL     1      -0.166   9.270  10.551  1.00  0.00     0.125 A 
ENDROOT
BRANCH   1  13
HETATM   13  N2  UNL     1       0.621   7.786  12.264  1.00  0.00    -0.287 N 
ATOM     14  H2  UNL     1       1.485   7.286  12.059  1.00  0.00     0.188 HD
BRANCH  13  15
HETATM   15  N1  UNL     1       0.363   8.059  13.564  1.00  0.00    -0.339 N 
HETATM   16  C1  UNL     1       0.114   6.981  14.530  1.00  0.00     0.167 C 
ATOM     17  H1  UNL     1       0.341   9.029  13.878  1.00  0.00     0.179 HD
ENDBRANCH  13  15
ENDBRANCH   1  13
BRANCH   6  18
HETATM   18  N4  UNL     1      -2.301   9.995   7.777  1.00  0.00    -0.377 N 
ATOM     19  H42 UNL     1      -3.260   9.725   7.997  1.00  0.00     0.158 HD
ATOM     20  H41 UNL     1      -2.055  10.144   6.798  1.00  0.00     0.158 HD
ENDBRANCH   6  18
TORSDOF 3
ENDMDL
MODEL 4
REMARK VINA RESULT: -6.440357600      2.536      5.151
REMARK  3 active torsions:
REMARK  status: ('A' for Active; 'I' for Inactive)
REMARK    1  A    between atoms: N1_2  and  N2_4 
REMARK    2  A    between atoms: N2_4  and  C2_6 
REMARK    3  A    between atoms: C4_11  and  N4_12 
ROOT
HETATM    1  C2  UNL     1      -1.180   9.672  11.623  1.00  0.00     0.170 A 
HETATM    2  N3  UNL     1      -1.018   8.592  10.794  1.00  0.00    -0.241 N 
ATOM      3  H3  UNL     1      -0.748   8.628   9.811  1.00  0.00     0.196 HD
HETATM    4  O1  UNL     1      -1.265   7.534  11.464  1.00  0.00    -0.229 OA
HETATM    5  C3  UNL     1      -1.585   7.784  12.696  1.00  0.00     0.180 A 
HETATM    6  C4  UNL     1      -1.931   6.985  13.790  1.00  0.00     0.185 A 
HETATM    7  O2  UNL     1      -2.204   7.574  14.924  1.00  0.00    -0.241 OA
HETATM    8  C5  UNL     1      -2.165   8.874  15.069  1.00  0.00     0.372 A 
HETATM    9  O3  UNL     1      -2.439   9.422  16.195  1.00  0.00    -0.238 OA
HETATM   10  N5  UNL     1      -1.839   9.681  14.051  1.00  0.00    -0.296 N 
ATOM     11  H5  UNL     1      -1.815  10.691  14.187  1.00  0.00     0.171 HD
HETATM   12  C6  UNL     1      -1.542   9.151  12.842  1.00  0.00     0.125 A 
ENDROOT
BRANCH   1  13
HETATM   13  N2  UNL     1      -1.013  10.894  11.280  1.00  0.00    -0.287 N 
ATOM     14  H2  UNL     1      -1.805  11.523  11.411  1.00  0.00     0.188 HD
BRANCH  13  15
HETATM   15  N1  UNL     1       0.117  11.429  10.762  1.00  0.00    -0.339 N 
HETATM   16  C1  UNL     1       0.251  11.663   9.317  1.00  0.00     0.167 C 
ATOM     17  H1  UNL     1       0.887  11.672  11.383  1.00  0.00     0.179 HD
ENDBRANCH  13  15
ENDBRANCH   1  13
BRANCH   6  18
HETATM   18  N4  UNL     1      -1.970   5.694  13.647  1.00  0.00    -0.377 N 
ATOM     19  H42 UNL     1      -1.470   5.059  14.269  1.00  0.00     0.158 HD
ATOM     20  H41 UNL     1      -2.519   5.293  12.887  1.00  0.00     0.158 HD
ENDBRANCH   6  18
TORSDOF 3
ENDMDL
MODEL 5
REMARK VINA RESULT: -6.429109721      2.810      4.104
REMARK  3 active torsions:
REMARK  status: ('A' for Active; 'I' for Inactive)
REMARK    1  A    between atoms: N1_2  and  N2_4 
REMARK    2  A    between atoms: N2_4  and  C2_6 
REMARK    3  A    between atoms: C4_11  and  N4_12 
ROOT
HETATM    1  C2  UNL     1      -0.683   7.624   9.948  1.00  0.00     0.170 A 
HETATM    2  N3  UNL     1      -0.253   7.842  11.231  1.00  0.00    -0.241 N 
ATOM      3  H3  UNL     1      -0.142   7.131  11.953  1.00  0.00     0.196 HD
HETATM    4  O1  UNL     1      -0.016   9.090  11.365  1.00  0.00    -0.229 OA
HETATM    5  C3  UNL     1      -0.243   9.764  10.281  1.00  0.00     0.180 A 
HETATM    6  C4  UNL     1      -0.136  11.115   9.937  1.00  0.00     0.185 A 
HETATM    7  O2  UNL     1      -0.455  11.470   8.720  1.00  0.00    -0.241 OA
HETATM    8  C5  UNL     1      -0.867  10.613   7.822  1.00  0.00     0.372 A 
HETATM    9  O3  UNL     1      -1.172  10.993   6.636  1.00  0.00    -0.238 OA
HETATM   10  N5  UNL     1      -0.985   9.309   8.103  1.00  0.00    -0.296 N 
ATOM     11  H5  UNL     1      -1.308   8.659   7.387  1.00  0.00     0.171 HD
HETATM   12  C6  UNL     1      -0.676   8.857   9.341  1.00  0.00     0.125 A 
ENDROOT
BRANCH   1  13
HETATM   13  N2  UNL     1      -1.011   6.485   9.465  1.00  0.00    -0.287 N 
ATOM     14  H2  UNL     1      -1.909   6.100   9.757  1.00  0.00     0.188 HD
BRANCH  13  15
HETATM   15  N1  UNL     1      -0.277   5.744   8.603  1.00  0.00    -0.339 N 
HETATM   16  C1  UNL     1       0.463   4.560   9.061  1.00  0.00     0.167 C 
ATOM     17  H1  UNL     1      -0.237   6.012   7.620  1.00  0.00     0.179 HD
ENDBRANCH  13  15
ENDBRANCH   1  13
BRANCH   6  18
HETATM   18  N4  UNL     1       0.273  11.967  10.828  1.00  0.00    -0.377 N 
ATOM     19  H42 UNL     1      -0.366  12.583  11.331  1.00  0.00     0.158 HD
ATOM     20  H41 UNL     1       1.269  12.028  11.040  1.00  0.00     0.158 HD
ENDBRANCH   6  18
TORSDOF 3
ENDMDL
