MODEL 1
REMARK VINA RESULT: -7.690387867      0.000      0.000
REMARK  5 active torsions:
REMARK  status: ('A' for Active; 'I' for Inactive)
REMARK    1  A    between atoms: O1_2  and  N1_3 
REMARK    2  A    between atoms: C2_5  and  C3_6 
REMARK    3  A    between atoms: C3_6  and  C4_7 
REMARK    4  A    between atoms: C6_9  and  C7_10 
REMARK    5  A    between atoms: C6_9  and  C8_13 
ROOT
HETATM    1  C4  UNL     1      -0.681   6.339  14.196  1.00  0.00     0.161 C 
HETATM    2  C5  UNL     1      -1.786   5.427  14.632  1.00  0.00     0.103 C 
HETATM    3  C6  UNL     1      -2.433   6.085  15.829  1.00  0.00     0.301 C 
HETATM    4  N2  UNL     1      -1.859   7.392  15.950  1.00  0.00    -0.039 N 
ATOM      5  H21 UNL     1      -1.305   7.497  16.799  1.00  0.00     0.280 HD
ATOM      6  H22 UNL     1      -2.558   8.108  16.147  1.00  0.00     0.280 HD
HETATM    7  C9  UNL     1      -1.105   7.674  14.765  1.00  0.00     0.224 C 
HETATM    8  C10 UNL     1      -1.966   8.419  13.758  1.00  0.00     0.041 C 
HETATM    9  C11 UNL     1      -1.075   8.760  12.579  1.00  0.00     0.009 C 
HETATM   10  C12 UNL     1      -1.868   8.785  11.277  1.00  0.00     0.011 C 
HETATM   11  C13 UNL     1       0.005   7.692  12.400  1.00  0.00     0.237 C 
HETATM   12  N3  UNL     1      -0.544   6.418  12.763  1.00  0.00    -0.063 N 
ATOM     13  H31 UNL     1      -1.422   6.226  12.282  1.00  0.00     0.278 HD
ATOM     14  H32 UNL     1       0.003   5.643  12.386  1.00  0.00     0.278 HD
ENDROOT
BRANCH   1  15
HETATM   15  C3  UNL     1       0.643   5.940  14.791  1.00  0.00     0.087 C 
BRANCH  15  16
HETATM   16  C2  UNL     1       0.925   4.507  14.619  1.00  0.00     0.089 C 
HETATM   17  N1  UNL     1       1.709   4.154  13.657  1.00  0.00    -0.282 N 
ATOM     18  H1  UNL     1       1.901   3.159  13.541  1.00  0.00     0.193 HD
BRANCH  17  19
HETATM   19  O1  UNL     1       2.293   5.017  12.792  1.00  0.00    -0.286 OA
HETATM   20  C1  UNL     1       2.293   4.708  11.411  1.00  0.00     0.237 C 
ENDBRANCH  17  19
ENDBRANCH  15  16
ENDBRANCH   1  15
BRANCH   3  21
HETATM   21  C7  UNL     1      -3.891   6.173  15.710  1.00  0.00     0.222 C 
HETATM   22  O2  UNL     1      -4.441   5.819  14.638  1.00  0.00    -0.646 OA
HETATM   23  O3  UNL     1      -4.734   6.625  16.713  1.00  0.00    -0.646 OA
ENDBRANCH   3  21
BRANCH   3  24
HETATM   24  C8  UNL     1      -2.132   5.223  17.001  1.00  0.00     0.222 C 
HETATM   25  O4  UNL     1      -2.213   3.974  16.923  1.00  0.00    -0.646 OA
HETATM   26  O5  UNL     1      -1.760   5.856  18.176  1.00  0.00    -0.646 OA
ENDBRANCH   3  24
TORSDOF 5
ENDMDL
MODEL 2
REMARK VINA RESULT: -7.377773005      1.133      1.623
REMARK  5 active torsions:
REMARK  status: ('A' for Active; 'I' for Inactive)
REMARK    1  A    between atoms: O1_2  and  N1_3 
REMARK    2  A    between atoms: C2_5  and  C3_6 
REMARK    3  A    between atoms: C3_6  and  C4_7 
REMARK    4  A    between atoms: C6_9  and  C7_10 
REMARK    5  A    between atoms: C6_9  and  C8_13 
ROOT
HETATM    1  C4  UNL     1      -0.689   6.266  14.162  1.00  0.00     0.161 C 
HETATM    2  C5  UNL     1      -1.829   5.400  14.600  1.00  0.00     0.103 C 
HETATM    3  C6  UNL     1      -2.457   6.092  15.788  1.00  0.00     0.301 C 
HETATM    4  N2  UNL     1      -1.835   7.377  15.901  1.00  0.00    -0.039 N 
ATOM      5  H21 UNL     1      -1.282   7.469  16.753  1.00  0.00     0.280 HD
ATOM      6  H22 UNL     1      -2.507   8.121  16.089  1.00  0.00     0.280 HD
HETATM    7  C9  UNL     1      -1.065   7.621  14.718  1.00  0.00     0.224 C 
HETATM    8  C10 UNL     1      -1.892   8.389  13.700  1.00  0.00     0.041 C 
HETATM    9  C11 UNL     1      -0.983   8.687  12.523  1.00  0.00     0.009 C 
HETATM   10  C12 UNL     1      -1.768   8.730  11.216  1.00  0.00     0.011 C 
HETATM   11  C13 UNL     1       0.056   7.577  12.359  1.00  0.00     0.237 C 
HETATM   12  N3  UNL     1      -0.541   6.327  12.730  1.00  0.00    -0.063 N 
ATOM     13  H31 UNL     1      -1.423   6.165  12.245  1.00  0.00     0.278 HD
ATOM     14  H32 UNL     1      -0.022   5.529  12.362  1.00  0.00     0.278 HD
ENDROOT
BRANCH   1  15
HETATM   15  C3  UNL     1       0.616   5.823  14.768  1.00  0.00     0.087 C 
BRANCH  15  16
HETATM   16  C2  UNL     1       1.150   4.613  14.124  1.00  0.00     0.089 C 
HETATM   17  N1  UNL     1       1.194   3.526  14.816  1.00  0.00    -0.282 N 
ATOM     18  H1  UNL     1       1.567   2.690  14.365  1.00  0.00     0.193 HD
BRANCH  17  19
HETATM   19  O1  UNL     1       0.779   3.421  16.100  1.00  0.00    -0.286 OA
HETATM   20  C1  UNL     1       0.656   2.134  16.677  1.00  0.00     0.237 C 
ENDBRANCH  17  19
ENDBRANCH  15  16
ENDBRANCH   1  15
BRANCH   3  21
HETATM   21  C7  UNL     1      -3.910   6.233  15.661  1.00  0.00     0.222 C 
HETATM   22  O2  UNL     1      -4.467   5.893  14.588  1.00  0.00    -0.646 OA
HETATM   23  O3  UNL     1      -4.741   6.724  16.656  1.00  0.00    -0.646 OA
ENDBRANCH   3  21
BRANCH   3  24
HETATM   24  C8  UNL     1      -2.195   5.229  16.969  1.00  0.00     0.222 C 
HETATM   25  O4  UNL     1      -2.376   3.989  16.917  1.00  0.00    -0.646 OA
HETATM   26  O5  UNL     1      -1.743   5.851  18.122  1.00  0.00    -0.646 OA
ENDBRANCH   3  24
TORSDOF 5
ENDMDL
MODEL 3
REMARK VINA RESULT: -7.333802622      1.809      3.849
REMARK  5 active torsions:
REMARK  status: ('A' for Active; 'I' for Inactive)
REMARK    1  A    between atoms: O1_2  and  N1_3 
REMARK    2  A    between atoms: C2_5  and  C3_6 
REMARK    3  A    between atoms: C3_6  and  C4_7 
REMARK    4  A    between atoms: C6_9  and  C7_10 
REMARK    5  A    between atoms: C6_9  and  C8_13 
ROOT
HETATM    1  C4  UNL     1      -1.112   6.627  13.903  1.00  0.00     0.161 C 
HETATM    2  C5  UNL     1      -1.331   7.085  15.312  1.00  0.00     0.103 C 
HETATM    3  C6  UNL     1      -2.473   6.256  15.855  1.00  0.00     0.301 C 
HETATM    4  N2  UNL     1      -2.759   5.248  14.880  1.00  0.00    -0.039 N 
ATOM      5  H21 UNL     1      -3.681   5.363  14.459  1.00  0.00     0.280 HD
ATOM      6  H22 UNL     1      -2.910   4.331  15.300  1.00  0.00     0.280 HD
HETATM    7  C9  UNL     1      -1.710   5.238  13.906  1.00  0.00     0.224 C 
HETATM    8  C10 UNL     1      -0.649   4.216  14.284  1.00  0.00     0.041 C 
HETATM    9  C11 UNL     1       0.373   4.201  13.163  1.00  0.00     0.009 C 
HETATM   10  C12 UNL     1       1.765   3.871  13.690  1.00  0.00     0.011 C 
HETATM   11  C13 UNL     1       0.478   5.585  12.519  1.00  0.00     0.237 C 
HETATM   12  N3  UNL     1       0.281   6.580  13.532  1.00  0.00    -0.063 N 
ATOM     13  H31 UNL     1       0.888   6.434  14.338  1.00  0.00     0.278 HD
ATOM     14  H32 UNL     1       0.633   7.494  13.247  1.00  0.00     0.278 HD
ENDROOT
BRANCH   1  15
HETATM   15  C3  UNL     1      -1.851   7.487  12.913  1.00  0.00     0.087 C 
BRANCH  15  16
HETATM   16  C2  UNL     1      -1.472   8.905  13.010  1.00  0.00     0.089 C 
HETATM   17  N1  UNL     1      -0.703   9.392  12.096  1.00  0.00    -0.282 N 
ATOM     18  H1  UNL     1      -0.443  10.375  12.168  1.00  0.00     0.193 HD
BRANCH  17  19
HETATM   19  O1  UNL     1      -0.220   8.684  11.047  1.00  0.00    -0.286 OA
HETATM   20  C1  UNL     1      -0.170   9.298   9.772  1.00  0.00     0.237 C 
ENDBRANCH  17  19
ENDBRANCH  15  16
ENDBRANCH   1  15
BRANCH   3  21
HETATM   21  C7  UNL     1      -2.165   5.646  17.152  1.00  0.00     0.222 C 
HETATM   22  O2  UNL     1      -2.552   4.475  17.385  1.00  0.00    -0.646 OA
HETATM   23  O3  UNL     1      -1.462   6.275  18.167  1.00  0.00    -0.646 OA
ENDBRANCH   3  21
BRANCH   3  24
HETATM   24  C8  UNL     1      -3.611   7.188  16.060  1.00  0.00     0.222 C 
HETATM   25  O4  UNL     1      -3.479   8.422  15.880  1.00  0.00    -0.646 OA
HETATM   26  O5  UNL     1      -4.820   6.636  16.456  1.00  0.00    -0.646 OA
ENDBRANCH   3  24
TORSDOF 5
ENDMDL
MODEL 4
REMARK VINA RESULT: -7.242347848      2.689      4.689
REMARK  5 active torsions:
REMARK  status: ('A' for Active; 'I' for Inactive)
REMARK    1  A    between atoms: O1_2  and  N1_3 
REMARK    2  A    between atoms: C2_5  and  C3_6 
REMARK    3  A    between atoms: C3_6  and  C4_7 
REMARK    4  A    between atoms: C6_9  and  C7_10 
REMARK    5  A    between atoms: C6_9  and  C8_13 
ROOT
HETATM    1  C4  UNL     1      -0.551   7.794  12.335  1.00  0.00     0.161 C 
HETATM    2  C5  UNL     1      -0.388   8.134  13.783  1.00  0.00     0.103 C 
HETATM    3  C6  UNL     1      -1.289   7.190  14.547  1.00  0.00     0.301 C 
HETATM    4  N2  UNL     1      -1.788   6.235  13.604  1.00  0.00    -0.039 N 
ATOM      5  H21 UNL     1      -2.796   6.313  13.466  1.00  0.00     0.280 HD
ATOM      6  H22 UNL     1      -1.769   5.282  13.967  1.00  0.00     0.280 HD
HETATM    7  C9  UNL     1      -1.056   6.369  12.381  1.00  0.00     0.224 C 
HETATM    8  C10 UNL     1       0.117   5.402  12.361  1.00  0.00     0.041 C 
HETATM    9  C11 UNL     1       0.783   5.539  11.004  1.00  0.00     0.009 C 
HETATM   10  C12 UNL     1       2.281   5.273  11.095  1.00  0.00     0.011 C 
HETATM   11  C13 UNL     1       0.634   6.968  10.480  1.00  0.00     0.237 C 
HETATM   12  N3  UNL     1       0.681   7.873  11.591  1.00  0.00    -0.063 N 
ATOM     13  H31 UNL     1       1.497   7.715  12.182  1.00  0.00     0.278 HD
ATOM     14  H32 UNL     1       0.893   8.828  11.300  1.00  0.00     0.278 HD
ENDROOT
BRANCH   1  15
HETATM   15  C3  UNL     1      -1.580   8.666  11.666  1.00  0.00     0.087 C 
BRANCH  15  16
HETATM   16  C2  UNL     1      -1.104  10.043  11.469  1.00  0.00     0.089 C 
HETATM   17  N1  UNL     1      -1.511  10.682  10.425  1.00  0.00    -0.282 N 
ATOM     18  H1  UNL     1      -1.177  11.637  10.292  1.00  0.00     0.193 HD
BRANCH  17  19
HETATM   19  O1  UNL     1      -2.351  10.170   9.495  1.00  0.00    -0.286 OA
HETATM   20  C1  UNL     1      -2.061  10.372   8.124  1.00  0.00     0.237 C 
ENDBRANCH  17  19
ENDBRANCH  15  16
ENDBRANCH   1  15
BRANCH   3  21
HETATM   21  C7  UNL     1      -0.599   6.514  15.649  1.00  0.00     0.222 C 
HETATM   22  O2  UNL     1       0.644   6.350  15.585  1.00  0.00    -0.646 OA
HETATM   23  O3  UNL     1      -1.226   6.030  16.786  1.00  0.00    -0.646 OA
ENDBRANCH   3  21
BRANCH   3  24
HETATM   24  C8  UNL     1      -2.369   8.021  15.139  1.00  0.00     0.222 C 
HETATM   25  O4  UNL     1      -2.154   9.204  15.494  1.00  0.00    -0.646 OA
HETATM   26  O5  UNL     1      -3.616   7.434  15.279  1.00  0.00    -0.646 OA
ENDBRANCH   3  24
TORSDOF 5
ENDMDL
MODEL 5
REMARK VINA RESULT: -7.098979156      2.230      3.075
REMARK  5 active torsions:
REMARK  status: ('A' for Active; 'I' for Inactive)
REMARK    1  A    between atoms: O1_2  and  N1_3 
REMARK    2  A    between atoms: C2_5  and  C3_6 
REMARK    3  A    between atoms: C3_6  and  C4_7 
REMARK    4  A    between atoms: C6_9  and  C7_10 
REMARK    5  A    between atoms: C6_9  and  C8_13 
ROOT
HETATM    1  C4  UNL     1      -0.335   7.165  11.447  1.00  0.00     0.161 C 
HETATM    2  C5  UNL     1      -1.075   6.408  12.505  1.00  0.00     0.103 C 
HETATM    3  C6  UNL     1      -1.030   7.263  13.751  1.00  0.00     0.301 C 
HETATM    4  N2  UNL     1      -0.467   8.525  13.372  1.00  0.00    -0.039 N 
ATOM      5  H21 UNL     1       0.439   8.694  13.808  1.00  0.00     0.280 HD
ATOM      6  H22 UNL     1      -0.969   9.313  13.780  1.00  0.00     0.280 HD
HETATM    7  C9  UNL     1      -0.409   8.592  11.943  1.00  0.00     0.224 C 
HETATM    8  C10 UNL     1      -1.656   9.268  11.396  1.00  0.00     0.041 C 
HETATM    9  C11 UNL     1      -1.477   9.384   9.894  1.00  0.00     0.009 C 
HETATM   10  C12 UNL     1      -2.816   9.304   9.171  1.00  0.00     0.011 C 
HETATM   11  C13 UNL     1      -0.638   8.219   9.367  1.00  0.00     0.237 C 
HETATM   12  N3  UNL     1      -0.935   7.049  10.142  1.00  0.00    -0.063 N 
ATOM     13  H31 UNL     1      -1.937   6.868  10.194  1.00  0.00     0.278 HD
ATOM     14  H32 UNL     1      -0.655   6.191   9.665  1.00  0.00     0.278 HD
ENDROOT
BRANCH   1  15
HETATM   15  C3  UNL     1       1.107   6.742  11.359  1.00  0.00     0.087 C 
BRANCH  15  16
HETATM   16  C2  UNL     1       1.275   5.290  11.516  1.00  0.00     0.089 C 
HETATM   17  N1  UNL     1       1.353   4.569  10.450  1.00  0.00    -0.282 N 
ATOM     18  H1  UNL     1       1.468   3.561  10.563  1.00  0.00     0.193 HD
BRANCH  17  19
HETATM   19  O1  UNL     1       1.292   5.060   9.189  1.00  0.00    -0.286 OA
HETATM   20  C1  UNL     1       0.549   4.353   8.213  1.00  0.00     0.237 C 
ENDBRANCH  17  19
ENDBRANCH  15  16
ENDBRANCH   1  15
BRANCH   3  21
HETATM   21  C7  UNL     1      -2.350   7.450  14.359  1.00  0.00     0.222 C 
HETATM   22  O2  UNL     1      -3.346   6.879  13.850  1.00  0.00    -0.646 OA
HETATM   23  O3  UNL     1      -2.593   8.225  15.481  1.00  0.00    -0.646 OA
ENDBRANCH   3  21
BRANCH   3  24
HETATM   24  C8  UNL     1      -0.185   6.537  14.733  1.00  0.00     0.222 C 
HETATM   25  O4  UNL     1       1.018   6.845  14.906  1.00  0.00    -0.646 OA
HETATM   26  O5  UNL     1      -0.782   5.510  15.447  1.00  0.00    -0.646 OA
ENDBRANCH   3  24
TORSDOF 5
ENDMDL
