MODEL 1
REMARK VINA RESULT: -8.658815319      0.000      0.000
REMARK  6 active torsions:
REMARK  status: ('A' for Active; 'I' for Inactive)
REMARK    1  A    between atoms: C3_3  and  O1_4 
REMARK    2  A    between atoms: C5_10  and  C6_11 
REMARK    3  A    between atoms: C5_10  and  C8_13 
REMARK    4  A    between atoms: C8_13  and  O3_15 
REMARK    5  A    between atoms: O3_15  and  C9_16 
REMARK    6  A    between atoms: C11_18  and  C12_19 
ROOT
HETATM    1  C1  UNL     1       0.196  12.312   8.247  1.00  0.00     0.017 C 
HETATM    2  C2  UNL     1      -0.144  11.435   8.949  1.00  0.00    -0.048 C 
HETATM    3  C3  UNL     1      -0.622  10.383   9.806  1.00  0.00     0.256 C 
HETATM    4  C4  UNL     1      -2.043   9.968   9.352  1.00  0.00     0.319 C 
HETATM    5  N1  UNL     1      -2.191   8.794  10.149  1.00  0.00    -0.027 N 
ATOM      6  H11 UNL     1      -2.876   8.141   9.771  1.00  0.00     0.281 HD
ATOM      7  H12 UNL     1      -2.655   8.974  11.039  1.00  0.00     0.281 HD
HETATM    8  C5  UNL     1      -0.876   8.207  10.305  1.00  0.00     0.318 C 
HETATM    9  O4  UNL     1      -0.000   9.165   9.710  1.00  0.00    -0.297 OA
ENDROOT
BRANCH   3  10
HETATM   10  O1  UNL     1      -0.756  10.806  11.117  1.00  0.00    -0.354 OA
ATOM     11  H1  UNL     1      -1.387  10.282  11.597  1.00  0.00     0.214 HD
ENDBRANCH   3  10
BRANCH   8  12
HETATM   12  C6  UNL     1      -0.756   6.936   9.602  1.00  0.00     0.076 C 
HETATM   13  C7  UNL     1       0.509   6.673   8.873  1.00  0.00     0.010 C 
ENDBRANCH   8  12
BRANCH   8  14
HETATM   14  C8  UNL     1      -0.580   8.181  11.795  1.00  0.00     0.328 C 
HETATM   15  O2  UNL     1       0.538   8.029  12.288  1.00  0.00    -0.259 OA
BRANCH  14  16
HETATM   16  O3  UNL     1      -1.667   8.378  12.575  1.00  0.00    -0.280 OA
BRANCH  16  17
HETATM   17  C9  UNL     1      -2.212   7.810  13.659  1.00  0.00     0.054 C 
HETATM   18  C10 UNL     1      -2.929   6.710  13.734  1.00  0.00     0.018 C 
HETATM   19  C11 UNL     1      -3.553   6.098  14.924  1.00  0.00     0.075 C 
HETATM   20  C13 UNL     1      -3.322   6.876  16.201  1.00  0.00     0.016 C 
HETATM   21  C14 UNL     1      -3.120   8.356  15.925  1.00  0.00     0.007 C 
HETATM   22  C15 UNL     1      -1.959   8.535  14.985  1.00  0.00     0.065 C 
BRANCH  19  23
HETATM   23  C12 UNL     1      -3.314   4.671  15.093  1.00  0.00     0.094 C 
HETATM   24  N2  UNL     1      -2.246   4.274  15.790  1.00  0.00    -0.391 N 
ATOM     25  H22 UNL     1      -1.674   5.046  16.131  1.00  0.00     0.157 HD
ATOM     26  H21 UNL     1      -2.079   3.275  15.909  1.00  0.00     0.157 HD
HETATM   27  N3  UNL     1      -4.108   3.600  14.620  1.00  0.00    -0.087 NA
ENDBRANCH  19  23
ENDBRANCH  16  17
ENDBRANCH  14  16
ENDBRANCH   8  14
TORSDOF 6
ENDMDL
MODEL 2
REMARK VINA RESULT: -8.478819949      2.427      6.867
REMARK  6 active torsions:
REMARK  status: ('A' for Active; 'I' for Inactive)
REMARK    1  A    between atoms: C3_3  and  O1_4 
REMARK    2  A    between atoms: C5_10  and  C6_11 
REMARK    3  A    between atoms: C5_10  and  C8_13 
REMARK    4  A    between atoms: C8_13  and  O3_15 
REMARK    5  A    between atoms: O3_15  and  C9_16 
REMARK    6  A    between atoms: C11_18  and  C12_19 
ROOT
HETATM    1  C1  UNL     1      -3.330   3.448  14.497  1.00  0.00     0.017 C 
HETATM    2  C2  UNL     1      -2.813   4.487  14.326  1.00  0.00    -0.048 C 
HETATM    3  C3  UNL     1      -2.163   5.763  14.180  1.00  0.00     0.256 C 
HETATM    4  C4  UNL     1      -0.942   5.819  15.130  1.00  0.00     0.319 C 
HETATM    5  N1  UNL     1      -0.341   7.016  14.639  1.00  0.00    -0.027 N 
ATOM      6  H11 UNL     1       0.656   7.074  14.845  1.00  0.00     0.281 HD
ATOM      7  H12 UNL     1      -0.631   7.847  15.154  1.00  0.00     0.281 HD
HETATM    8  C5  UNL     1      -0.631   7.098  13.222  1.00  0.00     0.318 C 
HETATM    9  O4  UNL     1      -1.524   6.009  12.992  1.00  0.00    -0.297 OA
ENDROOT
BRANCH   3  10
HETATM   10  O1  UNL     1      -2.986   6.808  14.564  1.00  0.00    -0.354 OA
ATOM     11  H1  UNL     1      -3.073   6.862  15.509  1.00  0.00     0.214 HD
ENDBRANCH   3  10
BRANCH   8  12
HETATM   12  C6  UNL     1       0.565   6.927  12.407  1.00  0.00     0.076 C 
HETATM   13  C7  UNL     1       0.456   6.068  11.202  1.00  0.00     0.010 C 
ENDBRANCH   8  12
BRANCH   8  14
HETATM   14  C8  UNL     1      -1.412   8.383  13.007  1.00  0.00     0.328 C 
HETATM   15  O2  UNL     1      -1.468   9.315  13.809  1.00  0.00    -0.259 OA
BRANCH  14  16
HETATM   16  O3  UNL     1      -2.040   8.451  11.812  1.00  0.00    -0.280 OA
BRANCH  16  17
HETATM   17  C9  UNL     1      -1.916   9.152  10.677  1.00  0.00     0.054 C 
HETATM   18  C10 UNL     1      -1.406  10.353  10.507  1.00  0.00     0.018 C 
HETATM   19  C11 UNL     1      -1.293  11.137   9.262  1.00  0.00     0.075 C 
HETATM   20  C13 UNL     1      -1.861  10.436   8.047  1.00  0.00     0.016 C 
HETATM   21  C14 UNL     1      -2.965   9.465   8.427  1.00  0.00     0.007 C 
HETATM   22  C15 UNL     1      -2.429   8.459   9.410  1.00  0.00     0.065 C 
BRANCH  19  23
HETATM   23  C12 UNL     1       0.017  11.720   9.004  1.00  0.00     0.094 C 
HETATM   24  N2  UNL     1       0.780  12.076  10.041  1.00  0.00    -0.391 N 
ATOM     25  H22 UNL     1       0.339  11.911  10.946  1.00  0.00     0.157 HD
ATOM     26  H21 UNL     1       1.697  12.484   9.860  1.00  0.00     0.157 HD
HETATM   27  N3  UNL     1       0.629  11.949   7.750  1.00  0.00    -0.087 NA
ENDBRANCH  19  23
ENDBRANCH  16  17
ENDBRANCH  14  16
ENDBRANCH   8  14
TORSDOF 6
ENDMDL
MODEL 3
REMARK VINA RESULT: -8.430030474      1.572      1.953
REMARK  6 active torsions:
REMARK  status: ('A' for Active; 'I' for Inactive)
REMARK    1  A    between atoms: C3_3  and  O1_4 
REMARK    2  A    between atoms: C5_10  and  C6_11 
REMARK    3  A    between atoms: C5_10  and  C8_13 
REMARK    4  A    between atoms: C8_13  and  O3_15 
REMARK    5  A    between atoms: O3_15  and  C9_16 
REMARK    6  A    between atoms: C11_18  and  C12_19 
ROOT
HETATM    1  C1  UNL     1       0.035  12.018   8.142  1.00  0.00     0.017 C 
HETATM    2  C2  UNL     1      -0.165  11.144   8.897  1.00  0.00    -0.048 C 
HETATM    3  C3  UNL     1      -0.470  10.095   9.834  1.00  0.00     0.256 C 
HETATM    4  C4  UNL     1      -1.966   9.720   9.702  1.00  0.00     0.319 C 
HETATM    5  N1  UNL     1      -1.967   8.542  10.506  1.00  0.00    -0.027 N 
ATOM      6  H11 UNL     1      -2.735   7.910  10.286  1.00  0.00     0.281 HD
ATOM      7  H12 UNL     1      -2.219   8.724  11.478  1.00  0.00     0.281 HD
HETATM    8  C5  UNL     1      -0.666   7.920  10.367  1.00  0.00     0.318 C 
HETATM    9  O4  UNL     1       0.083   8.862   9.597  1.00  0.00    -0.297 OA
ENDROOT
BRANCH   3  10
HETATM   10  O1  UNL     1      -0.301  10.507  11.145  1.00  0.00    -0.354 OA
ATOM     11  H1  UNL     1      -0.345   9.780  11.754  1.00  0.00     0.214 HD
ENDBRANCH   3  10
BRANCH   8  12
HETATM   12  C6  UNL     1      -0.738   6.655   9.649  1.00  0.00     0.076 C 
HETATM   13  C7  UNL     1       0.441   6.257   8.839  1.00  0.00     0.010 C 
ENDBRANCH   8  12
BRANCH   8  14
HETATM   14  C8  UNL     1      -0.050   7.872  11.755  1.00  0.00     0.328 C 
HETATM   15  O2  UNL     1       1.155   7.771  11.986  1.00  0.00    -0.259 OA
BRANCH  14  16
HETATM   16  O3  UNL     1      -0.948   7.985  12.759  1.00  0.00    -0.280 OA
BRANCH  16  17
HETATM   17  C9  UNL     1      -1.437   7.201  13.729  1.00  0.00     0.054 C 
HETATM   18  C10 UNL     1      -0.779   6.518  14.640  1.00  0.00     0.018 C 
HETATM   19  C11 UNL     1      -1.315   5.633  15.692  1.00  0.00     0.075 C 
HETATM   20  C13 UNL     1      -2.824   5.516  15.679  1.00  0.00     0.016 C 
HETATM   21  C14 UNL     1      -3.390   5.741  14.287  1.00  0.00     0.007 C 
HETATM   22  C15 UNL     1      -2.965   7.094  13.789  1.00  0.00     0.065 C 
BRANCH  19  23
HETATM   23  C12 UNL     1      -0.788   5.859  17.032  1.00  0.00     0.094 C 
HETATM   24  N2  UNL     1      -0.002   4.930  17.581  1.00  0.00    -0.391 N 
ATOM     25  H22 UNL     1       0.140   4.114  16.985  1.00  0.00     0.157 HD
ATOM     26  H21 UNL     1       0.367   5.088  18.519  1.00  0.00     0.157 HD
HETATM   27  N3  UNL     1      -0.985   6.990  17.858  1.00  0.00    -0.087 NA
ENDBRANCH  19  23
ENDBRANCH  16  17
ENDBRANCH  14  16
ENDBRANCH   8  14
TORSDOF 6
ENDMDL
MODEL 4
REMARK VINA RESULT: -8.419790699      2.249      6.942
REMARK  6 active torsions:
REMARK  status: ('A' for Active; 'I' for Inactive)
REMARK    1  A    between atoms: C3_3  and  O1_4 
REMARK    2  A    between atoms: C5_10  and  C6_11 
REMARK    3  A    between atoms: C5_10  and  C8_13 
REMARK    4  A    between atoms: C8_13  and  O3_15 
REMARK    5  A    between atoms: O3_15  and  C9_16 
REMARK    6  A    between atoms: C11_18  and  C12_19 
ROOT
HETATM    1  C1  UNL     1      -3.707   3.356  14.528  1.00  0.00     0.017 C 
HETATM    2  C2  UNL     1      -3.216   4.419  14.598  1.00  0.00    -0.048 C 
HETATM    3  C3  UNL     1      -2.630   5.725  14.747  1.00  0.00     0.256 C 
HETATM    4  C4  UNL     1      -1.984   5.831  16.150  1.00  0.00     0.319 C 
HETATM    5  N1  UNL     1      -1.279   7.058  15.972  1.00  0.00    -0.027 N 
ATOM      6  H11 UNL     1      -0.491   7.161  16.611  1.00  0.00     0.281 HD
ATOM      7  H12 UNL     1      -1.810   7.871  16.284  1.00  0.00     0.281 HD
HETATM    8  C5  UNL     1      -0.890   7.138  14.579  1.00  0.00     0.318 C 
HETATM    9  O4  UNL     1      -1.529   6.009  13.981  1.00  0.00    -0.297 OA
ENDROOT
BRANCH   3  10
HETATM   10  O1  UNL     1      -3.583   6.728  14.696  1.00  0.00    -0.354 OA
ATOM     11  H1  UNL     1      -3.277   7.483  14.208  1.00  0.00     0.214 HD
ENDBRANCH   3  10
BRANCH   8  12
HETATM   12  C6  UNL     1       0.552   7.028  14.405  1.00  0.00     0.076 C 
HETATM   13  C7  UNL     1       1.103   5.692  14.069  1.00  0.00     0.010 C 
ENDBRANCH   8  12
BRANCH   8  14
HETATM   14  C8  UNL     1      -1.543   8.386  14.011  1.00  0.00     0.328 C 
HETATM   15  O2  UNL     1      -1.757   9.419  14.645  1.00  0.00    -0.259 OA
BRANCH  14  16
HETATM   16  O3  UNL     1      -1.856   8.294  12.698  1.00  0.00    -0.280 OA
BRANCH  16  17
HETATM   17  C9  UNL     1      -1.261   8.561  11.528  1.00  0.00     0.054 C 
HETATM   18  C10 UNL     1      -1.264   9.684  10.844  1.00  0.00     0.018 C 
HETATM   19  C11 UNL     1      -0.632   9.971   9.541  1.00  0.00     0.075 C 
HETATM   20  C13 UNL     1       0.095   8.786   8.944  1.00  0.00     0.016 C 
HETATM   21  C14 UNL     1      -0.505   7.469   9.407  1.00  0.00     0.007 C 
HETATM   22  C15 UNL     1      -0.467   7.405  10.909  1.00  0.00     0.065 C 
BRANCH  19  23
HETATM   23  C12 UNL     1       0.159  11.193   9.482  1.00  0.00     0.094 C 
HETATM   24  N2  UNL     1       0.328  11.906  10.599  1.00  0.00    -0.391 N 
ATOM     25  H22 UNL     1      -0.150  11.512  11.409  1.00  0.00     0.157 HD
ATOM     26  H21 UNL     1       0.881  12.763  10.557  1.00  0.00     0.157 HD
HETATM   27  N3  UNL     1       0.822  11.740   8.359  1.00  0.00    -0.087 NA
ENDBRANCH  19  23
ENDBRANCH  16  17
ENDBRANCH  14  16
ENDBRANCH   8  14
TORSDOF 6
ENDMDL
MODEL 5
REMARK VINA RESULT: -8.243198567      3.117      5.837
REMARK  6 active torsions:
REMARK  status: ('A' for Active; 'I' for Inactive)
REMARK    1  A    between atoms: C3_3  and  O1_4 
REMARK    2  A    between atoms: C5_10  and  C6_11 
REMARK    3  A    between atoms: C5_10  and  C8_13 
REMARK    4  A    between atoms: C8_13  and  O3_15 
REMARK    5  A    between atoms: O3_15  and  C9_16 
REMARK    6  A    between atoms: C11_18  and  C12_19 
ROOT
HETATM    1  C1  UNL     1      -3.588   9.871   8.160  1.00  0.00     0.017 C 
HETATM    2  C2  UNL     1      -2.693   9.468   8.803  1.00  0.00    -0.048 C 
HETATM    3  C3  UNL     1      -1.562   9.027   9.574  1.00  0.00     0.256 C 
HETATM    4  C4  UNL     1      -0.861  10.261  10.193  1.00  0.00     0.319 C 
HETATM    5  N1  UNL     1       0.029   9.583  11.079  1.00  0.00    -0.027 N 
ATOM      6  H11 UNL     1       0.336  10.166  11.857  1.00  0.00     0.281 HD
ATOM      7  H12 UNL     1       0.947   9.415  10.668  1.00  0.00     0.281 HD
HETATM    8  C5  UNL     1      -0.629   8.367  11.510  1.00  0.00     0.318 C 
HETATM    9  O4  UNL     1      -1.821   8.327  10.724  1.00  0.00    -0.297 OA
ENDROOT
BRANCH   3  10
HETATM   10  O1  UNL     1      -0.607   8.410   8.784  1.00  0.00    -0.354 OA
ATOM     11  H1  UNL     1       0.261   8.770   8.930  1.00  0.00     0.214 HD
ENDBRANCH   3  10
BRANCH   8  12
HETATM   12  C6  UNL     1      -0.980   8.406  12.923  1.00  0.00     0.076 C 
HETATM   13  C7  UNL     1      -2.230   7.722  13.339  1.00  0.00     0.010 C 
ENDBRANCH   8  12
BRANCH   8  14
HETATM   14  C8  UNL     1       0.250   7.210  11.067  1.00  0.00     0.328 C 
HETATM   15  O2  UNL     1       1.476   7.256  10.970  1.00  0.00    -0.259 OA
BRANCH  14  16
HETATM   16  O3  UNL     1      -0.431   6.071  10.807  1.00  0.00    -0.280 OA
BRANCH  16  17
HETATM   17  C9  UNL     1      -0.284   5.000  10.016  1.00  0.00     0.054 C 
HETATM   18  C10 UNL     1      -0.457   4.913   8.715  1.00  0.00     0.018 C 
HETATM   19  C11 UNL     1      -0.322   3.727   7.846  1.00  0.00     0.075 C 
HETATM   20  C13 UNL     1       0.054   2.465   8.592  1.00  0.00     0.016 C 
HETATM   21  C14 UNL     1      -0.427   2.502  10.032  1.00  0.00     0.007 C 
HETATM   22  C15 UNL     1       0.149   3.710  10.720  1.00  0.00     0.065 C 
BRANCH  19  23
HETATM   23  C12 UNL     1       0.476   3.918   6.642  1.00  0.00     0.094 C 
HETATM   24  N2  UNL     1       0.059   4.795   5.725  1.00  0.00    -0.391 N 
ATOM     25  H22 UNL     1      -0.823   5.247   5.966  1.00  0.00     0.157 HD
ATOM     26  H21 UNL     1       0.617   4.929   4.882  1.00  0.00     0.157 HD
HETATM   27  N3  UNL     1       1.699   3.292   6.308  1.00  0.00    -0.087 NA
ENDBRANCH  19  23
ENDBRANCH  16  17
ENDBRANCH  14  16
ENDBRANCH   8  14
TORSDOF 6
ENDMDL
