MODEL 1
REMARK VINA RESULT: -8.271809198      0.000      0.000
REMARK  7 active torsions:
REMARK  status: ('A' for Active; 'I' for Inactive)
REMARK    1  A    between atoms: C2_2  and  C4_4 
REMARK    2  A    between atoms: C4_4  and  C5_5 
REMARK    3  A    between atoms: C4_4  and  N2_12 
REMARK    4  A    between atoms: C5_5  and  O1_6 
REMARK    5  A    between atoms: O1_6  and  C6_7 
REMARK       I    between atoms: C6_7  and  N1_9 
REMARK    6  A    between atoms: N2_12  and  C9_14 
REMARK    7  A    between atoms: C10_17  and  N4_18 
ROOT
HETATM    1  C9  UNL     1      -1.295   7.971  11.806  1.00  0.00     0.149 A 
HETATM    2  N3  UNL     1      -0.870   6.888  11.147  1.00  0.00    -0.175 N 
ATOM      3  H3  UNL     1      -1.170   5.975  11.489  1.00  0.00     0.186 HD
HETATM    4  C10 UNL     1      -0.082   6.923  10.073  1.00  0.00     0.679 A 
HETATM    5  N5  UNL     1       0.331   8.108   9.599  1.00  0.00    -0.173 N 
ATOM      6  H5  UNL     1       0.935   8.149   8.779  1.00  0.00     0.186 HD
HETATM    7  C11 UNL     1      -0.059   9.250  10.214  1.00  0.00     0.169 A 
HETATM    8  N6  UNL     1       0.187  10.546   9.975  1.00  0.00    -0.268 N 
ATOM      9  H6  UNL     1       0.762  10.915   9.217  1.00  0.00     0.190 HD
HETATM   10  N7  UNL     1      -0.436  11.255  10.878  1.00  0.00    -0.240 N 
ATOM     11  H7  UNL     1      -0.420  12.274  10.933  1.00  0.00     0.208 HD
HETATM   12  N8  UNL     1      -1.089  10.467  11.710  1.00  0.00    -0.279 N 
ATOM     13  H8  UNL     1      -1.654  10.771  12.503  1.00  0.00     0.189 HD
HETATM   14  C12 UNL     1      -0.881   9.201  11.333  1.00  0.00     0.140 A 
ENDROOT
BRANCH   1  15
HETATM   15  N2  UNL     1      -2.036   7.880  12.811  1.00  0.00    -0.367 N 
ATOM     16  H2  UNL     1      -2.770   8.584  12.881  1.00  0.00     0.161 HD
BRANCH  15  17
HETATM   17  C4  UNL     1      -1.997   6.913  13.888  1.00  0.00     0.111 C 
BRANCH  17  18
HETATM   18  C2  UNL     1      -3.441   6.672  14.265  1.00  0.00     0.002 C 
HETATM   19  C1  UNL     1      -3.850   7.239  15.581  1.00  0.00     0.011 C 
HETATM   20  C3  UNL     1      -3.596   5.148  14.370  1.00  0.00     0.011 C 
ENDBRANCH  17  18
BRANCH  17  21
HETATM   21  C5  UNL     1      -1.160   7.494  14.967  1.00  0.00     0.206 C 
BRANCH  21  22
HETATM   22  O1  UNL     1      -0.362   6.652  15.708  1.00  0.00    -0.302 OA
BRANCH  22  23
HETATM   23  C6  UNL     1      -0.785   6.236  16.975  1.00  0.00     0.362 C 
HETATM   24  O2  UNL     1      -1.010   7.058  17.898  1.00  0.00    -0.238 OA
HETATM   25  N1  UNL     1      -0.970   4.856  17.255  1.00  0.00    -0.337 N 
HETATM   26  C7  UNL     1      -0.721   3.880  16.222  1.00  0.00     0.154 C 
HETATM   27  C8  UNL     1      -1.406   4.440  18.568  1.00  0.00     0.154 C 
ENDBRANCH  22  23
ENDBRANCH  21  22
ENDBRANCH  17  21
ENDBRANCH  15  17
ENDBRANCH   1  15
BRANCH   4  28
HETATM   28  N4  UNL     1       0.312   5.863   9.458  1.00  0.00    -0.234 N 
ATOM     29  H42 UNL     1      -0.356   5.396   8.845  1.00  0.00     0.174 HD
ATOM     30  H41 UNL     1       1.252   5.480   9.560  1.00  0.00     0.174 HD
ENDBRANCH   4  28
TORSDOF 7
ENDMDL
MODEL 2
REMARK VINA RESULT: -8.262151706      2.052      3.516
REMARK  7 active torsions:
REMARK  status: ('A' for Active; 'I' for Inactive)
REMARK    1  A    between atoms: C2_2  and  C4_4 
REMARK    2  A    between atoms: C4_4  and  C5_5 
REMARK    3  A    between atoms: C4_4  and  N2_12 
REMARK    4  A    between atoms: C5_5  and  O1_6 
REMARK    5  A    between atoms: O1_6  and  C6_7 
REMARK       I    between atoms: C6_7  and  N1_9 
REMARK    6  A    between atoms: N2_12  and  C9_14 
REMARK    7  A    between atoms: C10_17  and  N4_18 
ROOT
HETATM    1  C9  UNL     1      -1.473   9.667  10.864  1.00  0.00     0.149 A 
HETATM    2  N3  UNL     1      -0.509  10.577  11.041  1.00  0.00    -0.175 N 
ATOM      3  H3  UNL     1      -0.055  10.619  11.953  1.00  0.00     0.186 HD
HETATM    4  C10 UNL     1      -0.102  11.431  10.102  1.00  0.00     0.679 A 
HETATM    5  N5  UNL     1      -0.679  11.402   8.892  1.00  0.00    -0.173 N 
ATOM      6  H5  UNL     1      -0.378  12.051   8.165  1.00  0.00     0.186 HD
HETATM    7  C11 UNL     1      -1.663  10.508   8.639  1.00  0.00     0.169 A 
HETATM    8  N6  UNL     1      -2.406  10.250   7.553  1.00  0.00    -0.268 N 
ATOM      9  H6  UNL     1      -2.342  10.733   6.656  1.00  0.00     0.190 HD
HETATM   10  N7  UNL     1      -3.226   9.274   7.839  1.00  0.00    -0.240 N 
ATOM     11  H7  UNL     1      -3.907   8.876   7.192  1.00  0.00     0.208 HD
HETATM   12  N8  UNL     1      -3.049   8.876   9.084  1.00  0.00    -0.279 N 
ATOM     13  H8  UNL     1      -3.562   8.129   9.553  1.00  0.00     0.189 HD
HETATM   14  C12 UNL     1      -2.079   9.621   9.624  1.00  0.00     0.140 A 
ENDROOT
BRANCH   1  15
HETATM   15  N2  UNL     1      -1.815   8.887  11.782  1.00  0.00    -0.367 N 
ATOM     16  H2  UNL     1      -2.811   8.876  12.000  1.00  0.00     0.161 HD
BRANCH  15  17
HETATM   17  C4  UNL     1      -0.994   7.999  12.577  1.00  0.00     0.111 C 
BRANCH  17  18
HETATM   18  C2  UNL     1      -0.361   7.045  11.590  1.00  0.00     0.002 C 
HETATM   19  C1  UNL     1      -0.522   5.600  11.921  1.00  0.00     0.011 C 
HETATM   20  C3  UNL     1       1.145   7.344  11.625  1.00  0.00     0.011 C 
ENDBRANCH  17  18
BRANCH  17  21
HETATM   21  C5  UNL     1      -1.882   7.360  13.579  1.00  0.00     0.206 C 
BRANCH  21  22
HETATM   22  O1  UNL     1      -1.813   7.784  14.887  1.00  0.00    -0.302 OA
BRANCH  22  23
HETATM   23  C6  UNL     1      -1.464   6.874  15.891  1.00  0.00     0.362 C 
HETATM   24  O2  UNL     1      -0.268   6.557  16.108  1.00  0.00    -0.238 OA
HETATM   25  N1  UNL     1      -2.466   6.278  16.702  1.00  0.00    -0.337 N 
HETATM   26  C7  UNL     1      -3.852   6.616  16.484  1.00  0.00     0.154 C 
HETATM   27  C8  UNL     1      -2.092   5.340  17.735  1.00  0.00     0.154 C 
ENDBRANCH  22  23
ENDBRANCH  21  22
ENDBRANCH  17  21
ENDBRANCH  15  17
ENDBRANCH   1  15
BRANCH   4  28
HETATM   28  N4  UNL     1       0.830  12.297  10.300  1.00  0.00    -0.234 N 
ATOM     29  H42 UNL     1       0.870  12.750  11.213  1.00  0.00     0.174 HD
ATOM     30  H41 UNL     1       1.519  12.543   9.589  1.00  0.00     0.174 HD
ENDBRANCH   4  28
TORSDOF 7
ENDMDL
MODEL 3
REMARK VINA RESULT: -8.148268780      2.342      3.951
REMARK  7 active torsions:
REMARK  status: ('A' for Active; 'I' for Inactive)
REMARK    1  A    between atoms: C2_2  and  C4_4 
REMARK    2  A    between atoms: C4_4  and  C5_5 
REMARK    3  A    between atoms: C4_4  and  N2_12 
REMARK    4  A    between atoms: C5_5  and  O1_6 
REMARK    5  A    between atoms: O1_6  and  C6_7 
REMARK       I    between atoms: C6_7  and  N1_9 
REMARK    6  A    between atoms: N2_12  and  C9_14 
REMARK    7  A    between atoms: C10_17  and  N4_18 
ROOT
HETATM    1  C9  UNL     1      -1.394   9.541  10.759  1.00  0.00     0.149 A 
HETATM    2  N3  UNL     1      -0.474  10.485  10.982  1.00  0.00    -0.175 N 
ATOM      3  H3  UNL     1      -0.011  10.493  11.891  1.00  0.00     0.186 HD
HETATM    4  C10 UNL     1      -0.123  11.417  10.096  1.00  0.00     0.679 A 
HETATM    5  N5  UNL     1      -0.715  11.434   8.892  1.00  0.00    -0.173 N 
ATOM      6  H5  UNL     1      -0.456  12.142   8.205  1.00  0.00     0.186 HD
HETATM    7  C11 UNL     1      -1.656  10.508   8.593  1.00  0.00     0.169 A 
HETATM    8  N6  UNL     1      -2.400  10.282   7.500  1.00  0.00    -0.268 N 
ATOM      9  H6  UNL     1      -2.372  10.823   6.636  1.00  0.00     0.190 HD
HETATM   10  N7  UNL     1      -3.166   9.249   7.733  1.00  0.00    -0.240 N 
ATOM     11  H7  UNL     1      -3.835   8.859   7.069  1.00  0.00     0.208 HD
HETATM   12  N8  UNL     1      -2.952   8.784   8.948  1.00  0.00    -0.279 N 
ATOM     13  H8  UNL     1      -3.421   7.984   9.374  1.00  0.00     0.189 HD
HETATM   14  C12 UNL     1      -2.014   9.542   9.525  1.00  0.00     0.140 A 
ENDROOT
BRANCH   1  15
HETATM   15  N2  UNL     1      -1.684   8.688  11.629  1.00  0.00    -0.367 N 
ATOM     16  H2  UNL     1      -2.646   8.715  11.966  1.00  0.00     0.161 HD
BRANCH  15  17
HETATM   17  C4  UNL     1      -0.844   7.670  12.223  1.00  0.00     0.111 C 
BRANCH  17  18
HETATM   18  C2  UNL     1      -0.109   7.030  11.067  1.00  0.00     0.002 C 
HETATM   19  C1  UNL     1      -0.310   5.559  10.933  1.00  0.00     0.011 C 
HETATM   20  C3  UNL     1       1.384   7.251  11.346  1.00  0.00     0.011 C 
ENDBRANCH  17  18
BRANCH  17  21
HETATM   21  C5  UNL     1      -1.733   6.755  12.979  1.00  0.00     0.206 C 
BRANCH  21  22
HETATM   22  O1  UNL     1      -2.819   7.285  13.638  1.00  0.00    -0.302 OA
BRANCH  22  23
HETATM   23  C6  UNL     1      -3.443   6.548  14.649  1.00  0.00     0.362 C 
HETATM   24  O2  UNL     1      -4.369   5.736  14.399  1.00  0.00    -0.238 OA
HETATM   25  N1  UNL     1      -3.043   6.701  16.003  1.00  0.00    -0.337 N 
HETATM   26  C7  UNL     1      -1.984   7.624  16.332  1.00  0.00     0.154 C 
HETATM   27  C8  UNL     1      -3.697   5.933  17.038  1.00  0.00     0.154 C 
ENDBRANCH  22  23
ENDBRANCH  21  22
ENDBRANCH  17  21
ENDBRANCH  15  17
ENDBRANCH   1  15
BRANCH   4  28
HETATM   28  N4  UNL     1       0.766  12.315  10.338  1.00  0.00    -0.234 N 
ATOM     29  H42 UNL     1       0.864  12.637  11.301  1.00  0.00     0.174 HD
ATOM     30  H41 UNL     1       1.368  12.710   9.615  1.00  0.00     0.174 HD
ENDBRANCH   4  28
TORSDOF 7
ENDMDL
MODEL 4
REMARK VINA RESULT: -8.124485528      1.346      1.508
REMARK  7 active torsions:
REMARK  status: ('A' for Active; 'I' for Inactive)
REMARK    1  A    between atoms: C2_2  and  C4_4 
REMARK    2  A    between atoms: C4_4  and  C5_5 
REMARK    3  A    between atoms: C4_4  and  N2_12 
REMARK    4  A    between atoms: C5_5  and  O1_6 
REMARK    5  A    between atoms: O1_6  and  C6_7 
REMARK       I    between atoms: C6_7  and  N1_9 
REMARK    6  A    between atoms: N2_12  and  C9_14 
REMARK    7  A    between atoms: C10_17  and  N4_18 
ROOT
HETATM    1  C9  UNL     1      -1.269   8.218  11.203  1.00  0.00     0.149 A 
HETATM    2  N3  UNL     1      -1.019   7.158  10.428  1.00  0.00    -0.175 N 
ATOM      3  H3  UNL     1      -1.372   6.251  10.733  1.00  0.00     0.186 HD
HETATM    4  C10 UNL     1      -0.338   7.208   9.283  1.00  0.00     0.679 A 
HETATM    5  N5  UNL     1       0.141   8.385   8.855  1.00  0.00    -0.173 N 
ATOM      6  H5  UNL     1       0.664   8.438   7.981  1.00  0.00     0.186 HD
HETATM    7  C11 UNL     1      -0.073   9.504   9.587  1.00  0.00     0.169 A 
HETATM    8  N6  UNL     1       0.274  10.788   9.416  1.00  0.00    -0.268 N 
ATOM      9  H6  UNL     1       0.806  11.164   8.631  1.00  0.00     0.190 HD
HETATM   10  N7  UNL     1      -0.186  11.475  10.428  1.00  0.00    -0.240 N 
ATOM     11  H7  UNL     1      -0.065  12.480  10.553  1.00  0.00     0.208 HD
HETATM   12  N8  UNL     1      -0.829  10.685  11.264  1.00  0.00    -0.279 N 
ATOM     13  H8  UNL     1      -1.283  10.973  12.132  1.00  0.00     0.189 HD
HETATM   14  C12 UNL     1      -0.785   9.440  10.779  1.00  0.00     0.140 A 
ENDROOT
BRANCH   1  15
HETATM   15  N2  UNL     1      -1.916   8.113  12.271  1.00  0.00    -0.367 N 
ATOM     16  H2  UNL     1      -2.702   8.754  12.373  1.00  0.00     0.161 HD
BRANCH  15  17
HETATM   17  C4  UNL     1      -1.701   7.209  13.380  1.00  0.00     0.111 C 
BRANCH  17  18
HETATM   18  C2  UNL     1      -3.038   7.107  14.080  1.00  0.00     0.002 C 
HETATM   19  C1  UNL     1      -3.067   7.668  15.462  1.00  0.00     0.011 C 
HETATM   20  C3  UNL     1      -3.333   5.605  14.203  1.00  0.00     0.011 C 
ENDBRANCH  17  18
BRANCH  17  21
HETATM   21  C5  UNL     1      -0.608   7.779  14.205  1.00  0.00     0.206 C 
BRANCH  21  22
HETATM   22  O1  UNL     1       0.482   6.989  14.493  1.00  0.00    -0.302 OA
BRANCH  22  23
HETATM   23  C6  UNL     1       0.338   5.900  15.360  1.00  0.00     0.362 C 
HETATM   24  O2  UNL     1      -0.132   6.037  16.517  1.00  0.00    -0.238 OA
HETATM   25  N1  UNL     1       0.725   4.597  14.950  1.00  0.00    -0.337 N 
HETATM   26  C7  UNL     1       1.270   4.399  13.629  1.00  0.00     0.154 C 
HETATM   27  C8  UNL     1       0.572   3.482  15.857  1.00  0.00     0.154 C 
ENDBRANCH  22  23
ENDBRANCH  21  22
ENDBRANCH  17  21
ENDBRANCH  15  17
ENDBRANCH   1  15
BRANCH   4  28
HETATM   28  N4  UNL     1      -0.112   6.170   8.557  1.00  0.00    -0.234 N 
ATOM     29  H42 UNL     1       0.774   6.128   8.053  1.00  0.00     0.174 HD
ATOM     30  H41 UNL     1      -0.776   5.401   8.467  1.00  0.00     0.174 HD
ENDBRANCH   4  28
TORSDOF 7
ENDMDL
MODEL 5
REMARK VINA RESULT: -8.117732331      2.909      4.732
REMARK  7 active torsions:
REMARK  status: ('A' for Active; 'I' for Inactive)
REMARK    1  A    between atoms: C2_2  and  C4_4 
REMARK    2  A    between atoms: C4_4  and  C5_5 
REMARK    3  A    between atoms: C4_4  and  N2_12 
REMARK    4  A    between atoms: C5_5  and  O1_6 
REMARK    5  A    between atoms: O1_6  and  C6_7 
REMARK       I    between atoms: C6_7  and  N1_9 
REMARK    6  A    between atoms: N2_12  and  C9_14 
REMARK    7  A    between atoms: C10_17  and  N4_18 
ROOT
HETATM    1  C9  UNL     1      -1.406   9.729  10.997  1.00  0.00     0.149 A 
HETATM    2  N3  UNL     1      -0.446  10.655  11.091  1.00  0.00    -0.175 N 
ATOM      3  H3  UNL     1       0.027  10.761  11.988  1.00  0.00     0.186 HD
HETATM    4  C10 UNL     1      -0.067  11.448  10.089  1.00  0.00     0.679 A 
HETATM    5  N5  UNL     1      -0.670  11.334   8.896  1.00  0.00    -0.173 N 
ATOM      6  H5  UNL     1      -0.390  11.935   8.122  1.00  0.00     0.186 HD
HETATM    7  C11 UNL     1      -1.652  10.417   8.726  1.00  0.00     0.169 A 
HETATM    8  N6  UNL     1      -2.416  10.082   7.675  1.00  0.00    -0.268 N 
ATOM      9  H6  UNL     1      -2.375  10.504   6.747  1.00  0.00     0.190 HD
HETATM   10  N7  UNL     1      -3.222   9.122   8.045  1.00  0.00    -0.240 N 
ATOM     11  H7  UNL     1      -3.913   8.677   7.441  1.00  0.00     0.208 HD
HETATM   12  N8  UNL     1      -3.014   8.810   9.309  1.00  0.00    -0.279 N 
ATOM     13  H8  UNL     1      -3.511   8.092   9.838  1.00  0.00     0.189 HD
HETATM   14  C12 UNL     1      -2.039   9.596   9.777  1.00  0.00     0.140 A 
ENDROOT
BRANCH   1  15
HETATM   15  N2  UNL     1      -1.722   9.010  11.973  1.00  0.00    -0.367 N 
ATOM     16  H2  UNL     1      -2.359   9.437  12.645  1.00  0.00     0.161 HD
BRANCH  15  17
HETATM   17  C4  UNL     1      -1.310   7.656  12.278  1.00  0.00     0.111 C 
BRANCH  17  18
HETATM   18  C2  UNL     1      -2.281   7.168  13.330  1.00  0.00     0.002 C 
HETATM   19  C1  UNL     1      -2.223   7.902  14.626  1.00  0.00     0.011 C 
HETATM   20  C3  UNL     1      -1.883   5.714  13.623  1.00  0.00     0.011 C 
ENDBRANCH  17  18
BRANCH  17  21
HETATM   21  C5  UNL     1       0.105   7.718  12.717  1.00  0.00     0.206 C 
BRANCH  21  22
HETATM   22  O1  UNL     1       1.091   7.383  11.817  1.00  0.00    -0.302 OA
BRANCH  22  23
HETATM   23  C6  UNL     1       1.043   6.144  11.169  1.00  0.00     0.362 C 
HETATM   24  O2  UNL     1       1.171   5.065  11.799  1.00  0.00    -0.238 OA
HETATM   25  N1  UNL     1       0.849   6.073   9.764  1.00  0.00    -0.337 N 
HETATM   26  C7  UNL     1       0.698   7.290   9.004  1.00  0.00     0.154 C 
HETATM   27  C8  UNL     1       0.803   4.786   9.108  1.00  0.00     0.154 C 
ENDBRANCH  22  23
ENDBRANCH  21  22
ENDBRANCH  17  21
ENDBRANCH  15  17
ENDBRANCH   1  15
BRANCH   4  28
HETATM   28  N4  UNL     1       0.861  12.331  10.208  1.00  0.00    -0.234 N 
ATOM     29  H42 UNL     1       0.846  13.124   9.566  1.00  0.00     0.174 HD
ATOM     30  H41 UNL     1       1.600  12.269  10.909  1.00  0.00     0.174 HD
ENDBRANCH   4  28
TORSDOF 7
ENDMDL
