MODEL 1
REMARK VINA RESULT: -7.392307968      0.000      0.000
REMARK  7 active torsions:
REMARK  status: ('A' for Active; 'I' for Inactive)
REMARK    1  A    between atoms: O1_2  and  C2_3 
REMARK       I    between atoms: C2_3  and  N1_5 
REMARK    2  A    between atoms: N1_5  and  C3_7 
REMARK    3  A    between atoms: C5_11  and  C6_12 
REMARK    4  A    between atoms: C7_13  and  C8_14 
REMARK       I    between atoms: C8_14  and  N3_16 
REMARK    5  A    between atoms: N3_16  and  C9_18 
REMARK    6  A    between atoms: C9_18  and  N4_19 
REMARK    7  A    between atoms: C9_18  and  C10_23 
ROOT
HETATM    1  C6  UNL     1      -0.906   5.959  12.287  1.00  0.00     0.026 C 
HETATM    2  C7  UNL     1      -1.252   5.572  13.425  1.00  0.00     0.075 C 
ENDROOT
BRANCH   1   3
HETATM    3  C5  UNL     1      -0.513   7.204  11.690  1.00  0.00     0.024 A 
HETATM    4  C4  UNL     1       0.604   7.707  11.100  1.00  0.00     0.109 A 
HETATM    5  N2  UNL     1       0.599   8.943  10.650  1.00  0.00    -0.345 N 
HETATM    6  C3  UNL     1      -0.491   9.668  10.781  1.00  0.00     0.153 A 
ATOM      7  H2  UNL     1       1.430   9.334  10.205  1.00  0.00     0.167 HD
HETATM    8  S2  UNL     1      -1.569   8.624  11.553  1.00  0.00    -0.053 SA
BRANCH   6   9
HETATM    9  N1  UNL     1      -0.671  10.911  10.391  1.00  0.00    -0.282 N 
HETATM   10  C2  UNL     1       0.218  11.511   9.461  1.00  0.00     0.366 C 
HETATM   11  O2  UNL     1       1.093  12.294   9.913  1.00  0.00    -0.238 OA
ATOM     12  H1  UNL     1      -1.455  11.448  10.760  1.00  0.00     0.173 HD
BRANCH  10  13
HETATM   13  O1  UNL     1       0.188  11.298   8.099  1.00  0.00    -0.309 OA
HETATM   14  C1  UNL     1      -0.912  10.792   7.397  1.00  0.00     0.215 C 
ENDBRANCH  10  13
ENDBRANCH   6   9
ENDBRANCH   1   3
BRANCH   2  15
HETATM   15  C8  UNL     1      -1.444   6.135  14.712  1.00  0.00     0.242 C 
HETATM   16  O3  UNL     1      -0.772   7.041  15.208  1.00  0.00    -0.269 OA
HETATM   17  N3  UNL     1      -2.510   5.639  15.563  1.00  0.00    -0.329 N 
ATOM     18  H3  UNL     1      -3.102   4.888  15.208  1.00  0.00     0.164 HD
BRANCH  17  19
HETATM   19  C9  UNL     1      -2.773   6.151  16.875  1.00  0.00     0.294 C 
BRANCH  19  20
HETATM   20  N4  UNL     1      -4.214   6.320  17.106  1.00  0.00    -0.058 N 
ATOM     21  H43 UNL     1      -4.415   7.196  17.588  1.00  0.00     0.276 HD
ATOM     22  H42 UNL     1      -4.714   6.501  16.236  1.00  0.00     0.276 HD
ATOM     23  H41 UNL     1      -4.608   5.522  17.604  1.00  0.00     0.276 HD
ENDBRANCH  19  20
BRANCH  19  24
HETATM   24  C10 UNL     1      -2.311   5.135  17.911  1.00  0.00     0.140 C 
HETATM   25  S1  UNL     1      -0.730   5.699  18.619  1.00  0.00    -0.094 SA
ENDBRANCH  19  24
ENDBRANCH  17  19
ENDBRANCH   2  15
TORSDOF 7
ENDMDL
MODEL 2
REMARK VINA RESULT: -7.363130310      1.724      1.956
REMARK  7 active torsions:
REMARK  status: ('A' for Active; 'I' for Inactive)
REMARK    1  A    between atoms: O1_2  and  C2_3 
REMARK       I    between atoms: C2_3  and  N1_5 
REMARK    2  A    between atoms: N1_5  and  C3_7 
REMARK    3  A    between atoms: C5_11  and  C6_12 
REMARK    4  A    between atoms: C7_13  and  C8_14 
REMARK       I    between atoms: C8_14  and  N3_16 
REMARK    5  A    between atoms: N3_16  and  C9_18 
REMARK    6  A    between atoms: C9_18  and  N4_19 
REMARK    7  A    between atoms: C9_18  and  C10_23 
ROOT
HETATM    1  C6  UNL     1       0.360   6.557  12.235  1.00  0.00     0.026 C 
HETATM    2  C7  UNL     1       0.470   5.898  13.292  1.00  0.00     0.075 C 
ENDROOT
BRANCH   1   3
HETATM    3  C5  UNL     1      -0.102   7.867  11.872  1.00  0.00     0.024 A 
HETATM    4  C4  UNL     1      -0.824   8.858  12.461  1.00  0.00     0.109 A 
HETATM    5  N2  UNL     1      -1.062   9.969  11.798  1.00  0.00    -0.345 N 
HETATM    6  C3  UNL     1      -0.595  10.097  10.574  1.00  0.00     0.153 A 
ATOM      7  H2  UNL     1      -1.601  10.721  12.227  1.00  0.00     0.167 HD
HETATM    8  S2  UNL     1       0.210   8.639  10.304  1.00  0.00    -0.053 SA
BRANCH   6   9
HETATM    9  N1  UNL     1      -0.737  11.131   9.774  1.00  0.00    -0.282 N 
HETATM   10  C2  UNL     1      -1.333  10.978   8.495  1.00  0.00     0.366 C 
HETATM   11  O2  UNL     1      -0.568  10.929   7.498  1.00  0.00    -0.238 OA
ATOM     12  H1  UNL     1      -0.416  12.051  10.075  1.00  0.00     0.173 HD
BRANCH  10  13
HETATM   13  O1  UNL     1      -2.690  10.879   8.270  1.00  0.00    -0.309 OA
HETATM   14  C1  UNL     1      -3.442   9.711   8.439  1.00  0.00     0.215 C 
ENDBRANCH  10  13
ENDBRANCH   6   9
ENDBRANCH   1   3
BRANCH   2  15
HETATM   15  C8  UNL     1       0.205   6.078  14.673  1.00  0.00     0.242 C 
HETATM   16  O3  UNL     1       1.041   6.033  15.577  1.00  0.00    -0.269 OA
HETATM   17  N3  UNL     1      -1.151   6.341  15.117  1.00  0.00    -0.329 N 
ATOM     18  H3  UNL     1      -1.889   6.391  14.416  1.00  0.00     0.164 HD
BRANCH  17  19
HETATM   19  C9  UNL     1      -1.506   6.535  16.493  1.00  0.00     0.294 C 
BRANCH  19  20
HETATM   20  N4  UNL     1      -2.387   7.699  16.661  1.00  0.00    -0.058 N 
ATOM     21  H43 UNL     1      -2.751   8.024  15.765  1.00  0.00     0.276 HD
ATOM     22  H42 UNL     1      -3.268   7.440  17.105  1.00  0.00     0.276 HD
ATOM     23  H41 UNL     1      -1.919   8.450  17.169  1.00  0.00     0.276 HD
ENDBRANCH  19  20
BRANCH  19  24
HETATM   24  C10 UNL     1      -2.314   5.338  16.975  1.00  0.00     0.140 C 
HETATM   25  S1  UNL     1      -1.353   4.457  18.247  1.00  0.00    -0.094 SA
ENDBRANCH  19  24
ENDBRANCH  17  19
ENDBRANCH   2  15
TORSDOF 7
ENDMDL
MODEL 3
REMARK VINA RESULT: -7.357513823      1.885      2.114
REMARK  7 active torsions:
REMARK  status: ('A' for Active; 'I' for Inactive)
REMARK    1  A    between atoms: O1_2  and  C2_3 
REMARK       I    between atoms: C2_3  and  N1_5 
REMARK    2  A    between atoms: N1_5  and  C3_7 
REMARK    3  A    between atoms: C5_11  and  C6_12 
REMARK    4  A    between atoms: C7_13  and  C8_14 
REMARK       I    between atoms: C8_14  and  N3_16 
REMARK    5  A    between atoms: N3_16  and  C9_18 
REMARK    6  A    between atoms: C9_18  and  N4_19 
REMARK    7  A    between atoms: C9_18  and  C10_23 
ROOT
HETATM    1  C6  UNL     1      -0.021   6.295  12.380  1.00  0.00     0.026 C 
HETATM    2  C7  UNL     1       0.069   5.614  13.424  1.00  0.00     0.075 C 
ENDROOT
BRANCH   1   3
HETATM    3  C5  UNL     1      -0.355   7.652  12.051  1.00  0.00     0.024 A 
HETATM    4  C4  UNL     1      -0.973   8.694  12.668  1.00  0.00     0.109 A 
HETATM    5  N2  UNL     1      -1.106   9.839  12.034  1.00  0.00    -0.345 N 
HETATM    6  C3  UNL     1      -0.635   9.950  10.809  1.00  0.00     0.153 A 
ATOM      7  H2  UNL     1      -1.566  10.629  12.484  1.00  0.00     0.167 HD
HETATM    8  S2  UNL     1       0.022   8.427  10.499  1.00  0.00    -0.053 SA
BRANCH   6   9
HETATM    9  N1  UNL     1      -0.681  11.011  10.034  1.00  0.00    -0.282 N 
HETATM   10  C2  UNL     1      -1.232  10.929   8.729  1.00  0.00     0.366 C 
HETATM   11  O2  UNL     1      -0.431  10.859   7.761  1.00  0.00    -0.238 OA
ATOM     12  H1  UNL     1      -0.317  11.901  10.374  1.00  0.00     0.173 HD
BRANCH  10  13
HETATM   13  O1  UNL     1      -2.583  10.922   8.448  1.00  0.00    -0.309 OA
HETATM   14  C1  UNL     1      -3.378   9.773   8.397  1.00  0.00     0.215 C 
ENDBRANCH  10  13
ENDBRANCH   6   9
ENDBRANCH   1   3
BRANCH   2  15
HETATM   15  C8  UNL     1      -0.104   5.803  14.819  1.00  0.00     0.242 C 
HETATM   16  O3  UNL     1       0.788   6.074  15.624  1.00  0.00    -0.269 OA
HETATM   17  N3  UNL     1      -1.428   5.680  15.402  1.00  0.00    -0.329 N 
ATOM     18  H3  UNL     1      -2.209   5.458  14.786  1.00  0.00     0.164 HD
BRANCH  17  19
HETATM   19  C9  UNL     1      -1.692   5.855  16.800  1.00  0.00     0.294 C 
BRANCH  19  20
HETATM   20  N4  UNL     1      -1.336   7.209  17.248  1.00  0.00    -0.058 N 
ATOM     21  H43 UNL     1      -0.407   7.477  16.924  1.00  0.00     0.276 HD
ATOM     22  H42 UNL     1      -1.883   7.920  16.762  1.00  0.00     0.276 HD
ATOM     23  H41 UNL     1      -1.419   7.301  18.260  1.00  0.00     0.276 HD
ENDBRANCH  19  20
BRANCH  19  24
HETATM   24  C10 UNL     1      -3.188   5.724  17.047  1.00  0.00     0.140 C 
HETATM   25  S1  UNL     1      -4.063   6.922  15.990  1.00  0.00    -0.094 SA
ENDBRANCH  19  24
ENDBRANCH  17  19
ENDBRANCH   2  15
TORSDOF 7
ENDMDL
MODEL 4
REMARK VINA RESULT: -7.297540617      2.779      7.665
REMARK  7 active torsions:
REMARK  status: ('A' for Active; 'I' for Inactive)
REMARK    1  A    between atoms: O1_2  and  C2_3 
REMARK       I    between atoms: C2_3  and  N1_5 
REMARK    2  A    between atoms: N1_5  and  C3_7 
REMARK    3  A    between atoms: C5_11  and  C6_12 
REMARK    4  A    between atoms: C7_13  and  C8_14 
REMARK       I    between atoms: C8_14  and  N3_16 
REMARK    5  A    between atoms: N3_16  and  C9_18 
REMARK    6  A    between atoms: C9_18  and  N4_19 
REMARK    7  A    between atoms: C9_18  and  C10_23 
ROOT
HETATM    1  C6  UNL     1       0.733   7.625  12.376  1.00  0.00     0.026 C 
HETATM    2  C7  UNL     1       0.777   7.635  11.126  1.00  0.00     0.075 C 
ENDROOT
BRANCH   1   3
HETATM    3  C5  UNL     1      -0.278   7.803  13.380  1.00  0.00     0.024 A 
HETATM    4  C4  UNL     1      -1.227   8.732  13.672  1.00  0.00     0.109 A 
HETATM    5  N2  UNL     1      -2.008   8.556  14.716  1.00  0.00    -0.345 N 
HETATM    6  C3  UNL     1      -1.853   7.480  15.457  1.00  0.00     0.153 A 
ATOM      7  H2  UNL     1      -2.724   9.244  14.947  1.00  0.00     0.167 HD
HETATM    8  S2  UNL     1      -0.584   6.661  14.704  1.00  0.00    -0.053 SA
BRANCH   6   9
HETATM    9  N1  UNL     1      -2.540   7.147  16.527  1.00  0.00    -0.282 N 
HETATM   10  C2  UNL     1      -3.718   6.363  16.414  1.00  0.00     0.366 C 
HETATM   11  O2  UNL     1      -4.824   6.959  16.486  1.00  0.00    -0.238 OA
ATOM     12  H1  UNL     1      -2.224   7.454  17.447  1.00  0.00     0.173 HD
BRANCH  10  13
HETATM   13  O1  UNL     1      -3.735   4.996  16.230  1.00  0.00    -0.309 OA
HETATM   14  C1  UNL     1      -3.569   4.357  14.997  1.00  0.00     0.215 C 
ENDBRANCH  10  13
ENDBRANCH   6   9
ENDBRANCH   1   3
BRANCH   2  15
HETATM   15  C8  UNL     1      -0.121   7.822  10.046  1.00  0.00     0.242 C 
HETATM   16  O3  UNL     1      -0.637   6.926   9.375  1.00  0.00    -0.269 OA
HETATM   17  N3  UNL     1      -0.503   9.166   9.652  1.00  0.00    -0.329 N 
ATOM     18  H3  UNL     1      -0.110   9.952  10.170  1.00  0.00     0.164 HD
BRANCH  17  19
HETATM   19  C9  UNL     1      -1.404   9.445   8.573  1.00  0.00     0.294 C 
BRANCH  19  20
HETATM   20  N4  UNL     1      -2.709   8.805   8.786  1.00  0.00    -0.058 N 
ATOM     21  H43 UNL     1      -2.608   7.875   9.191  1.00  0.00     0.276 HD
ATOM     22  H42 UNL     1      -3.226   9.251   9.544  1.00  0.00     0.276 HD
ATOM     23  H41 UNL     1      -3.257   8.780   7.925  1.00  0.00     0.276 HD
ENDBRANCH  19  20
BRANCH  19  24
HETATM   24  C10 UNL     1      -1.685  10.941   8.530  1.00  0.00     0.140 C 
HETATM   25  S1  UNL     1      -0.103  11.829   8.362  1.00  0.00    -0.094 SA
ENDBRANCH  19  24
ENDBRANCH  17  19
ENDBRANCH   2  15
TORSDOF 7
ENDMDL
MODEL 5
REMARK VINA RESULT: -7.244112250      1.853      2.080
REMARK  7 active torsions:
REMARK  status: ('A' for Active; 'I' for Inactive)
REMARK    1  A    between atoms: O1_2  and  C2_3 
REMARK       I    between atoms: C2_3  and  N1_5 
REMARK    2  A    between atoms: N1_5  and  C3_7 
REMARK    3  A    between atoms: C5_11  and  C6_12 
REMARK    4  A    between atoms: C7_13  and  C8_14 
REMARK       I    between atoms: C8_14  and  N3_16 
REMARK    5  A    between atoms: N3_16  and  C9_18 
REMARK    6  A    between atoms: C9_18  and  N4_19 
REMARK    7  A    between atoms: C9_18  and  C10_23 
ROOT
HETATM    1  C6  UNL     1      -0.639   6.141  12.491  1.00  0.00     0.026 C 
HETATM    2  C7  UNL     1      -0.390   5.464  13.512  1.00  0.00     0.075 C 
ENDROOT
BRANCH   1   3
HETATM    3  C5  UNL     1      -0.751   7.537  12.173  1.00  0.00     0.024 A 
HETATM    4  C4  UNL     1      -1.064   8.680  12.841  1.00  0.00     0.109 A 
HETATM    5  N2  UNL     1      -1.065   9.827  12.198  1.00  0.00    -0.345 N 
HETATM    6  C3  UNL     1      -0.763   9.844  10.917  1.00  0.00     0.153 A 
ATOM      7  H2  UNL     1      -1.296  10.692  12.686  1.00  0.00     0.167 HD
HETATM    8  S2  UNL     1      -0.460   8.222  10.562  1.00  0.00    -0.053 SA
BRANCH   6   9
HETATM    9  N1  UNL     1      -0.716  10.893  10.125  1.00  0.00    -0.282 N 
HETATM   10  C2  UNL     1      -1.232  10.825   8.805  1.00  0.00     0.366 C 
HETATM   11  O2  UNL     1      -0.409  10.686   7.864  1.00  0.00    -0.238 OA
ATOM     12  H1  UNL     1      -0.305  11.762  10.463  1.00  0.00     0.173 HD
BRANCH  10  13
HETATM   13  O1  UNL     1      -2.571  10.900   8.483  1.00  0.00    -0.309 OA
HETATM   14  C1  UNL     1      -3.407   9.795   8.291  1.00  0.00     0.215 C 
ENDBRANCH  10  13
ENDBRANCH   6   9
ENDBRANCH   1   3
BRANCH   2  15
HETATM   15  C8  UNL     1      -0.090   5.697  14.878  1.00  0.00     0.242 C 
HETATM   16  O3  UNL     1       0.783   6.454  15.304  1.00  0.00    -0.269 OA
HETATM   17  N3  UNL     1      -0.847   5.008  15.908  1.00  0.00    -0.329 N 
ATOM     18  H3  UNL     1      -1.584   4.367  15.619  1.00  0.00     0.164 HD
BRANCH  17  19
HETATM   19  C9  UNL     1      -0.609   5.185  17.311  1.00  0.00     0.294 C 
BRANCH  19  20
HETATM   20  N4  UNL     1      -1.113   6.482  17.780  1.00  0.00    -0.058 N 
ATOM     21  H43 UNL     1      -0.533   6.859  18.530  1.00  0.00     0.276 HD
ATOM     22  H42 UNL     1      -0.966   7.215  17.086  1.00  0.00     0.276 HD
ATOM     23  H41 UNL     1      -2.092   6.424  18.059  1.00  0.00     0.276 HD
ENDBRANCH  19  20
BRANCH  19  24
HETATM   24  C10 UNL     1      -1.396   4.137  18.087  1.00  0.00     0.140 C 
HETATM   25  S1  UNL     1      -0.964   2.487  17.445  1.00  0.00    -0.094 SA
ENDBRANCH  19  24
ENDBRANCH  17  19
ENDBRANCH   2  15
TORSDOF 7
ENDMDL
