MODEL 1
REMARK VINA RESULT: -7.193026384      0.000      0.000
REMARK  7 active torsions:
REMARK  status: ('A' for Active; 'I' for Inactive)
REMARK    1  A    between atoms: N1_1  and  N2_4 
REMARK    2  A    between atoms: N2_4  and  C1_6 
REMARK    3  A    between atoms: N4_11  and  C3_12 
REMARK    4  A    between atoms: C3_12  and  C4_13 
REMARK    5  A    between atoms: C4_13  and  C5_14 
REMARK    6  A    between atoms: C5_14  and  N5_15 
REMARK    7  A    between atoms: N5_15  and  C6_18 
ROOT
HETATM    1  C1  UNL     1      56.857   2.405  28.636  1.00  0.00     0.704 A 
HETATM    2  N3  UNL     1      58.168   2.696  28.625  1.00  0.00    -0.139 N 
ATOM      3  H3  UNL     1      58.848   2.021  28.276  1.00  0.00     0.189 HD
HETATM    4  C2  UNL     1      58.569   3.911  29.089  1.00  0.00     0.344 A 
HETATM    5  O1  UNL     1      59.797   4.227  29.096  1.00  0.00    -0.246 OA
HETATM    6  N4  UNL     1      57.653   4.791  29.546  1.00  0.00    -0.250 N 
HETATM    7  C11 UNL     1      56.339   4.450  29.537  1.00  0.00     0.344 A 
HETATM    8  O2  UNL     1      55.476   5.269  29.964  1.00  0.00    -0.246 OA
HETATM    9  N7  UNL     1      55.923   3.255  29.083  1.00  0.00    -0.139 N 
ATOM     10  H7  UNL     1      54.934   3.004  29.078  1.00  0.00     0.189 HD
ENDROOT
BRANCH   6  11
HETATM   11  C3  UNL     1      58.038   6.101  30.051  1.00  0.00     0.140 C 
BRANCH  11  12
HETATM   12  C4  UNL     1      58.538   5.899  31.478  1.00  0.00     0.048 C 
BRANCH  12  13
HETATM   13  C5  UNL     1      57.557   6.475  32.479  1.00  0.00     0.234 C 
BRANCH  13  14
HETATM   14  N5  UNL     1      56.815   7.519  31.814  1.00  0.00    -0.069 N 
ATOM     15  H52 UNL     1      57.387   8.359  31.723  1.00  0.00     0.277 HD
ATOM     16  H51 UNL     1      56.683   7.289  30.829  1.00  0.00     0.277 HD
BRANCH  14  17
HETATM   17  C6  UNL     1      55.557   7.837  32.425  1.00  0.00     0.203 C 
HETATM   18  C7  UNL     1      55.134   6.621  33.230  1.00  0.00     0.036 C 
HETATM   19  C8  UNL     1      53.698   6.880  33.652  1.00  0.00     0.021 C 
HETATM   20  C9  UNL     1      52.849   6.759  32.406  1.00  0.00     0.113 C 
HETATM   21  N6  UNL     1      53.496   7.233  31.221  1.00  0.00    -0.419 N 
HETATM   22  C10 UNL     1      54.499   8.237  31.433  1.00  0.00     0.146 C 
ATOM     23  H6  UNL     1      53.260   6.882  30.293  1.00  0.00     0.153 HD
ENDBRANCH  14  17
ENDBRANCH  13  14
ENDBRANCH  12  13
ENDBRANCH  11  12
ENDBRANCH   6  11
BRANCH   1  24
HETATM   24  N2  UNL     1      56.484   1.242  28.190  1.00  0.00    -0.138 N 
ATOM     25  H2  UNL     1      55.515   0.949  28.312  1.00  0.00     0.205 HD
BRANCH  24  26
HETATM   26  N1  UNL     1      57.377   0.385  27.550  1.00  0.00    -0.331 N 
ATOM     27  H12 UNL     1      58.214   0.788  27.129  1.00  0.00     0.177 HD
ATOM     28  H11 UNL     1      57.209  -0.620  27.496  1.00  0.00     0.177 HD
ENDBRANCH  24  26
ENDBRANCH   1  24
TORSDOF 7
ENDMDL
MODEL 2
REMARK VINA RESULT: -7.159891472      0.044      1.776
REMARK  7 active torsions:
REMARK  status: ('A' for Active; 'I' for Inactive)
REMARK    1  A    between atoms: N1_1  and  N2_4 
REMARK    2  A    between atoms: N2_4  and  C1_6 
REMARK    3  A    between atoms: N4_11  and  C3_12 
REMARK    4  A    between atoms: C3_12  and  C4_13 
REMARK    5  A    between atoms: C4_13  and  C5_14 
REMARK    6  A    between atoms: C5_14  and  N5_15 
REMARK    7  A    between atoms: N5_15  and  C6_18 
ROOT
HETATM    1  C1  UNL     1      56.913   2.377  28.668  1.00  0.00     0.704 A 
HETATM    2  N3  UNL     1      55.957   3.222  29.084  1.00  0.00    -0.139 N 
ATOM      3  H3  UNL     1      54.974   2.951  29.058  1.00  0.00     0.189 HD
HETATM    4  C2  UNL     1      56.328   4.449  29.542  1.00  0.00     0.344 A 
HETATM    5  O1  UNL     1      55.458   5.279  29.946  1.00  0.00    -0.246 OA
HETATM    6  N4  UNL     1      57.633   4.790  29.569  1.00  0.00    -0.250 N 
HETATM    7  C11 UNL     1      58.563   3.899  29.137  1.00  0.00     0.344 A 
HETATM    8  O2  UNL     1      59.788   4.212  29.158  1.00  0.00    -0.246 OA
HETATM    9  N7  UNL     1      58.217   2.682  28.681  1.00  0.00    -0.139 N 
ATOM     10  H7  UNL     1      58.919   2.018  28.357  1.00  0.00     0.189 HD
ENDROOT
BRANCH   6  11
HETATM   11  C3  UNL     1      58.074   6.090  30.051  1.00  0.00     0.140 C 
BRANCH  11  12
HETATM   12  C4  UNL     1      58.561   5.893  31.483  1.00  0.00     0.048 C 
BRANCH  12  13
HETATM   13  C5  UNL     1      57.570   6.472  32.474  1.00  0.00     0.234 C 
BRANCH  13  14
HETATM   14  N5  UNL     1      56.816   7.496  31.791  1.00  0.00    -0.069 N 
ATOM     15  H52 UNL     1      57.386   8.334  31.669  1.00  0.00     0.277 HD
ATOM     16  H51 UNL     1      56.671   7.239  30.815  1.00  0.00     0.277 HD
BRANCH  14  17
HETATM   17  C6  UNL     1      55.566   7.828  32.411  1.00  0.00     0.203 C 
HETATM   18  C7  UNL     1      55.129   6.612  33.210  1.00  0.00     0.036 C 
HETATM   19  C8  UNL     1      53.700   6.890  33.641  1.00  0.00     0.021 C 
HETATM   20  C9  UNL     1      52.843   6.791  32.400  1.00  0.00     0.113 C 
HETATM   21  N6  UNL     1      53.490   7.264  31.215  1.00  0.00    -0.419 N 
HETATM   22  C10 UNL     1      54.510   8.251  31.428  1.00  0.00     0.146 C 
ATOM     23  H6  UNL     1      53.245   6.924  30.285  1.00  0.00     0.153 HD
ENDBRANCH  14  17
ENDBRANCH  13  14
ENDBRANCH  12  13
ENDBRANCH  11  12
ENDBRANCH   6  11
BRANCH   1  24
HETATM   24  N2  UNL     1      56.548   1.207  28.232  1.00  0.00    -0.138 N 
ATOM     25  H2  UNL     1      55.589   0.896  28.386  1.00  0.00     0.205 HD
BRANCH  24  26
HETATM   26  N1  UNL     1      57.434   0.368  27.561  1.00  0.00    -0.331 N 
ATOM     27  H12 UNL     1      58.168  -0.090  28.102  1.00  0.00     0.177 HD
ATOM     28  H11 UNL     1      57.362   0.207  26.556  1.00  0.00     0.177 HD
ENDBRANCH  24  26
ENDBRANCH   1  24
TORSDOF 7
ENDMDL
MODEL 3
REMARK VINA RESULT: -7.124776460      5.045      6.771
REMARK  7 active torsions:
REMARK  status: ('A' for Active; 'I' for Inactive)
REMARK    1  A    between atoms: N1_1  and  N2_4 
REMARK    2  A    between atoms: N2_4  and  C1_6 
REMARK    3  A    between atoms: N4_11  and  C3_12 
REMARK    4  A    between atoms: C3_12  and  C4_13 
REMARK    5  A    between atoms: C4_13  and  C5_14 
REMARK    6  A    between atoms: C5_14  and  N5_15 
REMARK    7  A    between atoms: N5_15  and  C6_18 
ROOT
HETATM    1  C1  UNL     1      56.801  10.210  25.403  1.00  0.00     0.704 A 
HETATM    2  N3  UNL     1      57.959  10.736  24.973  1.00  0.00    -0.139 N 
ATOM      3  H3  UNL     1      57.967  11.559  24.372  1.00  0.00     0.189 HD
HETATM    4  C2  UNL     1      59.123  10.145  25.358  1.00  0.00     0.344 A 
HETATM    5  O1  UNL     1      60.241  10.608  24.976  1.00  0.00    -0.246 OA
HETATM    6  N4  UNL     1      59.093   9.055  26.154  1.00  0.00    -0.250 N 
HETATM    7  C11 UNL     1      57.896   8.561  26.561  1.00  0.00     0.344 A 
HETATM    8  O2  UNL     1      57.860   7.540  27.306  1.00  0.00    -0.246 OA
HETATM    9  N7  UNL     1      56.735   9.131  26.192  1.00  0.00    -0.139 N 
ATOM     10  H7  UNL     1      55.838   8.755  26.502  1.00  0.00     0.189 HD
ENDROOT
BRANCH   6  11
HETATM   11  C3  UNL     1      60.314   8.392  26.589  1.00  0.00     0.140 C 
BRANCH  11  12
HETATM   12  C4  UNL     1      60.810   9.138  27.823  1.00  0.00     0.048 C 
BRANCH  12  13
HETATM   13  C5  UNL     1      60.899   8.207  29.016  1.00  0.00     0.234 C 
BRANCH  13  14
HETATM   14  N5  UNL     1      59.658   8.312  29.746  1.00  0.00    -0.069 N 
ATOM     15  H52 UNL     1      59.633   9.180  30.281  1.00  0.00     0.277 HD
ATOM     16  H51 UNL     1      58.882   8.478  29.105  1.00  0.00     0.277 HD
BRANCH  14  17
HETATM   17  C6  UNL     1      59.373   7.192  30.596  1.00  0.00     0.203 C 
HETATM   18  C7  UNL     1      60.483   6.178  30.385  1.00  0.00     0.036 C 
HETATM   19  C8  UNL     1      60.030   4.913  31.091  1.00  0.00     0.021 C 
HETATM   20  C9  UNL     1      58.900   4.335  30.268  1.00  0.00     0.113 C 
HETATM   21  N6  UNL     1      58.066   5.327  29.662  1.00  0.00    -0.419 N 
HETATM   22  C10 UNL     1      58.019   6.588  30.346  1.00  0.00     0.146 C 
ATOM     23  H6  UNL     1      57.542   5.151  28.804  1.00  0.00     0.153 HD
ENDBRANCH  14  17
ENDBRANCH  13  14
ENDBRANCH  12  13
ENDBRANCH  11  12
ENDBRANCH   6  11
BRANCH   1  24
HETATM   24  N2  UNL     1      55.694  10.783  25.030  1.00  0.00    -0.138 N 
ATOM     25  H2  UNL     1      54.803  10.386  25.328  1.00  0.00     0.205 HD
BRANCH  24  26
HETATM   26  N1  UNL     1      55.695  11.926  24.234  1.00  0.00    -0.331 N 
ATOM     27  H12 UNL     1      56.259  11.921  23.384  1.00  0.00     0.177 HD
ATOM     28  H11 UNL     1      55.151  12.753  24.483  1.00  0.00     0.177 HD
ENDBRANCH  24  26
ENDBRANCH   1  24
TORSDOF 7
ENDMDL
MODEL 4
REMARK VINA RESULT: -7.109435754      5.050      6.882
REMARK  7 active torsions:
REMARK  status: ('A' for Active; 'I' for Inactive)
REMARK    1  A    between atoms: N1_1  and  N2_4 
REMARK    2  A    between atoms: N2_4  and  C1_6 
REMARK    3  A    between atoms: N4_11  and  C3_12 
REMARK    4  A    between atoms: C3_12  and  C4_13 
REMARK    5  A    between atoms: C4_13  and  C5_14 
REMARK    6  A    between atoms: C5_14  and  N5_15 
REMARK    7  A    between atoms: N5_15  and  C6_18 
ROOT
HETATM    1  C1  UNL     1      56.814  10.246  25.391  1.00  0.00     0.704 A 
HETATM    2  N3  UNL     1      56.723   9.164  26.181  1.00  0.00    -0.139 N 
ATOM      3  H3  UNL     1      55.813   8.809  26.476  1.00  0.00     0.189 HD
HETATM    4  C2  UNL     1      57.871   8.552  26.580  1.00  0.00     0.344 A 
HETATM    5  O1  UNL     1      57.832   7.526  27.326  1.00  0.00    -0.246 OA
HETATM    6  N4  UNL     1      59.065   9.036  26.179  1.00  0.00    -0.250 N 
HETATM    7  C11 UNL     1      59.104  10.133  25.380  1.00  0.00     0.344 A 
HETATM    8  O2  UNL     1      60.220  10.593  25.002  1.00  0.00    -0.246 OA
HETATM    9  N7  UNL     1      57.981  10.753  24.976  1.00  0.00    -0.139 N 
ATOM     10  H7  UNL     1      58.017  11.577  24.375  1.00  0.00     0.189 HD
ENDROOT
BRANCH   6  11
HETATM   11  C3  UNL     1      60.317   8.412  26.582  1.00  0.00     0.140 C 
BRANCH  11  12
HETATM   12  C4  UNL     1      60.798   9.144  27.830  1.00  0.00     0.048 C 
BRANCH  12  13
HETATM   13  C5  UNL     1      60.897   8.195  29.008  1.00  0.00     0.234 C 
BRANCH  13  14
HETATM   14  N5  UNL     1      59.666   8.296  29.755  1.00  0.00    -0.069 N 
ATOM     15  H52 UNL     1      59.647   9.162  30.294  1.00  0.00     0.277 HD
ATOM     16  H51 UNL     1      58.881   8.464  29.126  1.00  0.00     0.277 HD
BRANCH  14  17
HETATM   17  C6  UNL     1      59.393   7.173  30.605  1.00  0.00     0.203 C 
HETATM   18  C7  UNL     1      60.497   6.158  30.370  1.00  0.00     0.036 C 
HETATM   19  C8  UNL     1      60.053   4.890  31.077  1.00  0.00     0.021 C 
HETATM   20  C9  UNL     1      58.907   4.319  30.272  1.00  0.00     0.113 C 
HETATM   21  N6  UNL     1      58.065   5.316  29.686  1.00  0.00    -0.419 N 
HETATM   22  C10 UNL     1      58.033   6.573  30.377  1.00  0.00     0.146 C 
ATOM     23  H6  UNL     1      57.525   5.145  28.836  1.00  0.00     0.153 HD
ENDBRANCH  14  17
ENDBRANCH  13  14
ENDBRANCH  12  13
ENDBRANCH  11  12
ENDBRANCH   6  11
BRANCH   1  24
HETATM   24  N2  UNL     1      55.710  10.823  25.016  1.00  0.00    -0.138 N 
ATOM     25  H2  UNL     1      54.818  10.445  25.332  1.00  0.00     0.205 HD
BRANCH  24  26
HETATM   26  N1  UNL     1      55.718  11.947  24.192  1.00  0.00    -0.331 N 
ATOM     27  H12 UNL     1      55.913  12.854  24.616  1.00  0.00     0.177 HD
ATOM     28  H11 UNL     1      55.535  11.878  23.191  1.00  0.00     0.177 HD
ENDBRANCH  24  26
ENDBRANCH   1  24
TORSDOF 7
ENDMDL
MODEL 5
REMARK VINA RESULT: -6.914067187      2.972      4.987
REMARK  7 active torsions:
REMARK  status: ('A' for Active; 'I' for Inactive)
REMARK    1  A    between atoms: N1_1  and  N2_4 
REMARK    2  A    between atoms: N2_4  and  C1_6 
REMARK    3  A    between atoms: N4_11  and  C3_12 
REMARK    4  A    between atoms: C3_12  and  C4_13 
REMARK    5  A    between atoms: C4_13  and  C5_14 
REMARK    6  A    between atoms: C5_14  and  N5_15 
REMARK    7  A    between atoms: N5_15  and  C6_18 
ROOT
HETATM    1  C1  UNL     1      57.072   1.174  28.067  1.00  0.00     0.704 A 
HETATM    2  N3  UNL     1      55.864   1.758  28.027  1.00  0.00    -0.139 N 
ATOM      3  H3  UNL     1      55.063   1.271  27.625  1.00  0.00     0.189 HD
HETATM    4  C2  UNL     1      55.732   3.015  28.533  1.00  0.00     0.344 A 
HETATM    5  O1  UNL     1      54.608   3.604  28.516  1.00  0.00    -0.246 OA
HETATM    6  N4  UNL     1      56.803   3.643  29.060  1.00  0.00    -0.250 N 
HETATM    7  C11 UNL     1      58.004   3.010  29.078  1.00  0.00     0.344 A 
HETATM    8  O2  UNL     1      59.013   3.592  29.570  1.00  0.00    -0.246 OA
HETATM    9  N7  UNL     1      58.155   1.768  28.583  1.00  0.00    -0.139 N 
ATOM     10  H7  UNL     1      59.060   1.298  28.599  1.00  0.00     0.189 HD
ENDROOT
BRANCH   6  11
HETATM   11  C3  UNL     1      56.707   4.986  29.612  1.00  0.00     0.140 C 
BRANCH  11  12
HETATM   12  C4  UNL     1      56.887   5.959  28.452  1.00  0.00     0.048 C 
BRANCH  12  13
HETATM   13  C5  UNL     1      57.732   7.146  28.868  1.00  0.00     0.234 C 
BRANCH  13  14
HETATM   14  N5  UNL     1      58.517   6.744  30.011  1.00  0.00    -0.069 N 
ATOM     15  H52 UNL     1      58.007   6.930  30.875  1.00  0.00     0.277 HD
ATOM     16  H51 UNL     1      58.579   5.727  30.060  1.00  0.00     0.277 HD
BRANCH  14  17
HETATM   17  C6  UNL     1      59.827   7.326  30.068  1.00  0.00     0.203 C 
HETATM   18  C7  UNL     1      60.023   8.106  28.780  1.00  0.00     0.036 C 
HETATM   19  C8  UNL     1      61.490   8.494  28.749  1.00  0.00     0.021 C 
HETATM   20  C9  UNL     1      62.272   7.226  28.486  1.00  0.00     0.113 C 
HETATM   21  N6  UNL     1      61.703   6.064  29.095  1.00  0.00    -0.419 N 
HETATM   22  C10 UNL     1      60.919   6.312  30.271  1.00  0.00     0.146 C 
ATOM     23  H6  UNL     1      61.844   5.125  28.721  1.00  0.00     0.153 HD
ENDBRANCH  14  17
ENDBRANCH  13  14
ENDBRANCH  12  13
ENDBRANCH  11  12
ENDBRANCH   6  11
BRANCH   1  24
HETATM   24  N2  UNL     1      57.187  -0.027  27.581  1.00  0.00    -0.138 N 
ATOM     25  H2  UNL     1      57.934  -0.632  27.922  1.00  0.00     0.205 HD
BRANCH  24  26
HETATM   26  N1  UNL     1      56.315  -0.508  26.607  1.00  0.00    -0.331 N 
ATOM     27  H12 UNL     1      55.335  -0.229  26.658  1.00  0.00     0.177 HD
ATOM     28  H11 UNL     1      56.635  -1.123  25.859  1.00  0.00     0.177 HD
ENDBRANCH  24  26
ENDBRANCH   1  24
TORSDOF 7
ENDMDL
