MODEL 1
REMARK VINA RESULT: -6.963170866      0.000      0.000
REMARK  9 active torsions:
REMARK  status: ('A' for Active; 'I' for Inactive)
REMARK    1  A    between atoms: C2_3  and  C3_4 
REMARK    2  A    between atoms: C3_4  and  N2_5 
REMARK       I    between atoms: N2_5  and  C4_7 
REMARK       I    between atoms: C4_7  and  N4_11 
REMARK    3  A    between atoms: C6_13  and  N5_14 
REMARK    4  A    between atoms: C6_13  and  C7_18 
REMARK    5  A    between atoms: C7_18  and  N6_19 
REMARK    6  A    between atoms: C9_26  and  N8_27 
REMARK    7  A    between atoms: N8_27  and  C10_29 
REMARK    8  A    between atoms: C10_29  and  C11_30 
REMARK    9  A    between atoms: C11_30  and  N9_31 
ROOT
HETATM    1  N1  UNL     1      56.783   6.501  33.783  1.00  0.00    -0.197 NA
HETATM    2  C1  UNL     1      55.764   6.501  33.223  1.00  0.00     0.060 C 
HETATM    3  C2  UNL     1      54.467   6.474  32.509  1.00  0.00     0.144 C 
ENDROOT
BRANCH   3   4
HETATM    4  C3  UNL     1      54.651   6.084  31.071  1.00  0.00     0.152 C 
BRANCH   4   5
HETATM    5  N2  UNL     1      55.991   5.783  30.684  1.00  0.00    -0.225 N 
HETATM    6  C4  UNL     1      56.624   6.382  29.567  1.00  0.00     0.688 C 
HETATM    7  N3  UNL     1      55.989   7.286  28.913  1.00  0.00    -0.234 N 
HETATM    8  N4  UNL     1      57.942   5.986  29.173  1.00  0.00    -0.013 N 
ATOM      9  H32 UNL     1      55.049   7.568  29.193  1.00  0.00     0.174 HD
ATOM     10  H31 UNL     1      56.444   7.717  28.108  1.00  0.00     0.174 HD
HETATM   11  C5  UNL     1      59.044   6.814  29.592  1.00  0.00     0.208 C 
HETATM   12  C9  UNL     1      58.105   4.809  28.397  1.00  0.00     0.690 C 
HETATM   13  C6  UNL     1      60.377   6.142  29.458  1.00  0.00     0.180 C 
HETATM   14  C8  UNL     1      60.487   5.241  28.272  1.00  0.00     0.180 C 
HETATM   15  N7  UNL     1      59.280   4.498  28.002  1.00  0.00    -0.223 N 
ATOM     16  H7  UNL     1      59.372   3.648  27.446  1.00  0.00     0.177 HD
ATOM     17  H2  UNL     1      56.517   5.105  31.237  1.00  0.00     0.177 HD
BRANCH  13  18
HETATM   18  N5  UNL     1      60.621   5.381  30.669  1.00  0.00    -0.066 N 
ATOM     19  H53 UNL     1      60.192   5.803  31.493  1.00  0.00     0.275 HD
ATOM     20  H52 UNL     1      60.112   4.497  30.688  1.00  0.00     0.275 HD
ATOM     21  H51 UNL     1      61.629   5.260  30.768  1.00  0.00     0.275 HD
ENDBRANCH  13  18
BRANCH  13  22
HETATM   22  C7  UNL     1      61.446   7.209  29.345  1.00  0.00     0.271 C 
BRANCH  22  23
HETATM   23  N6  UNL     1      62.754   6.639  29.144  1.00  0.00    -0.077 N 
ATOM     24  H63 UNL     1      63.484   7.244  29.518  1.00  0.00     0.274 HD
ATOM     25  H62 UNL     1      62.899   5.824  29.741  1.00  0.00     0.274 HD
ATOM     26  H61 UNL     1      62.924   6.415  28.164  1.00  0.00     0.274 HD
ENDBRANCH  22  23
ENDBRANCH  13  22
BRANCH  12  27
HETATM   27  N8  UNL     1      57.024   3.967  28.043  1.00  0.00    -0.224 N 
ATOM     28  H8  UNL     1      56.512   4.177  27.186  1.00  0.00     0.177 HD
BRANCH  27  29
HETATM   29  C10 UNL     1      56.601   2.826  28.825  1.00  0.00     0.165 C 
BRANCH  29  30
HETATM   30  C11 UNL     1      57.579   1.671  28.675  1.00  0.00     0.249 C 
BRANCH  30  31
HETATM   31  N9  UNL     1      57.013   0.625  27.843  1.00  0.00    -0.078 N 
ATOM     32  H93 UNL     1      57.709  -0.076  27.592  1.00  0.00     0.274 HD
ATOM     33  H92 UNL     1      56.375   0.027  28.370  1.00  0.00     0.274 HD
ATOM     34  H91 UNL     1      56.563   1.024  27.020  1.00  0.00     0.274 HD
ENDBRANCH  30  31
ENDBRANCH  29  30
ENDBRANCH  27  29
ENDBRANCH  12  27
ENDBRANCH   4   5
ENDBRANCH   3   4
TORSDOF 9
ENDMDL
MODEL 2
REMARK VINA RESULT: -6.918204781      2.953      3.945
REMARK  9 active torsions:
REMARK  status: ('A' for Active; 'I' for Inactive)
REMARK    1  A    between atoms: C2_3  and  C3_4 
REMARK    2  A    between atoms: C3_4  and  N2_5 
REMARK       I    between atoms: N2_5  and  C4_7 
REMARK       I    between atoms: C4_7  and  N4_11 
REMARK    3  A    between atoms: C6_13  and  N5_14 
REMARK    4  A    between atoms: C6_13  and  C7_18 
REMARK    5  A    between atoms: C7_18  and  N6_19 
REMARK    6  A    between atoms: C9_26  and  N8_27 
REMARK    7  A    between atoms: N8_27  and  C10_29 
REMARK    8  A    between atoms: C10_29  and  C11_30 
REMARK    9  A    between atoms: C11_30  and  N9_31 
ROOT
HETATM    1  N1  UNL     1      59.364   4.049  30.301  1.00  0.00    -0.197 NA
HETATM    2  C1  UNL     1      59.028   4.858  31.066  1.00  0.00     0.060 C 
HETATM    3  C2  UNL     1      58.574   5.882  32.033  1.00  0.00     0.144 C 
ENDROOT
BRANCH   3   4
HETATM    4  C3  UNL     1      58.046   7.096  31.325  1.00  0.00     0.152 C 
BRANCH   4   5
HETATM    5  N2  UNL     1      58.242   7.115  29.912  1.00  0.00    -0.225 N 
HETATM    6  C4  UNL     1      57.182   7.302  28.990  1.00  0.00     0.688 C 
HETATM    7  N3  UNL     1      56.004   7.531  29.445  1.00  0.00    -0.234 N 
HETATM    8  N4  UNL     1      57.420   7.233  27.580  1.00  0.00    -0.013 N 
ATOM      9  H32 UNL     1      55.835   7.580  30.450  1.00  0.00     0.174 HD
ATOM     10  H31 UNL     1      55.242   7.665  28.781  1.00  0.00     0.174 HD
HETATM   11  C5  UNL     1      57.577   8.473  26.864  1.00  0.00     0.208 C 
HETATM   12  C9  UNL     1      57.491   5.961  26.954  1.00  0.00     0.690 C 
HETATM   13  C6  UNL     1      58.176   8.303  25.502  1.00  0.00     0.180 C 
HETATM   14  C8  UNL     1      57.755   7.050  24.805  1.00  0.00     0.180 C 
HETATM   15  N7  UNL     1      57.644   5.914  25.687  1.00  0.00    -0.223 N 
ATOM     16  H7  UNL     1      57.692   4.989  25.260  1.00  0.00     0.177 HD
ATOM     17  H2  UNL     1      59.188   6.990  29.550  1.00  0.00     0.177 HD
BRANCH  13  18
HETATM   18  N5  UNL     1      59.620   8.318  25.641  1.00  0.00    -0.066 N 
ATOM     19  H53 UNL     1      59.956   9.119  26.176  1.00  0.00     0.275 HD
ATOM     20  H52 UNL     1      59.964   7.585  26.260  1.00  0.00     0.275 HD
ATOM     21  H51 UNL     1      60.027   8.270  24.706  1.00  0.00     0.275 HD
ENDBRANCH  13  18
BRANCH  13  22
HETATM   22  C7  UNL     1      57.769   9.483  24.644  1.00  0.00     0.271 C 
BRANCH  22  23
HETATM   23  N6  UNL     1      56.605  10.151  25.169  1.00  0.00    -0.077 N 
ATOM     24  H63 UNL     1      55.807  10.053  24.541  1.00  0.00     0.274 HD
ATOM     25  H62 UNL     1      56.232   9.662  25.982  1.00  0.00     0.274 HD
ATOM     26  H61 UNL     1      56.793  11.131  25.379  1.00  0.00     0.274 HD
ENDBRANCH  22  23
ENDBRANCH  13  22
BRANCH  12  27
HETATM   27  N8  UNL     1      57.398   4.745  27.674  1.00  0.00    -0.224 N 
ATOM     28  H8  UNL     1      58.258   4.339  28.043  1.00  0.00     0.177 HD
BRANCH  27  29
HETATM   29  C10 UNL     1      56.155   4.045  27.916  1.00  0.00     0.165 C 
BRANCH  29  30
HETATM   30  C11 UNL     1      56.403   2.733  28.644  1.00  0.00     0.249 C 
BRANCH  30  31
HETATM   31  N9  UNL     1      57.685   2.171  28.264  1.00  0.00    -0.078 N 
ATOM     32  H93 UNL     1      57.652   1.746  27.337  1.00  0.00     0.274 HD
ATOM     33  H92 UNL     1      58.375   2.898  28.074  1.00  0.00     0.274 HD
ATOM     34  H91 UNL     1      58.014   1.513  28.971  1.00  0.00     0.274 HD
ENDBRANCH  30  31
ENDBRANCH  29  30
ENDBRANCH  27  29
ENDBRANCH  12  27
ENDBRANCH   4   5
ENDBRANCH   3   4
TORSDOF 9
ENDMDL
MODEL 3
REMARK VINA RESULT: -6.917933874      2.653      4.007
REMARK  9 active torsions:
REMARK  status: ('A' for Active; 'I' for Inactive)
REMARK    1  A    between atoms: C2_3  and  C3_4 
REMARK    2  A    between atoms: C3_4  and  N2_5 
REMARK       I    between atoms: N2_5  and  C4_7 
REMARK       I    between atoms: C4_7  and  N4_11 
REMARK    3  A    between atoms: C6_13  and  N5_14 
REMARK    4  A    between atoms: C6_13  and  C7_18 
REMARK    5  A    between atoms: C7_18  and  N6_19 
REMARK    6  A    between atoms: C9_26  and  N8_27 
REMARK    7  A    between atoms: N8_27  and  C10_29 
REMARK    8  A    between atoms: C10_29  and  C11_30 
REMARK    9  A    between atoms: C11_30  and  N9_31 
ROOT
HETATM    1  N1  UNL     1      60.140   4.407  30.563  1.00  0.00    -0.197 NA
HETATM    2  C1  UNL     1      59.491   5.140  31.192  1.00  0.00     0.060 C 
HETATM    3  C2  UNL     1      58.650   6.052  31.999  1.00  0.00     0.144 C 
ENDROOT
BRANCH   3   4
HETATM    4  C3  UNL     1      57.311   6.262  31.354  1.00  0.00     0.152 C 
BRANCH   4   5
HETATM    5  N2  UNL     1      57.278   6.087  29.939  1.00  0.00    -0.225 N 
HETATM    6  C4  UNL     1      56.378   6.787  29.097  1.00  0.00     0.688 C 
HETATM    7  N3  UNL     1      55.604   7.668  29.621  1.00  0.00    -0.234 N 
HETATM    8  N4  UNL     1      56.330   6.516  27.692  1.00  0.00    -0.013 N 
ATOM      9  H32 UNL     1      55.638   7.860  30.622  1.00  0.00     0.174 HD
ATOM     10  H31 UNL     1      54.957   8.171  29.014  1.00  0.00     0.174 HD
HETATM   11  C5  UNL     1      57.042   7.408  26.812  1.00  0.00     0.208 C 
HETATM   12  C9  UNL     1      55.595   5.394  27.231  1.00  0.00     0.690 C 
HETATM   13  C6  UNL     1      57.242   6.852  25.435  1.00  0.00     0.180 C 
HETATM   14  C8  UNL     1      56.102   6.019  24.945  1.00  0.00     0.180 C 
HETATM   15  N7  UNL     1      55.510   5.196  25.972  1.00  0.00    -0.223 N 
ATOM     16  H7  UNL     1      54.976   4.384  25.665  1.00  0.00     0.177 HD
ATOM     17  H2  UNL     1      57.932   5.429  29.514  1.00  0.00     0.177 HD
BRANCH  13  18
HETATM   18  N5  UNL     1      58.455   6.057  25.443  1.00  0.00    -0.066 N 
ATOM     19  H53 UNL     1      58.822   5.888  24.507  1.00  0.00     0.275 HD
ATOM     20  H52 UNL     1      59.257   6.565  25.816  1.00  0.00     0.275 HD
ATOM     21  H51 UNL     1      58.263   5.194  25.954  1.00  0.00     0.275 HD
ENDBRANCH  13  18
BRANCH  13  22
HETATM   22  C7  UNL     1      57.436   8.004  24.472  1.00  0.00     0.271 C 
BRANCH  22  23
HETATM   23  N6  UNL     1      56.675   9.164  24.862  1.00  0.00    -0.077 N 
ATOM     24  H63 UNL     1      56.231   9.028  25.770  1.00  0.00     0.274 HD
ATOM     25  H62 UNL     1      57.286   9.946  25.098  1.00  0.00     0.274 HD
ATOM     26  H61 UNL     1      55.992   9.427  24.152  1.00  0.00     0.274 HD
ENDBRANCH  22  23
ENDBRANCH  13  22
BRANCH  12  27
HETATM   27  N8  UNL     1      54.950   4.486  28.106  1.00  0.00    -0.224 N 
ATOM     28  H8  UNL     1      54.384   4.869  28.863  1.00  0.00     0.177 HD
BRANCH  27  29
HETATM   29  C10 UNL     1      55.049   3.047  27.989  1.00  0.00     0.165 C 
BRANCH  29  30
HETATM   30  C11 UNL     1      56.358   2.542  28.577  1.00  0.00     0.249 C 
BRANCH  30  31
HETATM   31  N9  UNL     1      56.627   1.186  28.140  1.00  0.00    -0.078 N 
ATOM     32  H93 UNL     1      56.785   0.559  28.929  1.00  0.00     0.274 HD
ATOM     33  H92 UNL     1      55.793   0.741  27.755  1.00  0.00     0.274 HD
ATOM     34  H91 UNL     1      57.404   1.167  27.480  1.00  0.00     0.274 HD
ENDBRANCH  30  31
ENDBRANCH  29  30
ENDBRANCH  27  29
ENDBRANCH  12  27
ENDBRANCH   4   5
ENDBRANCH   3   4
TORSDOF 9
ENDMDL
MODEL 4
REMARK VINA RESULT: -6.890011184      2.621      4.688
REMARK  9 active torsions:
REMARK  status: ('A' for Active; 'I' for Inactive)
REMARK    1  A    between atoms: C2_3  and  C3_4 
REMARK    2  A    between atoms: C3_4  and  N2_5 
REMARK       I    between atoms: N2_5  and  C4_7 
REMARK       I    between atoms: C4_7  and  N4_11 
REMARK    3  A    between atoms: C6_13  and  N5_14 
REMARK    4  A    between atoms: C6_13  and  C7_18 
REMARK    5  A    between atoms: C7_18  and  N6_19 
REMARK    6  A    between atoms: C9_26  and  N8_27 
REMARK    7  A    between atoms: N8_27  and  C10_29 
REMARK    8  A    between atoms: C10_29  and  C11_30 
REMARK    9  A    between atoms: C11_30  and  N9_31 
ROOT
HETATM    1  N1  UNL     1      58.962   0.314  27.967  1.00  0.00    -0.197 NA
HETATM    2  C1  UNL     1      57.936   0.825  28.167  1.00  0.00     0.060 C 
HETATM    3  C2  UNL     1      56.634   1.491  28.400  1.00  0.00     0.144 C 
ENDROOT
BRANCH   3   4
HETATM    4  C3  UNL     1      56.828   2.873  28.952  1.00  0.00     0.152 C 
BRANCH   4   5
HETATM    5  N2  UNL     1      57.966   3.577  28.458  1.00  0.00    -0.225 N 
HETATM    6  C4  UNL     1      58.187   4.955  28.706  1.00  0.00     0.688 C 
HETATM    7  N3  UNL     1      57.363   5.583  29.464  1.00  0.00    -0.234 N 
HETATM    8  N4  UNL     1      59.303   5.633  28.120  1.00  0.00    -0.013 N 
ATOM      9  H32 UNL     1      56.567   5.100  29.881  1.00  0.00     0.174 HD
ATOM     10  H31 UNL     1      57.522   6.575  29.642  1.00  0.00     0.174 HD
HETATM   11  C5  UNL     1      60.475   5.826  28.936  1.00  0.00     0.208 C 
HETATM   12  C9  UNL     1      59.210   6.082  26.777  1.00  0.00     0.690 C 
HETATM   13  C6  UNL     1      61.693   6.200  28.149  1.00  0.00     0.180 C 
HETATM   14  C8  UNL     1      61.411   7.077  26.973  1.00  0.00     0.180 C 
HETATM   15  N7  UNL     1      60.189   6.738  26.284  1.00  0.00    -0.223 N 
ATOM     16  H7  UNL     1      60.099   7.049  25.318  1.00  0.00     0.177 HD
ATOM     17  H2  UNL     1      58.652   3.066  27.902  1.00  0.00     0.177 HD
BRANCH  13  18
HETATM   18  N5  UNL     1      62.331   4.977  27.699  1.00  0.00    -0.066 N 
ATOM     19  H53 UNL     1      62.267   4.224  28.384  1.00  0.00     0.275 HD
ATOM     20  H52 UNL     1      61.820   4.520  26.944  1.00  0.00     0.275 HD
ATOM     21  H51 UNL     1      63.295   5.199  27.446  1.00  0.00     0.275 HD
ENDBRANCH  13  18
BRANCH  13  22
HETATM   22  C7  UNL     1      62.655   6.928  29.064  1.00  0.00     0.271 C 
BRANCH  22  23
HETATM   23  N6  UNL     1      63.666   7.640  28.324  1.00  0.00    -0.077 N 
ATOM     24  H63 UNL     1      63.359   8.584  28.091  1.00  0.00     0.274 HD
ATOM     25  H62 UNL     1      64.464   7.871  28.916  1.00  0.00     0.274 HD
ATOM     26  H61 UNL     1      63.957   7.128  27.491  1.00  0.00     0.274 HD
ENDBRANCH  22  23
ENDBRANCH  13  22
BRANCH  12  27
HETATM   27  N8  UNL     1      58.079   5.834  25.962  1.00  0.00    -0.224 N 
ATOM     28  H8  UNL     1      57.983   4.910  25.541  1.00  0.00     0.177 HD
BRANCH  27  29
HETATM   29  C10 UNL     1      57.051   6.816  25.690  1.00  0.00     0.165 C 
BRANCH  29  30
HETATM   30  C11 UNL     1      57.161   7.338  24.265  1.00  0.00     0.249 C 
BRANCH  30  31
HETATM   31  N9  UNL     1      57.867   8.605  24.236  1.00  0.00    -0.078 N 
ATOM     32  H93 UNL     1      57.235   9.392  24.382  1.00  0.00     0.274 HD
ATOM     33  H92 UNL     1      58.457   8.727  25.060  1.00  0.00     0.274 HD
ATOM     34  H91 UNL     1      58.399   8.701  23.372  1.00  0.00     0.274 HD
ENDBRANCH  30  31
ENDBRANCH  29  30
ENDBRANCH  27  29
ENDBRANCH  12  27
ENDBRANCH   4   5
ENDBRANCH   3   4
TORSDOF 9
ENDMDL
MODEL 5
REMARK VINA RESULT: -6.864170526      3.495      6.130
REMARK  9 active torsions:
REMARK  status: ('A' for Active; 'I' for Inactive)
REMARK    1  A    between atoms: C2_3  and  C3_4 
REMARK    2  A    between atoms: C3_4  and  N2_5 
REMARK       I    between atoms: N2_5  and  C4_7 
REMARK       I    between atoms: C4_7  and  N4_11 
REMARK    3  A    between atoms: C6_13  and  N5_14 
REMARK    4  A    between atoms: C6_13  and  C7_18 
REMARK    5  A    between atoms: C7_18  and  N6_19 
REMARK    6  A    between atoms: C9_26  and  N8_27 
REMARK    7  A    between atoms: N8_27  and  C10_29 
REMARK    8  A    between atoms: C10_29  and  C11_30 
REMARK    9  A    between atoms: C11_30  and  N9_31 
ROOT
HETATM    1  N1  UNL     1      57.352  10.760  25.025  1.00  0.00    -0.197 NA
HETATM    2  C1  UNL     1      58.513  10.697  25.039  1.00  0.00     0.060 C 
HETATM    3  C2  UNL     1      59.990  10.592  25.044  1.00  0.00     0.144 C 
ENDROOT
BRANCH   3   4
HETATM    4  C3  UNL     1      60.455   9.588  26.059  1.00  0.00     0.152 C 
BRANCH   4   5
HETATM    5  N2  UNL     1      59.488   9.214  27.039  1.00  0.00    -0.225 N 
HETATM    6  C4  UNL     1      59.105   7.869  27.268  1.00  0.00     0.688 C 
HETATM    7  N3  UNL     1      59.702   6.939  26.614  1.00  0.00    -0.234 N 
HETATM    8  N4  UNL     1      58.072   7.553  28.207  1.00  0.00    -0.013 N 
ATOM      9  H32 UNL     1      60.438   7.164  25.944  1.00  0.00     0.174 HD
ATOM     10  H31 UNL     1      59.426   5.971  26.779  1.00  0.00     0.174 HD
HETATM   11  C5  UNL     1      58.470   7.125  29.524  1.00  0.00     0.208 C 
HETATM   12  C9  UNL     1      56.716   7.674  27.807  1.00  0.00     0.690 C 
HETATM   13  C6  UNL     1      57.359   7.173  30.528  1.00  0.00     0.180 C 
HETATM   14  C8  UNL     1      56.018   6.824  29.967  1.00  0.00     0.180 C 
HETATM   15  N7  UNL     1      55.804   7.333  28.634  1.00  0.00    -0.223 N 
ATOM     16  H7  UNL     1      54.837   7.429  28.324  1.00  0.00     0.177 HD
ATOM     17  H2  UNL     1      59.054   9.947  27.600  1.00  0.00     0.177 HD
BRANCH  13  18
HETATM   18  N5  UNL     1      57.316   8.512  31.086  1.00  0.00    -0.066 N 
ATOM     19  H53 UNL     1      58.214   8.808  31.469  1.00  0.00     0.275 HD
ATOM     20  H52 UNL     1      57.227   9.235  30.372  1.00  0.00     0.275 HD
ATOM     21  H51 UNL     1      56.564   8.542  31.775  1.00  0.00     0.275 HD
ENDBRANCH  13  18
BRANCH  13  22
HETATM   22  C7  UNL     1      57.674   6.202  31.645  1.00  0.00     0.271 C 
BRANCH  22  23
HETATM   23  N6  UNL     1      57.034   6.579  32.880  1.00  0.00    -0.077 N 
ATOM     24  H63 UNL     1      57.554   7.315  33.357  1.00  0.00     0.274 HD
ATOM     25  H62 UNL     1      56.164   7.083  32.708  1.00  0.00     0.274 HD
ATOM     26  H61 UNL     1      56.884   5.776  33.490  1.00  0.00     0.274 HD
ENDBRANCH  22  23
ENDBRANCH  13  22
BRANCH  12  27
HETATM   27  N8  UNL     1      56.332   8.156  26.532  1.00  0.00    -0.224 N 
ATOM     28  H8  UNL     1      56.518   9.134  26.312  1.00  0.00     0.177 HD
BRANCH  27  29
HETATM   29  C10 UNL     1      55.690   7.340  25.523  1.00  0.00     0.165 C 
BRANCH  29  30
HETATM   30  C11 UNL     1      56.720   6.679  24.622  1.00  0.00     0.249 C 
BRANCH  30  31
HETATM   31  N9  UNL     1      57.488   7.678  23.902  1.00  0.00    -0.078 N 
ATOM     32  H93 UNL     1      58.142   8.165  24.515  1.00  0.00     0.274 HD
ATOM     33  H92 UNL     1      58.163   7.251  23.267  1.00  0.00     0.274 HD
ATOM     34  H91 UNL     1      56.869   8.326  23.416  1.00  0.00     0.274 HD
ENDBRANCH  30  31
ENDBRANCH  29  30
ENDBRANCH  27  29
ENDBRANCH  12  27
ENDBRANCH   4   5
ENDBRANCH   3   4
TORSDOF 9
ENDMDL
