MODEL 1
REMARK VINA RESULT: -8.071388962      0.000      0.000
REMARK  6 active torsions:
REMARK  status: ('A' for Active; 'I' for Inactive)
REMARK    1  A    between atoms: O1_2  and  C2_3 
REMARK    2  A    between atoms: C3_6  and  N2_7 
REMARK    3  A    between atoms: N2_7  and  C4_9 
REMARK    4  A    between atoms: C4_9  and  C5_10 
REMARK    5  A    between atoms: C5_10  and  O2_11 
REMARK    6  A    between atoms: O2_11  and  N3_12 
REMARK       I    between atoms: N3_12  and  C6_14 
ROOT
HETATM    1  C2  UNL     1      60.298   6.510  26.470  1.00  0.00     0.188 A 
HETATM    2  N1  UNL     1      59.404   5.600  26.870  1.00  0.00    -0.168 N 
ATOM      3  H1  UNL     1      59.711   4.643  27.043  1.00  0.00     0.186 HD
HETATM    4  C3  UNL     1      58.083   5.925  27.052  1.00  0.00     0.681 A 
HETATM    5  N6  UNL     1      57.664   7.180  26.829  1.00  0.00    -0.174 N 
ATOM      6  H6  UNL     1      56.681   7.412  26.968  1.00  0.00     0.186 HD
HETATM    7  C7  UNL     1      58.526   8.149  26.421  1.00  0.00     0.156 A 
HETATM    8  N7  UNL     1      58.336   9.450  26.141  1.00  0.00    -0.292 N 
ATOM      9  H7  UNL     1      57.461   9.972  26.187  1.00  0.00     0.172 HD
HETATM   10  C8  UNL     1      59.551   9.920  25.785  1.00  0.00     0.326 A 
HETATM   11  O3  UNL     1      59.796  11.119  25.444  1.00  0.00    -0.247 OA
HETATM   12  N8  UNL     1      60.466   8.935  25.844  1.00  0.00    -0.302 N 
ATOM     13  H8  UNL     1      61.458   9.029  25.624  1.00  0.00     0.171 HD
HETATM   14  C9  UNL     1      59.846   7.793  26.247  1.00  0.00     0.133 A 
ENDROOT
BRANCH   4  15
HETATM   15  N2  UNL     1      57.278   5.006  27.437  1.00  0.00    -0.224 N 
ATOM     16  H2  UNL     1      56.791   4.472  26.717  1.00  0.00     0.177 HD
BRANCH  15  17
HETATM   17  C4  UNL     1      57.011   4.675  28.797  1.00  0.00     0.166 C 
BRANCH  17  18
HETATM   18  C5  UNL     1      58.212   4.156  29.555  1.00  0.00     0.221 C 
BRANCH  18  19
HETATM   19  O2  UNL     1      58.673   3.031  28.906  1.00  0.00    -0.276 OA
BRANCH  19  20
HETATM   20  N3  UNL     1      57.809   2.001  29.036  1.00  0.00    -0.239 N 
HETATM   21  C6  UNL     1      57.781   0.872  28.176  1.00  0.00     0.205 C 
HETATM   22  N4  UNL     1      56.717   0.432  27.607  1.00  0.00    -0.372 N 
HETATM   23  N5  UNL     1      58.996   0.178  27.923  1.00  0.00    -0.062 NA
ATOM     24  H42 UNL     1      55.845   0.930  27.788  1.00  0.00     0.158 HD
ATOM     25  H41 UNL     1      56.697  -0.378  26.989  1.00  0.00     0.158 HD
ATOM     26  H3  UNL     1      57.134   2.036  29.800  1.00  0.00     0.197 HD
ENDBRANCH  19  20
ENDBRANCH  18  19
ENDBRANCH  17  18
ENDBRANCH  15  17
ENDBRANCH   4  15
BRANCH   1  27
HETATM   27  O1  UNL     1      61.644   6.232  26.271  1.00  0.00    -0.339 OA
HETATM   28  C1  UNL     1      62.410   5.724  27.338  1.00  0.00     0.211 C 
ENDBRANCH   1  27
TORSDOF 6
ENDMDL
MODEL 2
REMARK VINA RESULT: -8.028199256      1.853      2.062
REMARK  6 active torsions:
REMARK  status: ('A' for Active; 'I' for Inactive)
REMARK    1  A    between atoms: O1_2  and  C2_3 
REMARK    2  A    between atoms: C3_6  and  N2_7 
REMARK    3  A    between atoms: N2_7  and  C4_9 
REMARK    4  A    between atoms: C4_9  and  C5_10 
REMARK    5  A    between atoms: C5_10  and  O2_11 
REMARK    6  A    between atoms: O2_11  and  N3_12 
REMARK       I    between atoms: N3_12  and  C6_14 
ROOT
HETATM    1  C2  UNL     1      58.099   6.493  25.778  1.00  0.00     0.188 A 
HETATM    2  N1  UNL     1      57.338   5.683  26.521  1.00  0.00    -0.168 N 
ATOM      3  H1  UNL     1      57.598   4.701  26.614  1.00  0.00     0.186 HD
HETATM    4  C3  UNL     1      56.214   6.144  27.162  1.00  0.00     0.681 A 
HETATM    5  N6  UNL     1      55.860   7.433  27.050  1.00  0.00    -0.174 N 
ATOM      6  H6  UNL     1      55.024   7.766  27.531  1.00  0.00     0.186 HD
HETATM    7  C7  UNL     1      56.595   8.305  26.309  1.00  0.00     0.156 A 
HETATM    8  N7  UNL     1      56.435   9.616  26.058  1.00  0.00    -0.292 N 
ATOM      9  H7  UNL     1      55.691  10.226  26.399  1.00  0.00     0.172 HD
HETATM   10  C8  UNL     1      57.470   9.956  25.259  1.00  0.00     0.326 A 
HETATM   11  O3  UNL     1      57.680  11.119  24.796  1.00  0.00    -0.247 OA
HETATM   12  N8  UNL     1      58.246   8.882  25.022  1.00  0.00    -0.302 N 
ATOM     13  H8  UNL     1      59.090   8.872  24.449  1.00  0.00     0.171 HD
HETATM   14  C9  UNL     1      57.717   7.813  25.678  1.00  0.00     0.133 A 
ENDROOT
BRANCH   4  15
HETATM   15  N2  UNL     1      55.529   5.316  27.858  1.00  0.00    -0.224 N 
ATOM     16  H2  UNL     1      55.087   5.667  28.708  1.00  0.00     0.177 HD
BRANCH  15  17
HETATM   17  C4  UNL     1      55.337   3.942  27.535  1.00  0.00     0.166 C 
BRANCH  17  18
HETATM   18  C5  UNL     1      55.630   2.992  28.673  1.00  0.00     0.221 C 
BRANCH  18  19
HETATM   19  O2  UNL     1      56.817   2.348  28.398  1.00  0.00    -0.276 OA
BRANCH  19  20
HETATM   20  N3  UNL     1      56.621   1.031  28.171  1.00  0.00    -0.239 N 
HETATM   21  C6  UNL     1      57.570   0.179  27.549  1.00  0.00     0.205 C 
HETATM   22  N4  UNL     1      57.298  -0.596  26.562  1.00  0.00    -0.372 N 
HETATM   23  N5  UNL     1      58.906   0.175  28.038  1.00  0.00    -0.062 NA
ATOM     24  H42 UNL     1      56.340  -0.593  26.210  1.00  0.00     0.158 HD
ATOM     25  H41 UNL     1      57.981  -1.207  26.115  1.00  0.00     0.158 HD
ATOM     26  H3  UNL     1      55.734   0.622  28.466  1.00  0.00     0.197 HD
ENDBRANCH  19  20
ENDBRANCH  18  19
ENDBRANCH  17  18
ENDBRANCH  15  17
ENDBRANCH   4  15
BRANCH   1  27
HETATM   27  O1  UNL     1      59.244   6.077  25.112  1.00  0.00    -0.339 OA
HETATM   28  C1  UNL     1      60.446   5.924  25.830  1.00  0.00     0.211 C 
ENDBRANCH   1  27
TORSDOF 6
ENDMDL
MODEL 3
REMARK VINA RESULT: -7.895290353      1.511      2.299
REMARK  6 active torsions:
REMARK  status: ('A' for Active; 'I' for Inactive)
REMARK    1  A    between atoms: O1_2  and  C2_3 
REMARK    2  A    between atoms: C3_6  and  N2_7 
REMARK    3  A    between atoms: N2_7  and  C4_9 
REMARK    4  A    between atoms: C4_9  and  C5_10 
REMARK    5  A    between atoms: C5_10  and  O2_11 
REMARK    6  A    between atoms: O2_11  and  N3_12 
REMARK       I    between atoms: N3_12  and  C6_14 
ROOT
HETATM    1  C2  UNL     1      58.948   6.565  25.698  1.00  0.00     0.188 A 
HETATM    2  N1  UNL     1      59.377   5.649  26.573  1.00  0.00    -0.168 N 
ATOM      3  H1  UNL     1      59.066   4.682  26.475  1.00  0.00     0.186 HD
HETATM    4  C3  UNL     1      60.225   5.980  27.599  1.00  0.00     0.681 A 
HETATM    5  N6  UNL     1      60.645   7.248  27.740  1.00  0.00    -0.174 N 
ATOM      6  H6  UNL     1      61.276   7.484  28.506  1.00  0.00     0.186 HD
HETATM    7  C7  UNL     1      60.243   8.223  26.882  1.00  0.00     0.156 A 
HETATM    8  N7  UNL     1      60.528   9.536  26.829  1.00  0.00    -0.292 N 
ATOM      9  H7  UNL     1      61.131  10.064  27.460  1.00  0.00     0.172 HD
HETATM   10  C8  UNL     1      59.847  10.006  25.762  1.00  0.00     0.326 A 
HETATM   11  O3  UNL     1      59.853  11.215  25.370  1.00  0.00    -0.247 OA
HETATM   12  N8  UNL     1      59.160   9.011  25.173  1.00  0.00    -0.302 N 
ATOM     13  H8  UNL     1      58.566   9.103  24.349  1.00  0.00     0.171 HD
HETATM   14  C9  UNL     1      59.391   7.859  25.862  1.00  0.00     0.133 A 
ENDROOT
BRANCH   4  15
HETATM   15  N2  UNL     1      60.599   5.056  28.403  1.00  0.00    -0.224 N 
ATOM     16  H2  UNL     1      61.302   4.396  28.070  1.00  0.00     0.177 HD
BRANCH  15  17
HETATM   17  C4  UNL     1      60.105   4.880  29.727  1.00  0.00     0.166 C 
BRANCH  17  18
HETATM   18  C5  UNL     1      58.801   4.120  29.806  1.00  0.00     0.221 C 
BRANCH  18  19
HETATM   19  O2  UNL     1      58.790   3.182  28.796  1.00  0.00    -0.276 OA
BRANCH  19  20
HETATM   20  N3  UNL     1      57.870   2.221  29.028  1.00  0.00    -0.239 N 
HETATM   21  C6  UNL     1      57.745   1.036  28.257  1.00  0.00     0.205 C 
HETATM   22  N4  UNL     1      56.638   0.623  27.754  1.00  0.00    -0.372 N 
HETATM   23  N5  UNL     1      58.908   0.249  28.023  1.00  0.00    -0.062 NA
ATOM     24  H42 UNL     1      55.805   1.186  27.921  1.00  0.00     0.158 HD
ATOM     25  H41 UNL     1      56.549  -0.229  27.200  1.00  0.00     0.158 HD
ATOM     26  H3  UNL     1      57.224   2.356  29.806  1.00  0.00     0.197 HD
ENDBRANCH  19  20
ENDBRANCH  18  19
ENDBRANCH  17  18
ENDBRANCH  15  17
ENDBRANCH   4  15
BRANCH   1  27
HETATM   27  O1  UNL     1      58.090   6.281  24.643  1.00  0.00    -0.339 OA
HETATM   28  C1  UNL     1      56.698   6.323  24.854  1.00  0.00     0.211 C 
ENDBRANCH   1  27
TORSDOF 6
ENDMDL
MODEL 4
REMARK VINA RESULT: -7.791058877      3.242      4.372
REMARK  6 active torsions:
REMARK  status: ('A' for Active; 'I' for Inactive)
REMARK    1  A    between atoms: O1_2  and  C2_3 
REMARK    2  A    between atoms: C3_6  and  N2_7 
REMARK    3  A    between atoms: N2_7  and  C4_9 
REMARK    4  A    between atoms: C4_9  and  C5_10 
REMARK    5  A    between atoms: C5_10  and  O2_11 
REMARK    6  A    between atoms: O2_11  and  N3_12 
REMARK       I    between atoms: N3_12  and  C6_14 
ROOT
HETATM    1  C2  UNL     1      57.217   6.728  24.895  1.00  0.00     0.188 A 
HETATM    2  N1  UNL     1      58.326   6.034  25.168  1.00  0.00    -0.168 N 
ATOM      3  H1  UNL     1      58.327   5.023  25.033  1.00  0.00     0.186 HD
HETATM    4  C3  UNL     1      59.464   6.651  25.625  1.00  0.00     0.681 A 
HETATM    5  N6  UNL     1      59.479   7.981  25.806  1.00  0.00    -0.174 N 
ATOM      6  H6  UNL     1      60.330   8.430  26.145  1.00  0.00     0.186 HD
HETATM    7  C7  UNL     1      58.381   8.741  25.545  1.00  0.00     0.156 A 
HETATM    8  N7  UNL     1      58.169  10.064  25.651  1.00  0.00    -0.292 N 
ATOM      9  H7  UNL     1      58.831  10.774  25.963  1.00  0.00     0.172 HD
HETATM   10  C8  UNL     1      56.891  10.253  25.255  1.00  0.00     0.326 A 
HETATM   11  O3  UNL     1      56.302  11.377  25.211  1.00  0.00    -0.247 OA
HETATM   12  N8  UNL     1      56.331   9.078  24.915  1.00  0.00    -0.302 N 
ATOM     13  H8  UNL     1      55.375   8.947  24.584  1.00  0.00     0.171 HD
HETATM   14  C9  UNL     1      57.255   8.093  25.088  1.00  0.00     0.133 A 
ENDROOT
BRANCH   4  15
HETATM   15  N2  UNL     1      60.493   5.929  25.867  1.00  0.00    -0.224 N 
ATOM     16  H2  UNL     1      60.625   5.090  25.302  1.00  0.00     0.177 HD
BRANCH  15  17
HETATM   17  C4  UNL     1      61.468   6.209  26.867  1.00  0.00     0.166 C 
BRANCH  17  18
HETATM   18  C5  UNL     1      62.001   4.982  27.572  1.00  0.00     0.221 C 
BRANCH  18  19
HETATM   19  O2  UNL     1      61.142   4.676  28.606  1.00  0.00    -0.276 OA
BRANCH  19  20
HETATM   20  N3  UNL     1      61.062   5.690  29.495  1.00  0.00    -0.239 N 
HETATM   21  C6  UNL     1      60.284   5.650  30.681  1.00  0.00     0.205 C 
HETATM   22  N4  UNL     1      59.450   6.565  31.022  1.00  0.00    -0.372 N 
HETATM   23  N5  UNL     1      60.428   4.534  31.552  1.00  0.00    -0.062 NA
ATOM     24  H42 UNL     1      59.347   7.365  30.397  1.00  0.00     0.158 HD
ATOM     25  H41 UNL     1      58.891   6.536  31.874  1.00  0.00     0.158 HD
ATOM     26  H3  UNL     1      61.594   6.538  29.301  1.00  0.00     0.197 HD
ENDBRANCH  19  20
ENDBRANCH  18  19
ENDBRANCH  17  18
ENDBRANCH  15  17
ENDBRANCH   4  15
BRANCH   1  27
HETATM   27  O1  UNL     1      56.041   6.152  24.431  1.00  0.00    -0.339 OA
HETATM   28  C1  UNL     1      55.219   5.442  25.328  1.00  0.00     0.211 C 
ENDBRANCH   1  27
TORSDOF 6
ENDMDL
MODEL 5
REMARK VINA RESULT: -7.742924696      3.382      5.816
REMARK  6 active torsions:
REMARK  status: ('A' for Active; 'I' for Inactive)
REMARK    1  A    between atoms: O1_2  and  C2_3 
REMARK    2  A    between atoms: C3_6  and  N2_7 
REMARK    3  A    between atoms: N2_7  and  C4_9 
REMARK    4  A    between atoms: C4_9  and  C5_10 
REMARK    5  A    between atoms: C5_10  and  O2_11 
REMARK    6  A    between atoms: O2_11  and  N3_12 
REMARK       I    between atoms: N3_12  and  C6_14 
ROOT
HETATM    1  C2  UNL     1      61.701   6.172  27.275  1.00  0.00     0.188 A 
HETATM    2  N1  UNL     1      61.206   7.001  26.351  1.00  0.00    -0.168 N 
ATOM      3  H1  UNL     1      61.648   7.044  25.432  1.00  0.00     0.186 HD
HETATM    4  C3  UNL     1      60.118   7.796  26.610  1.00  0.00     0.681 A 
HETATM    5  N6  UNL     1      59.525   7.750  27.813  1.00  0.00    -0.174 N 
ATOM      6  H6  UNL     1      58.716   8.344  27.996  1.00  0.00     0.186 HD
HETATM    7  C7  UNL     1      59.983   6.927  28.794  1.00  0.00     0.156 A 
HETATM    8  N7  UNL     1      59.557   6.717  30.052  1.00  0.00    -0.292 N 
ATOM      9  H7  UNL     1      58.770   7.165  30.522  1.00  0.00     0.172 HD
HETATM   10  C8  UNL     1      60.394   5.787  30.562  1.00  0.00     0.326 A 
HETATM   11  O3  UNL     1      60.326   5.315  31.739  1.00  0.00    -0.247 OA
HETATM   12  N8  UNL     1      61.311   5.433  29.643  1.00  0.00    -0.302 N 
ATOM     13  H8  UNL     1      62.056   4.750  29.777  1.00  0.00     0.171 HD
HETATM   14  C9  UNL     1      61.077   6.141  28.504  1.00  0.00     0.133 A 
ENDROOT
BRANCH   4  15
HETATM   15  N2  UNL     1      59.693   8.569  25.681  1.00  0.00    -0.224 N 
ATOM     16  H2  UNL     1      59.622   8.181  24.740  1.00  0.00     0.177 HD
BRANCH  15  17
HETATM   17  C4  UNL     1      59.313   9.929  25.864  1.00  0.00     0.166 C 
BRANCH  17  18
HETATM   18  C5  UNL     1      58.150  10.368  25.002  1.00  0.00     0.221 C 
BRANCH  18  19
HETATM   19  O2  UNL     1      57.086  10.650  25.832  1.00  0.00    -0.276 OA
BRANCH  19  20
HETATM   20  N3  UNL     1      56.019   9.872  25.544  1.00  0.00    -0.239 N 
HETATM   21  C6  UNL     1      56.035   8.454  25.581  1.00  0.00     0.205 C 
HETATM   22  N4  UNL     1      55.620   7.708  24.622  1.00  0.00    -0.372 N 
HETATM   23  N5  UNL     1      56.537   7.808  26.745  1.00  0.00    -0.062 NA
ATOM     24  H42 UNL     1      55.260   8.171  23.787  1.00  0.00     0.158 HD
ATOM     25  H41 UNL     1      55.631   6.689  24.648  1.00  0.00     0.158 HD
ATOM     26  H3  UNL     1      55.147  10.334  25.284  1.00  0.00     0.197 HD
ENDBRANCH  19  20
ENDBRANCH  18  19
ENDBRANCH  17  18
ENDBRANCH  15  17
ENDBRANCH   4  15
BRANCH   1  27
HETATM   27  O1  UNL     1      62.799   5.348  27.063  1.00  0.00    -0.339 OA
HETATM   28  C1  UNL     1      64.091   5.832  27.344  1.00  0.00     0.211 C 
ENDBRANCH   1  27
TORSDOF 6
ENDMDL
