MODEL 1
REMARK VINA RESULT: -6.886474832      0.000      0.000
REMARK  8 active torsions:
REMARK  status: ('A' for Active; 'I' for Inactive)
REMARK    1  A    between atoms: N1_1  and  C1_4 
REMARK    2  A    between atoms: C4_10  and  N3_11 
REMARK    3  A    between atoms: N3_11  and  C5_13 
REMARK    4  A    between atoms: C5_13  and  C6_14 
REMARK    5  A    between atoms: C6_14  and  O2_15 
REMARK    6  A    between atoms: O2_15  and  C7_16 
REMARK    7  A    between atoms: C7_16  and  C8_17 
REMARK    8  A    between atoms: C8_17  and  O3_18 
ROOT
HETATM    1  C1  UNL     1      62.998   7.865  28.614  1.00  0.00     0.680 A 
HETATM    2  N2  UNL     1      62.052   8.636  28.048  1.00  0.00    -0.155 N 
ATOM      3  H2  UNL     1      62.289   9.404  27.420  1.00  0.00     0.187 HD
HETATM    4  C2  UNL     1      60.765   8.336  28.357  1.00  0.00     0.277 A 
HETATM    5  O1  UNL     1      59.854   9.039  27.844  1.00  0.00    -0.267 OA
HETATM    6  C3  UNL     1      60.436   7.298  29.204  1.00  0.00     0.121 A 
HETATM    7  C4  UNL     1      59.114   6.984  29.525  1.00  0.00     0.124 A 
HETATM    8  N4  UNL     1      58.830   5.964  30.356  1.00  0.00    -0.294 N 
ATOM      9  H4  UNL     1      57.858   5.750  30.579  1.00  0.00     0.172 HD
HETATM   10  C9  UNL     1      59.821   5.220  30.898  1.00  0.00     0.327 A 
HETATM   11  O4  UNL     1      59.510   4.277  31.669  1.00  0.00    -0.247 OA
HETATM   12  N5  UNL     1      61.098   5.521  30.589  1.00  0.00    -0.293 N 
ATOM     13  H5  UNL     1      61.845   4.959  30.998  1.00  0.00     0.172 HD
HETATM   14  C10 UNL     1      61.427   6.524  29.769  1.00  0.00     0.144 A 
HETATM   15  N6  UNL     1      62.705   6.840  29.448  1.00  0.00    -0.176 N 
ATOM     16  H6  UNL     1      63.467   6.290  29.845  1.00  0.00     0.186 HD
ENDROOT
BRANCH   7  17
HETATM   17  N3  UNL     1      58.225   7.715  28.989  1.00  0.00    -0.373 N 
ATOM     18  H3  UNL     1      58.440   8.706  28.878  1.00  0.00     0.161 HD
BRANCH  17  19
HETATM   19  C5  UNL     1      56.919   7.260  28.517  1.00  0.00     0.147 C 
BRANCH  19  20
HETATM   20  C6  UNL     1      56.900   7.253  26.988  1.00  0.00     0.187 C 
BRANCH  20  21
HETATM   21  O2  UNL     1      57.798   6.664  26.325  1.00  0.00    -0.387 OA
BRANCH  21  22
HETATM   22  C7  UNL     1      58.654   6.612  25.394  1.00  0.00     0.193 C 
BRANCH  22  23
HETATM   23  C8  UNL     1      60.078   6.198  25.650  1.00  0.00     0.190 C 
BRANCH  23  24
HETATM   24  O3  UNL     1      61.009   7.158  25.423  1.00  0.00    -0.399 OA
ATOM     25  H3  UNL     1      61.788   7.103  25.964  1.00  0.00     0.209 HD
ENDBRANCH  23  24
ENDBRANCH  22  23
ENDBRANCH  21  22
ENDBRANCH  20  21
ENDBRANCH  19  20
ENDBRANCH  17  19
ENDBRANCH   7  17
BRANCH   1  26
HETATM   26  N1  UNL     1      64.256   8.113  28.347  1.00  0.00    -0.234 N 
ATOM     27  H12 UNL     1      64.718   7.564  27.622  1.00  0.00     0.174 HD
ATOM     28  H11 UNL     1      64.733   8.846  28.872  1.00  0.00     0.174 HD
ENDBRANCH   1  26
TORSDOF 8
ENDMDL
MODEL 2
REMARK VINA RESULT: -6.796052747      2.552      4.211
REMARK  8 active torsions:
REMARK  status: ('A' for Active; 'I' for Inactive)
REMARK    1  A    between atoms: N1_1  and  C1_4 
REMARK    2  A    between atoms: C4_10  and  N3_11 
REMARK    3  A    between atoms: N3_11  and  C5_13 
REMARK    4  A    between atoms: C5_13  and  C6_14 
REMARK    5  A    between atoms: C6_14  and  O2_15 
REMARK    6  A    between atoms: O2_15  and  C7_16 
REMARK    7  A    between atoms: C7_16  and  C8_17 
REMARK    8  A    between atoms: C8_17  and  O3_18 
ROOT
HETATM    1  C1  UNL     1      59.758   9.613  25.523  1.00  0.00     0.680 A 
HETATM    2  N2  UNL     1      58.466   9.415  25.841  1.00  0.00    -0.155 N 
ATOM      3  H2  UNL     1      57.753  10.122  25.659  1.00  0.00     0.187 HD
HETATM    4  C2  UNL     1      58.162   8.224  26.418  1.00  0.00     0.277 A 
HETATM    5  O1  UNL     1      56.960   8.007  26.729  1.00  0.00    -0.267 OA
HETATM    6  C3  UNL     1      59.119   7.263  26.666  1.00  0.00     0.121 A 
HETATM    7  C4  UNL     1      58.812   6.036  27.258  1.00  0.00     0.124 A 
HETATM    8  N4  UNL     1      59.773   5.121  27.486  1.00  0.00    -0.294 N 
ATOM      9  H4  UNL     1      59.530   4.231  27.919  1.00  0.00     0.172 HD
HETATM   10  C9  UNL     1      61.058   5.372  27.146  1.00  0.00     0.327 A 
HETATM   11  O4  UNL     1      61.922   4.489  27.377  1.00  0.00    -0.247 OA
HETATM   12  N5  UNL     1      61.356   6.556  26.574  1.00  0.00    -0.293 N 
ATOM     13  H5  UNL     1      62.326   6.744  26.317  1.00  0.00     0.172 HD
HETATM   14  C10 UNL     1      60.436   7.494  26.328  1.00  0.00     0.144 A 
HETATM   15  N6  UNL     1      60.719   8.688  25.754  1.00  0.00    -0.176 N 
ATOM     16  H6  UNL     1      61.682   8.896  25.489  1.00  0.00     0.186 HD
ENDROOT
BRANCH   7  17
HETATM   17  N3  UNL     1      57.592   5.855  27.557  1.00  0.00    -0.373 N 
ATOM     18  H3  UNL     1      56.904   6.442  27.085  1.00  0.00     0.161 HD
BRANCH  17  19
HETATM   19  C5  UNL     1      57.086   4.878  28.519  1.00  0.00     0.147 C 
BRANCH  19  20
HETATM   20  C6  UNL     1      57.049   5.504  29.913  1.00  0.00     0.187 C 
BRANCH  20  21
HETATM   21  O2  UNL     1      58.041   5.429  30.691  1.00  0.00    -0.387 OA
BRANCH  21  22
HETATM   22  C7  UNL     1      59.019   5.935  31.313  1.00  0.00     0.193 C 
BRANCH  22  23
HETATM   23  C8  UNL     1      60.439   5.531  31.019  1.00  0.00     0.190 C 
BRANCH  23  24
HETATM   24  O3  UNL     1      60.578   4.405  30.275  1.00  0.00    -0.399 OA
ATOM     25  H3  UNL     1      61.382   3.921  30.420  1.00  0.00     0.209 HD
ENDBRANCH  23  24
ENDBRANCH  22  23
ENDBRANCH  21  22
ENDBRANCH  20  21
ENDBRANCH  19  20
ENDBRANCH  17  19
ENDBRANCH   7  17
BRANCH   1  26
HETATM   26  N1  UNL     1      60.103  10.746  24.964  1.00  0.00    -0.234 N 
ATOM     27  H12 UNL     1      59.737  10.963  24.037  1.00  0.00     0.174 HD
ATOM     28  H11 UNL     1      60.725  11.374  25.473  1.00  0.00     0.174 HD
ENDBRANCH   1  26
TORSDOF 8
ENDMDL
MODEL 3
REMARK VINA RESULT: -6.795017148      2.410      4.404
REMARK  8 active torsions:
REMARK  status: ('A' for Active; 'I' for Inactive)
REMARK    1  A    between atoms: N1_1  and  C1_4 
REMARK    2  A    between atoms: C4_10  and  N3_11 
REMARK    3  A    between atoms: N3_11  and  C5_13 
REMARK    4  A    between atoms: C5_13  and  C6_14 
REMARK    5  A    between atoms: C6_14  and  O2_15 
REMARK    6  A    between atoms: O2_15  and  C7_16 
REMARK    7  A    between atoms: C7_16  and  C8_17 
REMARK    8  A    between atoms: C8_17  and  O3_18 
ROOT
HETATM    1  C1  UNL     1      55.777   7.369  30.129  1.00  0.00     0.680 A 
HETATM    2  N2  UNL     1      55.952   7.285  28.798  1.00  0.00    -0.155 N 
ATOM      3  H2  UNL     1      55.285   7.691  28.142  1.00  0.00     0.187 HD
HETATM    4  C2  UNL     1      57.063   6.631  28.375  1.00  0.00     0.277 A 
HETATM    5  O1  UNL     1      57.256   6.534  27.133  1.00  0.00    -0.267 OA
HETATM    6  C3  UNL     1      57.970   6.080  29.255  1.00  0.00     0.121 A 
HETATM    7  C4  UNL     1      59.116   5.406  28.826  1.00  0.00     0.124 A 
HETATM    8  N4  UNL     1      59.980   4.880  29.714  1.00  0.00    -0.294 N 
ATOM      9  H4  UNL     1      60.811   4.392  29.381  1.00  0.00     0.172 HD
HETATM   10  C9  UNL     1      59.756   4.993  31.043  1.00  0.00     0.327 A 
HETATM   11  O4  UNL     1      60.590   4.487  31.837  1.00  0.00    -0.247 OA
HETATM   12  N5  UNL     1      58.651   5.643  31.460  1.00  0.00    -0.293 N 
ATOM     13  H5  UNL     1      58.483   5.728  32.463  1.00  0.00     0.172 HD
HETATM   14  C10 UNL     1      57.766   6.181  30.614  1.00  0.00     0.144 A 
HETATM   15  N6  UNL     1      56.651   6.838  31.017  1.00  0.00    -0.176 N 
ATOM     16  H6  UNL     1      56.464   6.935  32.015  1.00  0.00     0.186 HD
ENDROOT
BRANCH   7  17
HETATM   17  N3  UNL     1      59.276   5.330  27.569  1.00  0.00    -0.373 N 
ATOM     18  H3  UNL     1      58.440   5.190  27.000  1.00  0.00     0.161 HD
BRANCH  17  19
HETATM   19  C5  UNL     1      60.553   5.425  26.865  1.00  0.00     0.147 C 
BRANCH  19  20
HETATM   20  C6  UNL     1      60.641   6.769  26.142  1.00  0.00     0.187 C 
BRANCH  20  21
HETATM   21  O2  UNL     1      60.539   7.859  26.771  1.00  0.00    -0.387 OA
BRANCH  21  22
HETATM   22  C7  UNL     1      59.993   8.978  26.995  1.00  0.00     0.193 C 
BRANCH  22  23
HETATM   23  C8  UNL     1      59.176   9.685  25.947  1.00  0.00     0.190 C 
BRANCH  23  24
HETATM   24  O3  UNL     1      59.445  11.007  25.797  1.00  0.00    -0.399 OA
ATOM     25  H3  UNL     1      58.955  11.444  25.111  1.00  0.00     0.209 HD
ENDBRANCH  23  24
ENDBRANCH  22  23
ENDBRANCH  21  22
ENDBRANCH  20  21
ENDBRANCH  19  20
ENDBRANCH  17  19
ENDBRANCH   7  17
BRANCH   1  26
HETATM   26  N1  UNL     1      54.720   7.990  30.589  1.00  0.00    -0.234 N 
ATOM     27  H12 UNL     1      54.374   8.803  30.079  1.00  0.00     0.174 HD
ATOM     28  H11 UNL     1      54.278   7.642  31.439  1.00  0.00     0.174 HD
ENDBRANCH   1  26
TORSDOF 8
ENDMDL
MODEL 4
REMARK VINA RESULT: -6.749126040      1.542      1.812
REMARK  8 active torsions:
REMARK  status: ('A' for Active; 'I' for Inactive)
REMARK    1  A    between atoms: N1_1  and  C1_4 
REMARK    2  A    between atoms: C4_10  and  N3_11 
REMARK    3  A    between atoms: N3_11  and  C5_13 
REMARK    4  A    between atoms: C5_13  and  C6_14 
REMARK    5  A    between atoms: C6_14  and  O2_15 
REMARK    6  A    between atoms: O2_15  and  C7_16 
REMARK    7  A    between atoms: C7_16  and  C8_17 
REMARK    8  A    between atoms: C8_17  and  O3_18 
ROOT
HETATM    1  C1  UNL     1      63.245   8.022  28.643  1.00  0.00     0.680 A 
HETATM    2  N2  UNL     1      62.359   8.928  28.190  1.00  0.00    -0.155 N 
ATOM      3  H2  UNL     1      62.658   9.819  27.793  1.00  0.00     0.187 HD
HETATM    4  C2  UNL     1      61.048   8.593  28.291  1.00  0.00     0.277 A 
HETATM    5  O1  UNL     1      60.192   9.420  27.876  1.00  0.00    -0.267 OA
HETATM    6  C3  UNL     1      60.637   7.389  28.825  1.00  0.00     0.121 A 
HETATM    7  C4  UNL     1      59.289   7.038  28.930  1.00  0.00     0.124 A 
HETATM    8  N4  UNL     1      58.924   5.855  29.457  1.00  0.00    -0.294 N 
ATOM      9  H4  UNL     1      57.935   5.616  29.525  1.00  0.00     0.172 HD
HETATM   10  C9  UNL     1      59.857   4.980  29.897  1.00  0.00     0.327 A 
HETATM   11  O4  UNL     1      59.471   3.886  30.383  1.00  0.00    -0.247 OA
HETATM   12  N5  UNL     1      61.159   5.317  29.797  1.00  0.00    -0.293 N 
ATOM     13  H5  UNL     1      61.861   4.656  30.129  1.00  0.00     0.172 HD
HETATM   14  C10 UNL     1      61.567   6.480  29.280  1.00  0.00     0.144 A 
HETATM   15  N6  UNL     1      62.871   6.834  29.172  1.00  0.00    -0.176 N 
ATOM     16  H6  UNL     1      63.590   6.187  29.497  1.00  0.00     0.186 HD
ENDROOT
BRANCH   7  17
HETATM   17  N3  UNL     1      58.458   7.897  28.501  1.00  0.00    -0.373 N 
ATOM     18  H3  UNL     1      58.744   8.876  28.526  1.00  0.00     0.161 HD
BRANCH  17  19
HETATM   19  C5  UNL     1      57.126   7.605  27.976  1.00  0.00     0.147 C 
BRANCH  19  20
HETATM   20  C6  UNL     1      57.087   7.911  26.479  1.00  0.00     0.187 C 
BRANCH  20  21
HETATM   21  O2  UNL     1      56.899   9.085  26.055  1.00  0.00    -0.387 OA
BRANCH  21  22
HETATM   22  C7  UNL     1      57.247  10.111  25.402  1.00  0.00     0.193 C 
BRANCH  22  23
HETATM   23  C8  UNL     1      58.664  10.311  24.937  1.00  0.00     0.190 C 
BRANCH  23  24
HETATM   24  O3  UNL     1      59.450  11.039  25.771  1.00  0.00    -0.399 OA
ATOM     25  H3  UNL     1      59.102  11.167  26.646  1.00  0.00     0.209 HD
ENDBRANCH  23  24
ENDBRANCH  22  23
ENDBRANCH  21  22
ENDBRANCH  20  21
ENDBRANCH  19  20
ENDBRANCH  17  19
ENDBRANCH   7  17
BRANCH   1  26
HETATM   26  N1  UNL     1      64.523   8.298  28.569  1.00  0.00    -0.234 N 
ATOM     27  H12 UNL     1      64.816   9.271  28.654  1.00  0.00     0.174 HD
ATOM     28  H11 UNL     1      65.183   7.533  28.429  1.00  0.00     0.174 HD
ENDBRANCH   1  26
TORSDOF 8
ENDMDL
MODEL 5
REMARK VINA RESULT: -6.729295358      2.420      2.936
REMARK  8 active torsions:
REMARK  status: ('A' for Active; 'I' for Inactive)
REMARK    1  A    between atoms: N1_1  and  C1_4 
REMARK    2  A    between atoms: C4_10  and  N3_11 
REMARK    3  A    between atoms: N3_11  and  C5_13 
REMARK    4  A    between atoms: C5_13  and  C6_14 
REMARK    5  A    between atoms: C6_14  and  O2_15 
REMARK    6  A    between atoms: O2_15  and  C7_16 
REMARK    7  A    between atoms: C7_16  and  C8_17 
REMARK    8  A    between atoms: C8_17  and  O3_18 
ROOT
HETATM    1  C1  UNL     1      62.897   7.020  28.176  1.00  0.00     0.680 A 
HETATM    2  N2  UNL     1      62.141   6.903  27.069  1.00  0.00    -0.155 N 
ATOM      3  H2  UNL     1      62.473   7.212  26.156  1.00  0.00     0.187 HD
HETATM    4  C2  UNL     1      60.912   6.350  27.234  1.00  0.00     0.277 A 
HETATM    5  O1  UNL     1      60.178   6.226  26.217  1.00  0.00    -0.267 OA
HETATM    6  C3  UNL     1      60.456   5.928  28.465  1.00  0.00     0.121 A 
HETATM    7  C4  UNL     1      59.193   5.358  28.640  1.00  0.00     0.124 A 
HETATM    8  N4  UNL     1      58.780   4.958  29.857  1.00  0.00    -0.294 N 
ATOM      9  H4  UNL     1      57.855   4.544  29.965  1.00  0.00     0.172 HD
HETATM   10  C9  UNL     1      59.582   5.099  30.937  1.00  0.00     0.327 A 
HETATM   11  O4  UNL     1      59.156   4.710  32.055  1.00  0.00    -0.247 OA
HETATM   12  N5  UNL     1      60.802   5.648  30.771  1.00  0.00    -0.293 N 
ATOM     13  H5  UNL     1      61.406   5.754  31.586  1.00  0.00     0.172 HD
HETATM   14  C10 UNL     1      61.253   6.060  29.581  1.00  0.00     0.144 A 
HETATM   15  N6  UNL     1      62.476   6.614  29.396  1.00  0.00    -0.176 N 
ATOM     16  H6  UNL     1      63.096   6.728  30.198  1.00  0.00     0.186 HD
ENDROOT
BRANCH   7  17
HETATM   17  N3  UNL     1      58.483   5.250  27.593  1.00  0.00    -0.373 N 
ATOM     18  H3  UNL     1      58.905   4.782  26.791  1.00  0.00     0.161 HD
BRANCH  17  19
HETATM   19  C5  UNL     1      57.115   5.740  27.437  1.00  0.00     0.147 C 
BRANCH  19  20
HETATM   20  C6  UNL     1      56.138   4.569  27.540  1.00  0.00     0.187 C 
BRANCH  20  21
HETATM   21  O2  UNL     1      56.350   3.606  28.328  1.00  0.00    -0.387 OA
BRANCH  21  22
HETATM   22  C7  UNL     1      56.352   2.375  28.621  1.00  0.00     0.193 C 
BRANCH  22  23
HETATM   23  C8  UNL     1      57.629   1.584  28.708  1.00  0.00     0.190 C 
BRANCH  23  24
HETATM   24  O3  UNL     1      58.725   2.196  28.194  1.00  0.00    -0.399 OA
ATOM     25  H3  UNL     1      59.252   1.661  27.611  1.00  0.00     0.209 HD
ENDBRANCH  23  24
ENDBRANCH  22  23
ENDBRANCH  21  22
ENDBRANCH  20  21
ENDBRANCH  19  20
ENDBRANCH  17  19
ENDBRANCH   7  17
BRANCH   1  26
HETATM   26  N1  UNL     1      64.091   7.546  28.070  1.00  0.00    -0.234 N 
ATOM     27  H12 UNL     1      64.169   8.523  27.785  1.00  0.00     0.174 HD
ATOM     28  H11 UNL     1      64.904   6.965  28.276  1.00  0.00     0.174 HD
ENDBRANCH   1  26
TORSDOF 8
ENDMDL
