MODEL 1
REMARK VINA RESULT: -8.159422639      0.000      0.000
REMARK  6 active torsions:
REMARK  status: ('A' for Active; 'I' for Inactive)
REMARK    1  A    between atoms: C2_2  and  N1_3 
REMARK    2  A    between atoms: N2_6  and  C5_7 
REMARK    3  A    between atoms: C5_7  and  C6_8 
REMARK    4  A    between atoms: C6_8  and  C7_9 
REMARK       I    between atoms: C7_9  and  N3_11 
REMARK    5  A    between atoms: C10_14  and  C11_15 
REMARK       I    between atoms: C11_15  and  N4_17 
REMARK    6  A    between atoms: N4_17  and  C12_19 
ROOT
HETATM    1  C7  UNL     1      18.258 -12.748  20.660  1.00  0.00     0.221 C 
HETATM    2  O1  UNL     1      18.407 -11.746  21.404  1.00  0.00    -0.273 OA
HETATM    3  N3  UNL     1      17.020 -12.911  19.992  1.00  0.00    -0.351 N 
HETATM    4  C8  UNL     1      16.720 -14.022  19.108  1.00  0.00     0.127 C 
HETATM    5  C9  UNL     1      15.213 -14.087  19.114  1.00  0.00     0.035 C 
HETATM    6  C10 UNL     1      14.867 -12.608  19.119  1.00  0.00     0.098 C 
HETATM    7  C15 UNL     1      15.861 -12.027  20.067  1.00  0.00     0.139 C 
ENDROOT
BRANCH   1   8
HETATM    8  C6  UNL     1      19.332 -13.752  20.468  1.00  0.00     0.131 C 
BRANCH   8   9
HETATM    9  C5  UNL     1      19.134 -14.841  21.476  1.00  0.00     0.247 C 
BRANCH   9  10
HETATM   10  N2  UNL     1      19.995 -14.753  22.610  1.00  0.00    -0.062 N 
HETATM   11  C4  UNL     1      21.152 -13.919  22.312  1.00  0.00     0.265 C 
HETATM   12  C3  UNL     1      22.083 -13.855  23.505  1.00  0.00     0.265 C 
HETATM   13  N1  UNL     1      21.390 -14.341  24.657  1.00  0.00    -0.063 N 
HETATM   14  C17 UNL     1      21.056 -15.747  24.496  1.00  0.00     0.265 C 
HETATM   15  C19 UNL     1      20.125 -13.618  24.774  1.00  0.00     0.265 C 
HETATM   16  C16 UNL     1      20.494 -16.014  23.092  1.00  0.00     0.265 C 
HETATM   17  C18 UNL     1      19.213 -14.170  23.708  1.00  0.00     0.265 C 
BRANCH  13  18
HETATM   18  C2  UNL     1      22.088 -14.181  25.893  1.00  0.00     0.233 C 
HETATM   19  C1  UNL     1      21.662 -12.989  26.695  1.00  0.00     0.035 C 
ENDBRANCH  13  18
ENDBRANCH   9  10
ENDBRANCH   8   9
ENDBRANCH   1   8
BRANCH   6  20
HETATM   20  C11 UNL     1      13.463 -12.337  19.430  1.00  0.00     0.241 C 
HETATM   21  O2  UNL     1      12.585 -13.264  19.383  1.00  0.00    -0.272 OA
HETATM   22  N4  UNL     1      13.024 -11.056  19.790  1.00  0.00    -0.159 N 
ATOM     23  H4  UNL     1      13.022 -10.295  19.112  1.00  0.00     0.187 HD
BRANCH  22  24
HETATM   24  C12 UNL     1      12.620 -10.862  21.008  1.00  0.00     0.685 A 
HETATM   25  N5  UNL     1      12.064 -11.847  21.770  1.00  0.00    -0.199 N 
HETATM   26  C13 UNL     1      11.757 -11.331  22.962  1.00  0.00     0.144 A 
ATOM     27  H5  UNL     1      11.910 -12.812  21.479  1.00  0.00     0.183 HD
HETATM   28  C14 UNL     1      12.126 -10.011  22.935  1.00  0.00     0.112 A 
HETATM   29 BR1  UNL     1      11.948  -8.729  24.336  1.00  0.00    -0.029 Br
HETATM   30  N6  UNL     1      12.664  -9.721  21.718  1.00  0.00    -0.183 N 
ATOM     31  H6  UNL     1      13.027  -8.820  21.408  1.00  0.00     0.185 HD
ENDBRANCH  22  24
ENDBRANCH   6  20
TORSDOF 6
ENDMDL
MODEL 2
REMARK VINA RESULT: -8.095134954      1.649      2.225
REMARK  6 active torsions:
REMARK  status: ('A' for Active; 'I' for Inactive)
REMARK    1  A    between atoms: C2_2  and  N1_3 
REMARK    2  A    between atoms: N2_6  and  C5_7 
REMARK    3  A    between atoms: C5_7  and  C6_8 
REMARK    4  A    between atoms: C6_8  and  C7_9 
REMARK       I    between atoms: C7_9  and  N3_11 
REMARK    5  A    between atoms: C10_14  and  C11_15 
REMARK       I    between atoms: C11_15  and  N4_17 
REMARK    6  A    between atoms: N4_17  and  C12_19 
ROOT
HETATM    1  C7  UNL     1      20.052 -12.903  19.491  1.00  0.00     0.221 C 
HETATM    2  O1  UNL     1      20.683 -12.025  18.850  1.00  0.00    -0.273 OA
HETATM    3  N3  UNL     1      18.636 -12.851  19.485  1.00  0.00    -0.351 N 
HETATM    4  C8  UNL     1      17.791 -13.803  20.183  1.00  0.00     0.127 C 
HETATM    5  C9  UNL     1      16.494 -13.056  20.373  1.00  0.00     0.035 C 
HETATM    6  C10 UNL     1      16.397 -12.318  19.050  1.00  0.00     0.098 C 
HETATM    7  C15 UNL     1      17.798 -11.871  18.803  1.00  0.00     0.139 C 
ENDROOT
BRANCH   1   8
HETATM    8  C6  UNL     1      20.742 -13.976  20.244  1.00  0.00     0.131 C 
BRANCH   8   9
HETATM    9  C5  UNL     1      21.201 -13.405  21.549  1.00  0.00     0.247 C 
BRANCH   9  10
HETATM   10  N2  UNL     1      20.808 -14.164  22.692  1.00  0.00    -0.062 N 
HETATM   11  C4  UNL     1      20.478 -15.531  22.310  1.00  0.00     0.265 C 
HETATM   12  C3  UNL     1      20.026 -16.326  23.518  1.00  0.00     0.265 C 
HETATM   13  N1  UNL     1      20.383 -15.608  24.701  1.00  0.00    -0.063 N 
HETATM   14  C17 UNL     1      19.663 -14.348  24.771  1.00  0.00     0.265 C 
HETATM   15  C19 UNL     1      21.806 -15.277  24.629  1.00  0.00     0.265 C 
HETATM   16  C16 UNL     1      19.677 -13.638  23.409  1.00  0.00     0.265 C 
HETATM   17  C18 UNL     1      21.936 -14.154  23.632  1.00  0.00     0.265 C 
BRANCH  13  18
HETATM   18  C2  UNL     1      20.173 -16.317  25.924  1.00  0.00     0.233 C 
HETATM   19  C1  UNL     1      18.970 -15.876  26.698  1.00  0.00     0.035 C 
ENDBRANCH  13  18
ENDBRANCH   9  10
ENDBRANCH   8   9
ENDBRANCH   1   8
BRANCH   6  20
HETATM   20  C11 UNL     1      15.384 -11.262  19.042  1.00  0.00     0.241 C 
HETATM   21  O2  UNL     1      14.592 -11.113  18.050  1.00  0.00    -0.272 OA
HETATM   22  N4  UNL     1      15.240 -10.373  20.115  1.00  0.00    -0.159 N 
ATOM     23  H4  UNL     1      15.960  -9.682  20.321  1.00  0.00     0.187 HD
BRANCH  22  24
HETATM   24  C12 UNL     1      14.167 -10.451  20.842  1.00  0.00     0.685 A 
HETATM   25  N5  UNL     1      13.101 -11.233  20.506  1.00  0.00    -0.199 N 
HETATM   26  C13 UNL     1      12.166 -11.093  21.449  1.00  0.00     0.144 A 
ATOM     27  H5  UNL     1      13.030 -11.822  19.677  1.00  0.00     0.183 HD
HETATM   28  C14 UNL     1      12.661 -10.214  22.378  1.00  0.00     0.112 A 
HETATM   29 BR1  UNL     1      11.803  -9.602  23.967  1.00  0.00    -0.029 Br
HETATM   30  N6  UNL     1      13.907  -9.816  21.998  1.00  0.00    -0.183 N 
ATOM     31  H6  UNL     1      14.520  -9.167  22.492  1.00  0.00     0.185 HD
ENDBRANCH  22  24
ENDBRANCH   6  20
TORSDOF 6
ENDMDL
MODEL 3
REMARK VINA RESULT: -8.034986982      1.560      1.883
REMARK  6 active torsions:
REMARK  status: ('A' for Active; 'I' for Inactive)
REMARK    1  A    between atoms: C2_2  and  N1_3 
REMARK    2  A    between atoms: N2_6  and  C5_7 
REMARK    3  A    between atoms: C5_7  and  C6_8 
REMARK    4  A    between atoms: C6_8  and  C7_9 
REMARK       I    between atoms: C7_9  and  N3_11 
REMARK    5  A    between atoms: C10_14  and  C11_15 
REMARK       I    between atoms: C11_15  and  N4_17 
REMARK    6  A    between atoms: N4_17  and  C12_19 
ROOT
HETATM    1  C7  UNL     1      19.961 -12.845  19.520  1.00  0.00     0.221 C 
HETATM    2  O1  UNL     1      20.519 -11.912  18.890  1.00  0.00    -0.273 OA
HETATM    3  N3  UNL     1      18.545 -12.910  19.512  1.00  0.00    -0.351 N 
HETATM    4  C8  UNL     1      17.780 -13.934  20.198  1.00  0.00     0.127 C 
HETATM    5  C9  UNL     1      16.426 -13.298  20.392  1.00  0.00     0.035 C 
HETATM    6  C10 UNL     1      16.271 -12.557  19.076  1.00  0.00     0.098 C 
HETATM    7  C15 UNL     1      17.631 -11.994  18.837  1.00  0.00     0.139 C 
ENDROOT
BRANCH   1   8
HETATM    8  C6  UNL     1      20.735 -13.866  20.265  1.00  0.00     0.131 C 
BRANCH   8   9
HETATM    9  C5  UNL     1      21.132 -13.278  21.583  1.00  0.00     0.247 C 
BRANCH   9  10
HETATM   10  N2  UNL     1      20.949 -14.154  22.694  1.00  0.00    -0.062 N 
HETATM   11  C4  UNL     1      22.076 -14.058  23.613  1.00  0.00     0.265 C 
HETATM   12  C3  UNL     1      21.898 -15.014  24.774  1.00  0.00     0.265 C 
HETATM   13  N1  UNL     1      20.541 -15.463  24.797  1.00  0.00    -0.063 N 
HETATM   14  C17 UNL     1      20.238 -16.236  23.605  1.00  0.00     0.265 C 
HETATM   15  C19 UNL     1      19.667 -14.291  24.773  1.00  0.00     0.265 C 
HETATM   16  C16 UNL     1      20.797 -15.544  22.352  1.00  0.00     0.265 C 
HETATM   17  C18 UNL     1      19.706 -13.753  23.365  1.00  0.00     0.265 C 
BRANCH  13  18
HETATM   18  C2  UNL     1      20.182 -16.238  25.942  1.00  0.00     0.233 C 
HETATM   19  C1  UNL     1      18.930 -15.786  26.629  1.00  0.00     0.035 C 
ENDBRANCH  13  18
ENDBRANCH   9  10
ENDBRANCH   8   9
ENDBRANCH   1   8
BRANCH   6  20
HETATM   20  C11 UNL     1      15.175 -11.587  19.076  1.00  0.00     0.241 C 
HETATM   21  O2  UNL     1      14.324 -11.552  18.124  1.00  0.00    -0.272 OA
HETATM   22  N4  UNL     1      15.013 -10.661  20.115  1.00  0.00    -0.159 N 
ATOM     23  H4  UNL     1      15.683  -9.905  20.249  1.00  0.00     0.187 HD
BRANCH  22  24
HETATM   24  C12 UNL     1      13.989 -10.789  20.902  1.00  0.00     0.685 A 
HETATM   25  N5  UNL     1      12.992 -11.692  20.679  1.00  0.00    -0.199 N 
HETATM   26  C13 UNL     1      12.094 -11.574  21.660  1.00  0.00     0.144 A 
ATOM     27  H5  UNL     1      12.941 -12.345  19.898  1.00  0.00     0.183 HD
HETATM   28  C14 UNL     1      12.542 -10.586  22.498  1.00  0.00     0.112 A 
HETATM   29 BR1  UNL     1      11.703  -9.944  24.085  1.00  0.00    -0.029 Br
HETATM   30  N6  UNL     1      13.722 -10.098  22.025  1.00  0.00    -0.183 N 
ATOM     31  H6  UNL     1      14.290  -9.358  22.439  1.00  0.00     0.185 HD
ENDBRANCH  22  24
ENDBRANCH   6  20
TORSDOF 6
ENDMDL
MODEL 4
REMARK VINA RESULT: -8.013505605      1.585      2.141
REMARK  6 active torsions:
REMARK  status: ('A' for Active; 'I' for Inactive)
REMARK    1  A    between atoms: C2_2  and  N1_3 
REMARK    2  A    between atoms: N2_6  and  C5_7 
REMARK    3  A    between atoms: C5_7  and  C6_8 
REMARK    4  A    between atoms: C6_8  and  C7_9 
REMARK       I    between atoms: C7_9  and  N3_11 
REMARK    5  A    between atoms: C10_14  and  C11_15 
REMARK       I    between atoms: C11_15  and  N4_17 
REMARK    6  A    between atoms: N4_17  and  C12_19 
ROOT
HETATM    1  C7  UNL     1      19.950 -12.854  19.526  1.00  0.00     0.221 C 
HETATM    2  O1  UNL     1      20.527 -11.918  18.919  1.00  0.00    -0.273 OA
HETATM    3  N3  UNL     1      18.533 -12.892  19.512  1.00  0.00    -0.351 N 
HETATM    4  C8  UNL     1      17.747 -13.917  20.173  1.00  0.00     0.127 C 
HETATM    5  C9  UNL     1      16.404 -13.260  20.376  1.00  0.00     0.035 C 
HETATM    6  C10 UNL     1      16.267 -12.488  19.076  1.00  0.00     0.098 C 
HETATM    7  C15 UNL     1      17.638 -11.945  18.854  1.00  0.00     0.139 C 
ENDROOT
BRANCH   1   8
HETATM    8  C6  UNL     1      20.702 -13.906  20.251  1.00  0.00     0.131 C 
BRANCH   8   9
HETATM    9  C5  UNL     1      21.211 -13.315  21.529  1.00  0.00     0.247 C 
BRANCH   9  10
HETATM   10  N2  UNL     1      20.890 -14.074  22.694  1.00  0.00    -0.062 N 
HETATM   11  C4  UNL     1      19.663 -13.580  23.305  1.00  0.00     0.265 C 
HETATM   12  C3  UNL     1      19.343 -14.363  24.562  1.00  0.00     0.265 C 
HETATM   13  N1  UNL     1      20.138 -15.551  24.579  1.00  0.00    -0.063 N 
HETATM   14  C17 UNL     1      21.549 -15.220  24.674  1.00  0.00     0.265 C 
HETATM   15  C19 UNL     1      19.953 -16.248  23.307  1.00  0.00     0.265 C 
HETATM   16  C16 UNL     1      21.904 -14.073  23.715  1.00  0.00     0.265 C 
HETATM   17  C18 UNL     1      20.727 -15.471  22.273  1.00  0.00     0.265 C 
BRANCH  13  18
HETATM   18  C2  UNL     1      19.819 -16.475  25.621  1.00  0.00     0.233 C 
HETATM   19  C1  UNL     1      18.981 -15.902  26.722  1.00  0.00     0.035 C 
ENDBRANCH  13  18
ENDBRANCH   9  10
ENDBRANCH   8   9
ENDBRANCH   1   8
BRANCH   6  20
HETATM   20  C11 UNL     1      15.190 -11.498  19.094  1.00  0.00     0.241 C 
HETATM   21  O2  UNL     1      14.337 -11.433  18.145  1.00  0.00    -0.272 OA
HETATM   22  N4  UNL     1      15.048 -10.584  20.146  1.00  0.00    -0.159 N 
ATOM     23  H4  UNL     1      15.733  -9.842  20.289  1.00  0.00     0.187 HD
BRANCH  22  24
HETATM   24  C12 UNL     1      14.025 -10.704  20.935  1.00  0.00     0.685 A 
HETATM   25  N5  UNL     1      13.024 -11.605  20.717  1.00  0.00    -0.199 N 
HETATM   26  C13 UNL     1      12.127 -11.479  21.698  1.00  0.00     0.144 A 
ATOM     27  H5  UNL     1      12.970 -12.261  19.938  1.00  0.00     0.183 HD
HETATM   28  C14 UNL     1      12.579 -10.489  22.530  1.00  0.00     0.112 A 
HETATM   29 BR1  UNL     1      11.743  -9.836  24.116  1.00  0.00    -0.029 Br
HETATM   30  N6  UNL     1      13.761 -10.007  22.054  1.00  0.00    -0.183 N 
ATOM     31  H6  UNL     1      14.331  -9.268  22.465  1.00  0.00     0.185 HD
ENDBRANCH  22  24
ENDBRANCH   6  20
TORSDOF 6
ENDMDL
MODEL 5
REMARK VINA RESULT: -7.997130335      2.966      7.828
REMARK  6 active torsions:
REMARK  status: ('A' for Active; 'I' for Inactive)
REMARK    1  A    between atoms: C2_2  and  N1_3 
REMARK    2  A    between atoms: N2_6  and  C5_7 
REMARK    3  A    between atoms: C5_7  and  C6_8 
REMARK    4  A    between atoms: C6_8  and  C7_9 
REMARK       I    between atoms: C7_9  and  N3_11 
REMARK    5  A    between atoms: C10_14  and  C11_15 
REMARK       I    between atoms: C11_15  and  N4_17 
REMARK    6  A    between atoms: N4_17  and  C12_19 
ROOT
HETATM    1  C7  UNL     1      16.521 -12.579  17.488  1.00  0.00     0.221 C 
HETATM    2  O1  UNL     1      16.860 -13.379  16.581  1.00  0.00    -0.273 OA
HETATM    3  N3  UNL     1      17.512 -12.137  18.399  1.00  0.00    -0.351 N 
HETATM    4  C8  UNL     1      17.252 -11.215  19.489  1.00  0.00     0.127 C 
HETATM    5  C9  UNL     1      18.370 -11.491  20.464  1.00  0.00     0.035 C 
HETATM    6  C10 UNL     1      19.530 -11.708  19.509  1.00  0.00     0.098 C 
HETATM    7  C15 UNL     1      18.923 -12.511  18.408  1.00  0.00     0.139 C 
ENDROOT
BRANCH   1   8
HETATM    8  C6  UNL     1      15.128 -12.094  17.629  1.00  0.00     0.131 C 
BRANCH   8   9
HETATM    9  C5  UNL     1      14.337 -13.150  18.336  1.00  0.00     0.247 C 
BRANCH   9  10
HETATM   10  N2  UNL     1      13.813 -12.744  19.599  1.00  0.00    -0.062 N 
HETATM   11  C4  UNL     1      14.741 -13.077  20.671  1.00  0.00     0.265 C 
HETATM   12  C3  UNL     1      14.167 -12.678  22.015  1.00  0.00     0.265 C 
HETATM   13  N1  UNL     1      13.061 -11.798  21.800  1.00  0.00    -0.063 N 
HETATM   14  C17 UNL     1      11.987 -12.488  21.106  1.00  0.00     0.265 C 
HETATM   15  C19 UNL     1      13.499 -10.712  20.925  1.00  0.00     0.265 C 
HETATM   16  C16 UNL     1      12.541 -13.323  19.942  1.00  0.00     0.265 C 
HETATM   17  C18 UNL     1      13.603 -11.292  19.537  1.00  0.00     0.265 C 
BRANCH  13  18
HETATM   18  C2  UNL     1      12.526 -11.202  22.983  1.00  0.00     0.233 C 
HETATM   19  C1  UNL     1      12.515  -9.704  22.972  1.00  0.00     0.035 C 
ENDBRANCH  13  18
ENDBRANCH   9  10
ENDBRANCH   8   9
ENDBRANCH   1   8
BRANCH   6  20
HETATM   20  C11 UNL     1      20.710 -12.296  20.144  1.00  0.00     0.241 C 
HETATM   21  O2  UNL     1      21.799 -11.637  20.252  1.00  0.00    -0.272 OA
HETATM   22  N4  UNL     1      20.695 -13.599  20.660  1.00  0.00    -0.159 N 
ATOM     23  H4  UNL     1      20.627 -14.405  20.039  1.00  0.00     0.187 HD
BRANCH  22  24
HETATM   24  C12 UNL     1      20.770 -13.755  21.945  1.00  0.00     0.685 A 
HETATM   25  N5  UNL     1      19.677 -13.986  22.728  1.00  0.00    -0.199 N 
HETATM   26  C13 UNL     1      20.085 -14.099  23.994  1.00  0.00     0.144 A 
ATOM     27  H5  UNL     1      18.713 -14.059  22.402  1.00  0.00     0.183 HD
HETATM   28  C14 UNL     1      21.446 -13.935  23.993  1.00  0.00     0.112 A 
HETATM   29 BR1  UNL     1      22.620 -13.984  25.495  1.00  0.00    -0.029 Br
HETATM   30  N6  UNL     1      21.871 -13.721  22.717  1.00  0.00    -0.183 N 
ATOM     31  H6  UNL     1      22.831 -13.567  22.408  1.00  0.00     0.185 HD
ENDBRANCH  22  24
ENDBRANCH   6  20
TORSDOF 6
ENDMDL
