MODEL 1
REMARK VINA RESULT: -8.999457708      0.000      0.000
REMARK  6 active torsions:
REMARK  status: ('A' for Active; 'I' for Inactive)
REMARK    1  A    between atoms: C3_3  and  C4_4 
REMARK    2  A    between atoms: C4_4  and  C5_5 
REMARK    3  A    between atoms: C6_6  and  C7_7 
REMARK    4  A    between atoms: N2_17  and  C15_18 
REMARK    5  A    between atoms: C15_18  and  C16_19 
REMARK    6  A    between atoms: C18_26  and  C19_27 
ROOT
HETATM    1  C1  UNL     1      21.523 -12.619  27.052  1.00  0.00     0.012 C 
HETATM    2  C2  UNL     1      21.915 -13.516  26.344  1.00  0.00    -0.117 C 
HETATM    3  C3  UNL     1      22.402 -14.619  25.490  1.00  0.00     0.105 C 
ENDROOT
BRANCH   3   4
HETATM    4  C4  UNL     1      23.178 -13.973  24.346  1.00  0.00     0.106 C 
BRANCH   4   5
HETATM    5  C5  UNL     1      22.250 -13.715  23.249  1.00  0.00    -0.100 C 
HETATM    6  C6  UNL     1      21.494 -13.518  22.339  1.00  0.00    -0.067 C 
BRANCH   6   7
HETATM    7  C7  UNL     1      20.610 -13.299  21.244  1.00  0.00     0.019 A 
HETATM    8  C8  UNL     1      21.104 -12.885  20.024  1.00  0.00     0.029 A 
HETATM    9  C9  UNL     1      20.291 -12.659  18.933  1.00  0.00    -0.033 A 
HETATM   10  C10 UNL     1      20.855 -12.210  17.620  1.00  0.00     0.050 C 
HETATM   11  C11 UNL     1      18.936 -12.866  19.107  1.00  0.00     0.051 A 
HETATM   12  N1  UNL     1      17.903 -12.741  18.276  1.00  0.00    -0.340 N 
HETATM   13  C21 UNL     1      18.409 -13.280  20.316  1.00  0.00     0.008 A 
HETATM   14  C12 UNL     1      16.742 -13.061  18.911  1.00  0.00     0.121 A 
ATOM     15  H1  UNL     1      17.971 -12.447  17.302  1.00  0.00     0.167 HD
HETATM   16  C13 UNL     1      17.037 -13.407  20.211  1.00  0.00     0.036 A 
HETATM   17  N5  UNL     1      15.460 -13.101  18.542  1.00  0.00    -0.326 N 
HETATM   18  C14 UNL     1      16.001 -13.769  21.044  1.00  0.00     0.108 A 
HETATM   19  N2  UNL     1      14.701 -13.791  20.609  1.00  0.00    -0.341 N 
HETATM   20  C18 UNL     1      14.420 -13.458  19.350  1.00  0.00     0.096 A 
HETATM   21  C20 UNL     1      15.143 -12.734  17.175  1.00  0.00     0.159 C 
HETATM   22  C22 UNL     1      19.257 -13.496  21.385  1.00  0.00     0.035 A 
BRANCH  19  23
HETATM   23  C15 UNL     1      13.715 -14.124  21.592  1.00  0.00     0.176 C 
BRANCH  23  24
HETATM   24  C16 UNL     1      13.354 -12.997  22.532  1.00  0.00     0.208 C 
HETATM   25  N3  UNL     1      13.755 -11.679  22.181  1.00  0.00    -0.320 N 
HETATM   26  C17 UNL     1      12.453 -11.396  21.719  1.00  0.00     0.319 C 
ATOM     27  H3  UNL     1      14.627 -11.153  22.240  1.00  0.00     0.166 HD
HETATM   28  O1  UNL     1      11.894 -10.463  21.040  1.00  0.00    -0.247 OA
HETATM   29  N4  UNL     1      11.993 -12.584  22.318  1.00  0.00    -0.320 N 
ATOM     30  H4  UNL     1      11.076 -12.985  22.517  1.00  0.00     0.166 HD
ENDBRANCH  23  24
ENDBRANCH  19  23
BRANCH  20  31
HETATM   31  C19 UNL     1      13.038 -13.506  18.753  1.00  0.00     0.162 C 
HETATM   32 BR1  UNL     1      12.571 -15.377  18.379  1.00  0.00    -0.088 Br
ENDBRANCH  20  31
ENDBRANCH   6   7
ENDBRANCH   4   5
ENDBRANCH   3   4
TORSDOF 6
ENDMDL
MODEL 2
REMARK VINA RESULT: -8.801941302      0.997      1.143
REMARK  6 active torsions:
REMARK  status: ('A' for Active; 'I' for Inactive)
REMARK    1  A    between atoms: C3_3  and  C4_4 
REMARK    2  A    between atoms: C4_4  and  C5_5 
REMARK    3  A    between atoms: C6_6  and  C7_7 
REMARK    4  A    between atoms: N2_17  and  C15_18 
REMARK    5  A    between atoms: C15_18  and  C16_19 
REMARK    6  A    between atoms: C18_26  and  C19_27 
ROOT
HETATM    1  C1  UNL     1      21.510 -12.605  26.984  1.00  0.00     0.012 C 
HETATM    2  C2  UNL     1      21.976 -13.527  26.358  1.00  0.00    -0.117 C 
HETATM    3  C3  UNL     1      22.553 -14.660  25.606  1.00  0.00     0.105 C 
ENDROOT
BRANCH   3   4
HETATM    4  C4  UNL     1      23.337 -14.057  24.443  1.00  0.00     0.106 C 
BRANCH   4   5
HETATM    5  C5  UNL     1      22.397 -13.740  23.372  1.00  0.00    -0.100 C 
HETATM    6  C6  UNL     1      21.627 -13.497  22.484  1.00  0.00    -0.067 C 
BRANCH   6   7
HETATM    7  C7  UNL     1      20.721 -13.230  21.419  1.00  0.00     0.019 A 
HETATM    8  C8  UNL     1      21.198 -12.960  20.153  1.00  0.00     0.029 A 
HETATM    9  C9  UNL     1      20.364 -12.695  19.087  1.00  0.00    -0.033 A 
HETATM   10  C10 UNL     1      20.910 -12.406  17.722  1.00  0.00     0.050 C 
HETATM   11  C11 UNL     1      19.004 -12.708  19.337  1.00  0.00     0.051 A 
HETATM   12  N1  UNL     1      17.953 -12.497  18.547  1.00  0.00    -0.340 N 
HETATM   13  C21 UNL     1      18.494 -12.973  20.594  1.00  0.00     0.008 A 
HETATM   14  C12 UNL     1      16.797 -12.619  19.254  1.00  0.00     0.121 A 
ATOM     15  H1  UNL     1      18.006 -12.275  17.553  1.00  0.00     0.167 HD
HETATM   16  C13 UNL     1      17.114 -12.922  20.561  1.00  0.00     0.036 A 
HETATM   17  N5  UNL     1      15.502 -12.510  18.948  1.00  0.00    -0.326 N 
HETATM   18  C14 UNL     1      16.087 -13.091  21.462  1.00  0.00     0.108 A 
HETATM   19  N2  UNL     1      14.773 -12.965  21.089  1.00  0.00    -0.341 N 
HETATM   20  C18 UNL     1      14.470 -12.675  19.825  1.00  0.00     0.096 A 
HETATM   21  C20 UNL     1      15.162 -12.187  17.576  1.00  0.00     0.159 C 
HETATM   22  C22 UNL     1      19.364 -13.235  21.635  1.00  0.00     0.035 A 
BRANCH  19  23
HETATM   23  C15 UNL     1      13.807 -13.102  22.137  1.00  0.00     0.176 C 
BRANCH  23  24
HETATM   24  C16 UNL     1      12.609 -12.188  22.017  1.00  0.00     0.208 C 
HETATM   25  N3  UNL     1      11.591 -12.287  23.004  1.00  0.00    -0.320 N 
HETATM   26  C17 UNL     1      12.101 -11.145  23.656  1.00  0.00     0.319 C 
ATOM     27  H3  UNL     1      10.812 -12.923  23.172  1.00  0.00     0.166 HD
HETATM   28  O1  UNL     1      11.917 -10.564  24.785  1.00  0.00    -0.247 OA
HETATM   29  N4  UNL     1      12.919 -10.885  22.541  1.00  0.00    -0.320 N 
ATOM     30  H4  UNL     1      13.493 -10.100  22.232  1.00  0.00     0.166 HD
ENDBRANCH  23  24
ENDBRANCH  19  23
BRANCH  20  31
HETATM   31  C19 UNL     1      13.063 -12.574  19.297  1.00  0.00     0.162 C 
HETATM   32 BR1  UNL     1      12.342 -14.385  19.056  1.00  0.00    -0.088 Br
ENDBRANCH  20  31
ENDBRANCH   6   7
ENDBRANCH   4   5
ENDBRANCH   3   4
TORSDOF 6
ENDMDL
MODEL 3
REMARK VINA RESULT: -8.294189899      1.915      2.157
REMARK  6 active torsions:
REMARK  status: ('A' for Active; 'I' for Inactive)
REMARK    1  A    between atoms: C3_3  and  C4_4 
REMARK    2  A    between atoms: C4_4  and  C5_5 
REMARK    3  A    between atoms: C6_6  and  C7_7 
REMARK    4  A    between atoms: N2_17  and  C15_18 
REMARK    5  A    between atoms: C15_18  and  C16_19 
REMARK    6  A    between atoms: C18_26  and  C19_27 
ROOT
HETATM    1  C1  UNL     1      21.505 -12.619  26.771  1.00  0.00     0.012 C 
HETATM    2  C2  UNL     1      21.883 -13.663  26.297  1.00  0.00    -0.117 C 
HETATM    3  C3  UNL     1      22.351 -14.945  25.730  1.00  0.00     0.105 C 
ENDROOT
BRANCH   3   4
HETATM    4  C4  UNL     1      23.221 -14.596  24.525  1.00  0.00     0.106 C 
BRANCH   4   5
HETATM    5  C5  UNL     1      22.350 -14.126  23.452  1.00  0.00    -0.100 C 
HETATM    6  C6  UNL     1      21.634 -13.723  22.578  1.00  0.00    -0.067 C 
BRANCH   6   7
HETATM    7  C7  UNL     1      20.780 -13.224  21.554  1.00  0.00     0.019 A 
HETATM    8  C8  UNL     1      21.307 -12.834  20.339  1.00  0.00     0.029 A 
HETATM    9  C9  UNL     1      20.524 -12.343  19.315  1.00  0.00    -0.033 A 
HETATM   10  C10 UNL     1      21.123 -11.928  18.006  1.00  0.00     0.050 C 
HETATM   11  C11 UNL     1      19.165 -12.254  19.552  1.00  0.00     0.051 A 
HETATM   12  N1  UNL     1      18.156 -11.833  18.792  1.00  0.00    -0.340 N 
HETATM   13  C21 UNL     1      18.606 -12.635  20.757  1.00  0.00     0.008 A 
HETATM   14  C12 UNL     1      16.979 -11.933  19.468  1.00  0.00     0.121 A 
ATOM     15  H1  UNL     1      18.251 -11.484  17.838  1.00  0.00     0.167 HD
HETATM   16  C13 UNL     1      17.239 -12.441  20.723  1.00  0.00     0.036 A 
HETATM   17  N5  UNL     1      15.708 -11.655  19.172  1.00  0.00    -0.326 N 
HETATM   18  C14 UNL     1      16.182 -12.627  21.586  1.00  0.00     0.108 A 
HETATM   19  N2  UNL     1      14.895 -12.321  21.226  1.00  0.00    -0.341 N 
HETATM   20  C18 UNL     1      14.647 -11.833  20.011  1.00  0.00     0.096 A 
HETATM   21  C20 UNL     1      15.429 -11.116  17.854  1.00  0.00     0.159 C 
HETATM   22  C22 UNL     1      19.425 -13.121  21.758  1.00  0.00     0.035 A 
BRANCH  19  23
HETATM   23  C15 UNL     1      13.899 -12.501  22.238  1.00  0.00     0.176 C 
BRANCH  23  24
HETATM   24  C16 UNL     1      13.340 -13.902  22.333  1.00  0.00     0.208 C 
HETATM   25  N3  UNL     1      12.593 -14.400  21.230  1.00  0.00    -0.320 N 
HETATM   26  C17 UNL     1      13.715 -15.131  20.790  1.00  0.00     0.319 C 
ATOM     27  H3  UNL     1      11.637 -14.278  20.895  1.00  0.00     0.166 HD
HETATM   28  O1  UNL     1      14.043 -15.774  19.729  1.00  0.00    -0.247 OA
HETATM   29  N4  UNL     1      14.355 -14.869  22.015  1.00  0.00    -0.320 N 
ATOM     30  H4  UNL     1      15.191 -15.219  22.484  1.00  0.00     0.166 HD
ENDBRANCH  23  24
ENDBRANCH  19  23
BRANCH  20  31
HETATM   31  C19 UNL     1      13.268 -11.520  19.493  1.00  0.00     0.162 C 
HETATM   32 BR1  UNL     1      12.644  -9.847  20.311  1.00  0.00    -0.088 Br
ENDBRANCH  20  31
ENDBRANCH   6   7
ENDBRANCH   4   5
ENDBRANCH   3   4
TORSDOF 6
ENDMDL
MODEL 4
REMARK VINA RESULT: -8.288054112      2.182      2.720
REMARK  6 active torsions:
REMARK  status: ('A' for Active; 'I' for Inactive)
REMARK    1  A    between atoms: C3_3  and  C4_4 
REMARK    2  A    between atoms: C4_4  and  C5_5 
REMARK    3  A    between atoms: C6_6  and  C7_7 
REMARK    4  A    between atoms: N2_17  and  C15_18 
REMARK    5  A    between atoms: C15_18  and  C16_19 
REMARK    6  A    between atoms: C18_26  and  C19_27 
ROOT
HETATM    1  C1  UNL     1      21.497 -12.617  26.924  1.00  0.00     0.012 C 
HETATM    2  C2  UNL     1      22.006 -13.522  26.306  1.00  0.00    -0.117 C 
HETATM    3  C3  UNL     1      22.634 -14.633  25.562  1.00  0.00     0.105 C 
ENDROOT
BRANCH   3   4
HETATM    4  C4  UNL     1      23.390 -14.003  24.396  1.00  0.00     0.106 C 
BRANCH   4   5
HETATM    5  C5  UNL     1      22.440 -13.747  23.317  1.00  0.00    -0.100 C 
HETATM    6  C6  UNL     1      21.662 -13.554  22.425  1.00  0.00    -0.067 C 
BRANCH   6   7
HETATM    7  C7  UNL     1      20.746 -13.346  21.354  1.00  0.00     0.019 A 
HETATM    8  C8  UNL     1      21.170 -12.748  20.185  1.00  0.00     0.029 A 
HETATM    9  C9  UNL     1      20.324 -12.523  19.119  1.00  0.00    -0.033 A 
HETATM   10  C10 UNL     1      20.811 -11.872  17.861  1.00  0.00     0.050 C 
HETATM   11  C11 UNL     1      19.009 -12.925  19.265  1.00  0.00     0.051 A 
HETATM   12  N1  UNL     1      17.961 -12.856  18.447  1.00  0.00    -0.340 N 
HETATM   13  C21 UNL     1      18.554 -13.526  20.424  1.00  0.00     0.008 A 
HETATM   14  C12 UNL     1      16.860 -13.390  19.041  1.00  0.00     0.121 A 
ATOM     15  H1  UNL     1      17.981 -12.458  17.508  1.00  0.00     0.167 HD
HETATM   16  C13 UNL     1      17.210 -13.824  20.301  1.00  0.00     0.036 A 
HETATM   17  N5  UNL     1      15.591 -13.563  18.664  1.00  0.00    -0.326 N 
HETATM   18  C14 UNL     1      16.240 -14.403  21.087  1.00  0.00     0.108 A 
HETATM   19  N2  UNL     1      14.950 -14.554  20.647  1.00  0.00    -0.341 N 
HETATM   20  C18 UNL     1      14.615 -14.136  19.427  1.00  0.00     0.096 A 
HETATM   21  C20 UNL     1      15.215 -13.105  17.341  1.00  0.00     0.159 C 
HETATM   22  C22 UNL     1      19.433 -13.734  21.469  1.00  0.00     0.035 A 
BRANCH  19  23
HETATM   23  C15 UNL     1      14.026 -15.112  21.587  1.00  0.00     0.176 C 
BRANCH  23  24
HETATM   24  C16 UNL     1      14.046 -16.621  21.674  1.00  0.00     0.208 C 
HETATM   25  N3  UNL     1      14.971 -17.326  20.855  1.00  0.00    -0.320 N 
HETATM   26  C17 UNL     1      15.837 -17.485  21.956  1.00  0.00     0.319 C 
ATOM     27  H3  UNL     1      14.996 -17.602  19.873  1.00  0.00     0.166 HD
HETATM   28  O1  UNL     1      17.048 -17.867  22.133  1.00  0.00    -0.247 OA
HETATM   29  N4  UNL     1      14.812 -17.046  22.815  1.00  0.00    -0.320 N 
ATOM     30  H4  UNL     1      14.670 -17.034  23.825  1.00  0.00     0.166 HD
ENDBRANCH  23  24
ENDBRANCH  19  23
BRANCH  20  31
HETATM   31  C19 UNL     1      13.247 -14.306  18.822  1.00  0.00     0.162 C 
HETATM   32 BR1  UNL     1      13.124 -16.095  18.021  1.00  0.00    -0.088 Br
ENDBRANCH  20  31
ENDBRANCH   6   7
ENDBRANCH   4   5
ENDBRANCH   3   4
TORSDOF 6
ENDMDL
MODEL 5
REMARK VINA RESULT: -8.211248858      2.897      3.373
REMARK  6 active torsions:
REMARK  status: ('A' for Active; 'I' for Inactive)
REMARK    1  A    between atoms: C3_3  and  C4_4 
REMARK    2  A    between atoms: C4_4  and  C5_5 
REMARK    3  A    between atoms: C6_6  and  C7_7 
REMARK    4  A    between atoms: N2_17  and  C15_18 
REMARK    5  A    between atoms: C15_18  and  C16_19 
REMARK    6  A    between atoms: C18_26  and  C19_27 
ROOT
HETATM    1  C1  UNL     1      21.352 -12.564  26.859  1.00  0.00     0.012 C 
HETATM    2  C2  UNL     1      21.963 -13.478  26.359  1.00  0.00    -0.117 C 
HETATM    3  C3  UNL     1      22.719 -14.598  25.760  1.00  0.00     0.105 C 
ENDROOT
BRANCH   3   4
HETATM    4  C4  UNL     1      23.413 -14.041  24.521  1.00  0.00     0.106 C 
BRANCH   4   5
HETATM    5  C5  UNL     1      22.427 -13.939  23.449  1.00  0.00    -0.100 C 
HETATM    6  C6  UNL     1      21.622 -13.837  22.566  1.00  0.00    -0.067 C 
BRANCH   6   7
HETATM    7  C7  UNL     1      20.668 -13.690  21.519  1.00  0.00     0.019 A 
HETATM    8  C8  UNL     1      20.959 -12.911  20.419  1.00  0.00     0.029 A 
HETATM    9  C9  UNL     1      20.070 -12.737  19.378  1.00  0.00    -0.033 A 
HETATM   10  C10 UNL     1      20.414 -11.886  18.194  1.00  0.00     0.050 C 
HETATM   11  C11 UNL     1      18.852 -13.383  19.478  1.00  0.00     0.051 A 
HETATM   12  N1  UNL     1      17.797 -13.421  18.667  1.00  0.00    -0.340 N 
HETATM   13  C21 UNL     1      18.530 -14.170  20.567  1.00  0.00     0.008 A 
HETATM   14  C12 UNL     1      16.818 -14.203  19.200  1.00  0.00     0.121 A 
ATOM     15  H1  UNL     1      17.731 -12.934  17.773  1.00  0.00     0.167 HD
HETATM   16  C13 UNL     1      17.260 -14.691  20.410  1.00  0.00     0.036 A 
HETATM   17  N5  UNL     1      15.596 -14.564  18.803  1.00  0.00    -0.326 N 
HETATM   18  C14 UNL     1      16.421 -15.512  21.130  1.00  0.00     0.108 A 
HETATM   19  N2  UNL     1      15.173 -15.848  20.672  1.00  0.00    -0.341 N 
HETATM   20  C18 UNL     1      14.751 -15.377  19.500  1.00  0.00     0.096 A 
HETATM   21  C20 UNL     1      15.124 -14.050  17.531  1.00  0.00     0.159 C 
HETATM   22  C22 UNL     1      19.447 -14.319  21.589  1.00  0.00     0.035 A 
BRANCH  19  23
HETATM   23  C15 UNL     1      14.379 -16.656  21.547  1.00  0.00     0.176 C 
BRANCH  23  24
HETATM   24  C16 UNL     1      14.719 -18.128  21.531  1.00  0.00     0.208 C 
HETATM   25  N3  UNL     1      15.407 -18.669  22.651  1.00  0.00    -0.320 N 
HETATM   26  C17 UNL     1      14.198 -19.193  23.152  1.00  0.00     0.319 C 
ATOM     27  H3  UNL     1      16.378 -18.674  22.965  1.00  0.00     0.166 HD
HETATM   28  O1  UNL     1      13.801 -19.715  24.254  1.00  0.00    -0.247 OA
HETATM   29  N4  UNL     1      13.576 -18.910  21.921  1.00  0.00    -0.320 N 
ATOM     30  H4  UNL     1      12.687 -19.155  21.487  1.00  0.00     0.166 HD
ENDBRANCH  23  24
ENDBRANCH  19  23
BRANCH  20  31
HETATM   31  C19 UNL     1      13.427 -15.730  18.876  1.00  0.00     0.162 C 
HETATM   32 BR1  UNL     1      13.618 -17.417  17.888  1.00  0.00    -0.088 Br
ENDBRANCH  20  31
ENDBRANCH   6   7
ENDBRANCH   4   5
ENDBRANCH   3   4
TORSDOF 6
ENDMDL
