MODEL 1
REMARK VINA RESULT: -8.273393114      0.000      0.000
REMARK  7 active torsions:
REMARK  status: ('A' for Active; 'I' for Inactive)
REMARK    1  A    between atoms: C3_5  and  C4_6 
REMARK    2  A    between atoms: C4_6  and  C6_8 
REMARK    3  A    between atoms: C9_11  and  S1_12 
REMARK    4  A    between atoms: S1_12  and  C11_14 
REMARK    5  A    between atoms: C11_14  and  C12_15 
REMARK       I    between atoms: C12_15  and  N2_17 
REMARK    6  A    between atoms: N2_17  and  C13_19 
REMARK    7  A    between atoms: C13_19  and  C14_20 
ROOT
HETATM    1  C6  UNL     1      18.609 -12.123  18.576  1.00  0.00    -0.070 C 
HETATM    2  C7  UNL     1      19.762 -12.192  18.872  1.00  0.00    -0.106 C 
HETATM    3  C8  UNL     1      21.177 -12.260  19.211  1.00  0.00     0.112 C 
ENDROOT
BRANCH   1   4
HETATM    4  C4  UNL     1      17.192 -12.007  18.196  1.00  0.00     0.021 C 
HETATM    5  C5  UNL     1      16.960 -12.048  16.753  1.00  0.00     0.061 C 
BRANCH   4   6
HETATM    6  C3  UNL     1      16.331 -11.882  19.177  1.00  0.00     0.081 A 
HETATM    7  N1  UNL     1      15.964 -10.671  19.702  1.00  0.00    -0.340 N 
HETATM    8  C2  UNL     1      15.019 -10.783  20.611  1.00  0.00     0.096 A 
ATOM      9  H1  UNL     1      16.377  -9.782  19.419  1.00  0.00     0.167 HD
HETATM   10  C1  UNL     1      14.424  -9.842  21.317  1.00  0.00     0.063 C 
HETATM   11  N3  UNL     1      14.752 -12.119  20.694  1.00  0.00    -0.336 N 
HETATM   12  C9  UNL     1      15.543 -12.784  19.837  1.00  0.00     0.090 A 
ATOM     13  H3  UNL     1      14.060 -12.545  21.310  1.00  0.00     0.168 HD
BRANCH  12  14
HETATM   14  S1  UNL     1      15.708 -14.436  19.772  1.00  0.00    -0.163 SA
HETATM   15  C10 UNL     1      14.030 -15.274  19.345  1.00  0.00     0.086 C 
BRANCH  14  16
HETATM   16  C11 UNL     1      16.336 -15.238  21.359  1.00  0.00     0.172 C 
BRANCH  16  17
HETATM   17  C12 UNL     1      17.341 -14.268  21.919  1.00  0.00     0.230 C 
HETATM   18  O1  UNL     1      16.891 -13.233  22.505  1.00  0.00    -0.272 OA
HETATM   19  N2  UNL     1      18.719 -14.480  21.808  1.00  0.00    -0.339 N 
ATOM     20  H2  UNL     1      18.964 -15.351  21.337  1.00  0.00     0.167 HD
BRANCH  19  21
HETATM   21  C13 UNL     1      19.828 -13.728  22.219  1.00  0.00     0.073 C 
BRANCH  21  22
HETATM   22  C14 UNL     1      20.475 -14.072  23.507  1.00  0.00    -0.006 C 
HETATM   23  C15 UNL     1      20.418 -15.613  23.601  1.00  0.00     0.019 C 
HETATM   24  C16 UNL     1      21.189 -16.091  24.791  1.00  0.00    -0.012 C 
HETATM   25  C17 UNL     1      20.598 -15.407  26.017  1.00  0.00     0.009 C 
HETATM   26  C21 UNL     1      22.640 -15.775  24.589  1.00  0.00     0.025 C 
HETATM   27  C18 UNL     1      20.785 -13.920  25.930  1.00  0.00    -0.012 C 
HETATM   28  C19 UNL     1      22.242 -13.583  25.714  1.00  0.00     0.025 C 
HETATM   29  C23 UNL     1      19.987 -13.416  24.718  1.00  0.00     0.019 C 
HETATM   30  C20 UNL     1      22.746 -14.262  24.482  1.00  0.00     0.020 C 
HETATM   31 BR1  UNL     1      24.597 -13.727  24.230  1.00  0.00    -0.085 Br
HETATM   32  C22 UNL     1      21.982 -13.800  23.294  1.00  0.00     0.036 C 
ENDBRANCH  21  22
ENDBRANCH  19  21
ENDBRANCH  16  17
ENDBRANCH  14  16
ENDBRANCH  12  14
ENDBRANCH   4   6
ENDBRANCH   1   4
TORSDOF 7
ENDMDL
MODEL 2
REMARK VINA RESULT: -8.261962074      1.347      1.727
REMARK  7 active torsions:
REMARK  status: ('A' for Active; 'I' for Inactive)
REMARK    1  A    between atoms: C3_5  and  C4_6 
REMARK    2  A    between atoms: C4_6  and  C6_8 
REMARK    3  A    between atoms: C9_11  and  S1_12 
REMARK    4  A    between atoms: S1_12  and  C11_14 
REMARK    5  A    between atoms: C11_14  and  C12_15 
REMARK       I    between atoms: C12_15  and  N2_17 
REMARK    6  A    between atoms: N2_17  and  C13_19 
REMARK    7  A    between atoms: C13_19  and  C14_20 
ROOT
HETATM    1  C6  UNL     1      18.396 -11.863  19.327  1.00  0.00    -0.070 C 
HETATM    2  C7  UNL     1      19.505 -11.877  19.764  1.00  0.00    -0.106 C 
HETATM    3  C8  UNL     1      20.871 -11.892  20.273  1.00  0.00     0.112 C 
ENDROOT
BRANCH   1   4
HETATM    4  C4  UNL     1      17.038 -11.826  18.760  1.00  0.00     0.021 C 
HETATM    5  C5  UNL     1      17.000 -11.968  17.305  1.00  0.00     0.061 C 
BRANCH   4   6
HETATM    6  C3  UNL     1      16.053 -11.672  19.611  1.00  0.00     0.081 A 
HETATM    7  N1  UNL     1      15.855 -10.522  20.327  1.00  0.00    -0.340 N 
HETATM    8  C2  UNL     1      14.752 -10.560  21.045  1.00  0.00     0.096 A 
ATOM      9  H1  UNL     1      16.490  -9.724  20.306  1.00  0.00     0.167 HD
HETATM   10  C1  UNL     1      14.244  -9.644  21.846  1.00  0.00     0.063 C 
HETATM   11  N3  UNL     1      14.201 -11.784  20.798  1.00  0.00    -0.336 N 
HETATM   12  C9  UNL     1      14.983 -12.458  19.940  1.00  0.00     0.090 A 
ATOM     13  H3  UNL     1      13.331 -12.131  21.201  1.00  0.00     0.168 HD
BRANCH  12  14
HETATM   14  S1  UNL     1      14.808 -14.062  19.542  1.00  0.00    -0.163 SA
HETATM   15  C10 UNL     1      12.958 -14.496  19.249  1.00  0.00     0.086 C 
BRANCH  14  16
HETATM   16  C11 UNL     1      15.461 -15.278  20.828  1.00  0.00     0.172 C 
BRANCH  16  17
HETATM   17  C12 UNL     1      16.852 -14.801  21.150  1.00  0.00     0.230 C 
HETATM   18  O1  UNL     1      17.790 -15.165  20.372  1.00  0.00    -0.272 OA
HETATM   19  N2  UNL     1      17.120 -13.990  22.258  1.00  0.00    -0.339 N 
ATOM     20  H2  UNL     1      16.291 -13.745  22.799  1.00  0.00     0.167 HD
BRANCH  19  21
HETATM   21  C13 UNL     1      18.309 -13.449  22.769  1.00  0.00     0.073 C 
BRANCH  21  22
HETATM   22  C14 UNL     1      19.202 -14.330  23.558  1.00  0.00    -0.006 C 
HETATM   23  C15 UNL     1      20.364 -14.699  22.609  1.00  0.00     0.019 C 
HETATM   24  C16 UNL     1      21.419 -15.460  23.350  1.00  0.00    -0.012 C 
HETATM   25  C17 UNL     1      20.749 -16.685  23.960  1.00  0.00     0.009 C 
HETATM   26  C21 UNL     1      22.036 -14.560  24.377  1.00  0.00     0.025 C 
HETATM   27  C18 UNL     1      19.709 -16.271  24.960  1.00  0.00    -0.012 C 
HETATM   28  C19 UNL     1      20.312 -15.353  25.998  1.00  0.00     0.025 C 
HETATM   29  C23 UNL     1      18.614 -15.499  24.209  1.00  0.00     0.019 C 
HETATM   30  C20 UNL     1      20.923 -14.162  25.333  1.00  0.00     0.020 C 
HETATM   31 BR1  UNL     1      21.611 -12.997  26.728  1.00  0.00    -0.085 Br
HETATM   32  C22 UNL     1      19.886 -13.403  24.588  1.00  0.00     0.036 C 
ENDBRANCH  21  22
ENDBRANCH  19  21
ENDBRANCH  16  17
ENDBRANCH  14  16
ENDBRANCH  12  14
ENDBRANCH   4   6
ENDBRANCH   1   4
TORSDOF 7
ENDMDL
MODEL 3
REMARK VINA RESULT: -8.240670745      3.398      5.538
REMARK  7 active torsions:
REMARK  status: ('A' for Active; 'I' for Inactive)
REMARK    1  A    between atoms: C3_5  and  C4_6 
REMARK    2  A    between atoms: C4_6  and  C6_8 
REMARK    3  A    between atoms: C9_11  and  S1_12 
REMARK    4  A    between atoms: S1_12  and  C11_14 
REMARK    5  A    between atoms: C11_14  and  C12_15 
REMARK       I    between atoms: C12_15  and  N2_17 
REMARK    6  A    between atoms: N2_17  and  C13_19 
REMARK    7  A    between atoms: C13_19  and  C14_20 
ROOT
HETATM    1  C6  UNL     1      15.526 -14.878  16.775  1.00  0.00    -0.070 C 
HETATM    2  C7  UNL     1      15.939 -14.245  15.853  1.00  0.00    -0.106 C 
HETATM    3  C8  UNL     1      16.450 -13.448  14.745  1.00  0.00     0.112 C 
ENDROOT
BRANCH   1   4
HETATM    4  C4  UNL     1      15.037 -15.644  17.933  1.00  0.00     0.021 C 
HETATM    5  C5  UNL     1      16.058 -16.481  18.562  1.00  0.00     0.061 C 
BRANCH   4   6
HETATM    6  C3  UNL     1      13.775 -15.486  18.249  1.00  0.00     0.081 A 
HETATM    7  N1  UNL     1      12.765 -16.220  17.688  1.00  0.00    -0.340 N 
HETATM    8  C2  UNL     1      11.593 -15.956  18.226  1.00  0.00     0.096 A 
ATOM      9  H1  UNL     1      12.904 -16.896  16.937  1.00  0.00     0.167 HD
HETATM   10  C1  UNL     1      10.410 -16.467  17.945  1.00  0.00     0.063 C 
HETATM   11  N3  UNL     1      11.836 -15.009  19.178  1.00  0.00    -0.336 N 
HETATM   12  C9  UNL     1      13.146 -14.719  19.191  1.00  0.00     0.090 A 
ATOM     13  H3  UNL     1      11.132 -14.588  19.784  1.00  0.00     0.168 HD
BRANCH  12  14
HETATM   14  S1  UNL     1      13.842 -13.468  20.035  1.00  0.00    -0.163 SA
HETATM   15  C10 UNL     1      13.183 -13.411  21.841  1.00  0.00     0.086 C 
BRANCH  14  16
HETATM   16  C11 UNL     1      13.564 -11.755  19.294  1.00  0.00     0.172 C 
BRANCH  16  17
HETATM   17  C12 UNL     1      14.791 -11.481  18.467  1.00  0.00     0.230 C 
HETATM   18  O1  UNL     1      14.640 -10.796  17.406  1.00  0.00    -0.272 OA
HETATM   19  N2  UNL     1      16.055 -11.954  18.835  1.00  0.00    -0.339 N 
ATOM     20  H2  UNL     1      16.060 -12.474  19.712  1.00  0.00     0.167 HD
BRANCH  19  21
HETATM   21  C13 UNL     1      17.316 -11.852  18.230  1.00  0.00     0.073 C 
BRANCH  21  22
HETATM   22  C14 UNL     1      18.508 -12.250  19.016  1.00  0.00    -0.006 C 
HETATM   23  C15 UNL     1      18.583 -11.249  20.191  1.00  0.00     0.019 C 
HETATM   24  C16 UNL     1      19.660 -11.652  21.150  1.00  0.00    -0.012 C 
HETATM   25  C17 UNL     1      20.962 -11.729  20.361  1.00  0.00     0.009 C 
HETATM   26  C21 UNL     1      19.284 -12.956  21.783  1.00  0.00     0.025 C 
HETATM   27  C18 UNL     1      20.876 -12.796  19.309  1.00  0.00    -0.012 C 
HETATM   28  C19 UNL     1      20.486 -14.118  19.930  1.00  0.00     0.025 C 
HETATM   29  C23 UNL     1      19.781 -12.388  18.312  1.00  0.00     0.019 C 
HETATM   30  C20 UNL     1      19.189 -13.976  20.660  1.00  0.00     0.020 C 
HETATM   31 BR1  UNL     1      18.717 -15.723  21.366  1.00  0.00    -0.085 Br
HETATM   32  C22 UNL     1      18.114 -13.569  19.719  1.00  0.00     0.036 C 
ENDBRANCH  21  22
ENDBRANCH  19  21
ENDBRANCH  16  17
ENDBRANCH  14  16
ENDBRANCH  12  14
ENDBRANCH   4   6
ENDBRANCH   1   4
TORSDOF 7
ENDMDL
MODEL 4
REMARK VINA RESULT: -8.207014401      1.108      1.764
REMARK  7 active torsions:
REMARK  status: ('A' for Active; 'I' for Inactive)
REMARK    1  A    between atoms: C3_5  and  C4_6 
REMARK    2  A    between atoms: C4_6  and  C6_8 
REMARK    3  A    between atoms: C9_11  and  S1_12 
REMARK    4  A    between atoms: S1_12  and  C11_14 
REMARK    5  A    between atoms: C11_14  and  C12_15 
REMARK       I    between atoms: C12_15  and  N2_17 
REMARK    6  A    between atoms: N2_17  and  C13_19 
REMARK    7  A    between atoms: C13_19  and  C14_20 
ROOT
HETATM    1  C6  UNL     1      18.593 -12.152  18.591  1.00  0.00    -0.070 C 
HETATM    2  C7  UNL     1      19.748 -12.214  18.880  1.00  0.00    -0.106 C 
HETATM    3  C8  UNL     1      21.160 -12.262  19.236  1.00  0.00     0.112 C 
ENDROOT
BRANCH   1   4
HETATM    4  C4  UNL     1      17.164 -12.049  18.254  1.00  0.00     0.021 C 
HETATM    5  C5  UNL     1      16.890 -12.082  16.818  1.00  0.00     0.061 C 
BRANCH   4   6
HETATM    6  C3  UNL     1      16.331 -11.940  19.261  1.00  0.00     0.081 A 
HETATM    7  N1  UNL     1      15.904 -10.735  19.753  1.00  0.00    -0.340 N 
HETATM    8  C2  UNL     1      15.000 -10.871  20.700  1.00  0.00     0.096 A 
ATOM      9  H1  UNL     1      16.247  -9.833  19.421  1.00  0.00     0.167 HD
HETATM   10  C1  UNL     1      14.369  -9.943  21.392  1.00  0.00     0.063 C 
HETATM   11  N3  UNL     1      14.825 -12.217  20.844  1.00  0.00    -0.336 N 
HETATM   12  C9  UNL     1      15.628 -12.863  19.984  1.00  0.00     0.090 A 
ATOM     13  H3  UNL     1      14.184 -12.661  21.501  1.00  0.00     0.168 HD
BRANCH  12  14
HETATM   14  S1  UNL     1      15.899 -14.503  19.975  1.00  0.00    -0.163 SA
HETATM   15  C10 UNL     1      14.285 -15.460  19.555  1.00  0.00     0.086 C 
BRANCH  14  16
HETATM   16  C11 UNL     1      16.552 -15.211  21.597  1.00  0.00     0.172 C 
BRANCH  16  17
HETATM   17  C12 UNL     1      17.606 -14.240  22.054  1.00  0.00     0.230 C 
HETATM   18  O1  UNL     1      17.211 -13.128  22.529  1.00  0.00    -0.272 OA
HETATM   19  N2  UNL     1      18.972 -14.530  21.966  1.00  0.00    -0.339 N 
ATOM     20  H2  UNL     1      19.172 -15.456  21.588  1.00  0.00     0.167 HD
BRANCH  19  21
HETATM   21  C13 UNL     1      20.119 -13.795  22.297  1.00  0.00     0.073 C 
BRANCH  21  22
HETATM   22  C14 UNL     1      20.828 -14.126  23.556  1.00  0.00    -0.006 C 
HETATM   23  C15 UNL     1      20.034 -13.420  24.678  1.00  0.00     0.019 C 
HETATM   24  C16 UNL     1      20.565 -13.816  26.020  1.00  0.00    -0.012 C 
HETATM   25  C17 UNL     1      22.047 -13.464  26.041  1.00  0.00     0.009 C 
HETATM   26  C21 UNL     1      20.308 -15.276  26.232  1.00  0.00     0.025 C 
HETATM   27  C18 UNL     1      22.791 -14.264  25.011  1.00  0.00    -0.012 C 
HETATM   28  C19 UNL     1      22.534 -15.741  25.204  1.00  0.00     0.025 C 
HETATM   29  C23 UNL     1      22.263 -13.857  23.627  1.00  0.00     0.019 C 
HETATM   30  C20 UNL     1      21.067 -16.016  25.142  1.00  0.00     0.020 C 
HETATM   31 BR1  UNL     1      20.820 -17.935  25.324  1.00  0.00    -0.085 Br
HETATM   32  C22 UNL     1      20.527 -15.619  23.815  1.00  0.00     0.036 C 
ENDBRANCH  21  22
ENDBRANCH  19  21
ENDBRANCH  16  17
ENDBRANCH  14  16
ENDBRANCH  12  14
ENDBRANCH   4   6
ENDBRANCH   1   4
TORSDOF 7
ENDMDL
MODEL 5
REMARK VINA RESULT: -8.201348672      2.042      3.312
REMARK  7 active torsions:
REMARK  status: ('A' for Active; 'I' for Inactive)
REMARK    1  A    between atoms: C3_5  and  C4_6 
REMARK    2  A    between atoms: C4_6  and  C6_8 
REMARK    3  A    between atoms: C9_11  and  S1_12 
REMARK    4  A    between atoms: S1_12  and  C11_14 
REMARK    5  A    between atoms: C11_14  and  C12_15 
REMARK       I    between atoms: C12_15  and  N2_17 
REMARK    6  A    between atoms: N2_17  and  C13_19 
REMARK    7  A    between atoms: C13_19  and  C14_20 
ROOT
HETATM    1  C6  UNL     1      14.827 -11.850  16.972  1.00  0.00    -0.070 C 
HETATM    2  C7  UNL     1      15.058 -11.369  15.906  1.00  0.00    -0.106 C 
HETATM    3  C8  UNL     1      15.365 -10.771  14.613  1.00  0.00     0.112 C 
ENDROOT
BRANCH   1   4
HETATM    4  C4  UNL     1      14.575 -12.448  18.293  1.00  0.00     0.021 C 
HETATM    5  C5  UNL     1      14.018 -13.799  18.234  1.00  0.00     0.061 C 
BRANCH   4   6
HETATM    6  C3  UNL     1      14.872 -11.712  19.336  1.00  0.00     0.081 A 
HETATM    7  N1  UNL     1      13.952 -10.944  19.998  1.00  0.00    -0.340 N 
HETATM    8  C2  UNL     1      14.454 -10.366  21.068  1.00  0.00     0.096 A 
ATOM      9  H1  UNL     1      12.984 -10.831  19.695  1.00  0.00     0.167 HD
HETATM   10  C1  UNL     1      13.870  -9.568  21.940  1.00  0.00     0.063 C 
HETATM   11  N3  UNL     1      15.759 -10.766  21.116  1.00  0.00    -0.336 N 
HETATM   12  C9  UNL     1      16.016 -11.570  20.073  1.00  0.00     0.090 A 
ATOM     13  H3  UNL     1      16.432 -10.495  21.833  1.00  0.00     0.168 HD
BRANCH  12  14
HETATM   14  S1  UNL     1      17.525 -12.100  19.621  1.00  0.00    -0.163 SA
HETATM   15  C10 UNL     1      17.700 -13.993  19.914  1.00  0.00     0.086 C 
BRANCH  14  16
HETATM   16  C11 UNL     1      18.962 -11.270  20.516  1.00  0.00     0.172 C 
BRANCH  16  17
HETATM   17  C12 UNL     1      20.015 -12.337  20.644  1.00  0.00     0.230 C 
HETATM   18  O1  UNL     1      20.735 -12.573  19.623  1.00  0.00    -0.272 OA
HETATM   19  N2  UNL     1      20.207 -13.051  21.831  1.00  0.00    -0.339 N 
ATOM     20  H2  UNL     1      19.587 -12.765  22.588  1.00  0.00     0.167 HD
BRANCH  19  21
HETATM   21  C13 UNL     1      21.087 -14.085  22.182  1.00  0.00     0.073 C 
BRANCH  21  22
HETATM   22  C14 UNL     1      21.444 -14.252  23.611  1.00  0.00    -0.006 C 
HETATM   23  C15 UNL     1      20.371 -13.468  24.400  1.00  0.00     0.019 C 
HETATM   24  C16 UNL     1      20.535 -13.699  25.870  1.00  0.00    -0.012 C 
HETATM   25  C17 UNL     1      21.954 -13.284  26.238  1.00  0.00     0.009 C 
HETATM   26  C21 UNL     1      20.251 -15.139  26.170  1.00  0.00     0.025 C 
HETATM   27  C18 UNL     1      22.954 -14.154  25.534  1.00  0.00    -0.012 C 
HETATM   28  C19 UNL     1      22.676 -15.612  25.817  1.00  0.00     0.025 C 
HETATM   29  C23 UNL     1      22.804 -13.916  24.023  1.00  0.00     0.019 C 
HETATM   30  C20 UNL     1      21.281 -15.955  25.405  1.00  0.00     0.020 C 
HETATM   31 BR1  UNL     1      21.021 -17.853  25.729  1.00  0.00    -0.085 Br
HETATM   32  C22 UNL     1      21.106 -15.722  23.948  1.00  0.00     0.036 C 
ENDBRANCH  21  22
ENDBRANCH  19  21
ENDBRANCH  16  17
ENDBRANCH  14  16
ENDBRANCH  12  14
ENDBRANCH   4   6
ENDBRANCH   1   4
TORSDOF 7
ENDMDL
