MODEL 1
REMARK VINA RESULT: -7.489221341      0.000      0.000
REMARK  8 active torsions:
REMARK  status: ('A' for Active; 'I' for Inactive)
REMARK    1  A    between atoms: C3_3  and  C4_4 
REMARK    2  A    between atoms: C4_4  and  N1_5 
REMARK    3  A    between atoms: N1_5  and  C5_6 
REMARK    4  A    between atoms: C5_6  and  N2_7 
REMARK       I    between atoms: N2_7  and  C6_9 
REMARK    5  A    between atoms: C6_9  and  C7_11 
REMARK    6  A    between atoms: C13_17  and  C14_18 
REMARK    7  A    between atoms: C15_19  and  C16_20 
REMARK    8  A    between atoms: C17_22  and  C18_23 
REMARK       I    between atoms: C18_23  and  N3_25 
ROOT
HETATM    1  C1  UNL     1      20.804 -11.883  17.078  1.00  0.00     0.112 C 
HETATM    2  C2  UNL     1      20.812 -12.294  18.482  1.00  0.00    -0.109 C 
HETATM    3  C3  UNL     1      20.832 -12.621  19.666  1.00  0.00    -0.079 C 
ENDROOT
BRANCH   3   4
HETATM    4  C4  UNL     1      20.883 -13.007  21.069  1.00  0.00     0.337 C 
BRANCH   4   5
HETATM    5  N1  UNL     1      19.539 -13.278  21.557  1.00  0.00    -0.023 N 
HETATM    6  C20 UNL     1      19.054 -14.412  20.844  1.00  0.00     0.246 C 
HETATM    7  C21 UNL     1      19.526 -15.633  21.638  1.00  0.00     0.030 C 
HETATM    8  C22 UNL     1      20.308 -15.051  22.809  1.00  0.00     0.030 C 
HETATM    9  C23 UNL     1      19.587 -13.730  22.950  1.00  0.00     0.246 C 
BRANCH   5  10
HETATM   10  C5  UNL     1      18.762 -12.074  21.463  1.00  0.00     0.297 C 
BRANCH  10  11
HETATM   11  N2  UNL     1      17.446 -12.157  20.954  1.00  0.00    -0.316 N 
HETATM   12  C6  UNL     1      16.955 -11.674  19.726  1.00  0.00     0.227 C 
HETATM   13  O1  UNL     1      17.712 -11.073  18.936  1.00  0.00    -0.273 OA
ATOM     14  H2  UNL     1      16.766 -12.626  21.553  1.00  0.00     0.169 HD
BRANCH  12  15
HETATM   15  C7  UNL     1      15.539 -11.845  19.311  1.00  0.00     0.093 C 
HETATM   16  C8  UNL     1      14.583 -11.182  20.283  1.00  0.00     0.021 C 
HETATM   17  C9  UNL     1      13.332 -12.018  19.997  1.00  0.00     0.008 C 
HETATM   18  C10 UNL     1      12.351 -11.974  21.135  1.00  0.00     0.006 C 
HETATM   19  C13 UNL     1      13.876 -13.403  20.045  1.00  0.00     0.040 C 
HETATM   20  C11 UNL     1      12.980 -12.816  22.201  1.00  0.00     0.002 C 
HETATM   21  C12 UNL     1      14.028 -13.670  21.522  1.00  0.00     0.024 C 
HETATM   22  C17 UNL     1      15.195 -13.311  19.336  1.00  0.00     0.112 C 
BRANCH  19  23
HETATM   23  C14 UNL     1      12.936 -14.337  19.425  1.00  0.00    -0.094 C 
HETATM   24  C15 UNL     1      12.174 -15.109  18.939  1.00  0.00    -0.095 C 
BRANCH  24  25
HETATM   25  C16 UNL     1      11.234 -16.094  18.346  1.00  0.00     0.178 C 
HETATM   26 BR1  UNL     1      12.294 -17.568  17.726  1.00  0.00    -0.083 Br
ENDBRANCH  24  25
ENDBRANCH  19  23
BRANCH  22  27
HETATM   27  C18 UNL     1      15.150 -13.943  18.006  1.00  0.00     0.224 C 
HETATM   28  O2  UNL     1      14.715 -13.273  17.006  1.00  0.00    -0.273 OA
HETATM   29  N3  UNL     1      15.561 -15.265  17.738  1.00  0.00    -0.365 N 
HETATM   30  C19 UNL     1      15.495 -15.835  16.397  1.00  0.00     0.149 C 
ATOM     31  H3  UNL     1      15.913 -15.839  18.504  1.00  0.00     0.161 HD
ENDBRANCH  22  27
ENDBRANCH  12  15
ENDBRANCH  10  11
ENDBRANCH   5  10
ENDBRANCH   4   5
ENDBRANCH   3   4
TORSDOF 8
ENDMDL
MODEL 2
REMARK VINA RESULT: -7.119854655      3.449      6.255
REMARK  8 active torsions:
REMARK  status: ('A' for Active; 'I' for Inactive)
REMARK    1  A    between atoms: C3_3  and  C4_4 
REMARK    2  A    between atoms: C4_4  and  N1_5 
REMARK    3  A    between atoms: N1_5  and  C5_6 
REMARK    4  A    between atoms: C5_6  and  N2_7 
REMARK       I    between atoms: N2_7  and  C6_9 
REMARK    5  A    between atoms: C6_9  and  C7_11 
REMARK    6  A    between atoms: C13_17  and  C14_18 
REMARK    7  A    between atoms: C15_19  and  C16_20 
REMARK    8  A    between atoms: C17_22  and  C18_23 
REMARK       I    between atoms: C18_23  and  N3_25 
ROOT
HETATM    1  C1  UNL     1      21.436 -12.567  27.011  1.00  0.00     0.112 C 
HETATM    2  C2  UNL     1      22.171 -13.505  26.162  1.00  0.00    -0.109 C 
HETATM    3  C3  UNL     1      22.770 -14.294  25.436  1.00  0.00    -0.079 C 
ENDROOT
BRANCH   3   4
HETATM    4  C4  UNL     1      23.457 -15.244  24.573  1.00  0.00     0.337 C 
BRANCH   4   5
HETATM    5  N1  UNL     1      22.841 -16.557  24.693  1.00  0.00    -0.023 N 
HETATM    6  C20 UNL     1      23.464 -17.404  23.733  1.00  0.00     0.246 C 
HETATM    7  C21 UNL     1      24.697 -17.983  24.431  1.00  0.00     0.030 C 
HETATM    8  C22 UNL     1      24.680 -17.361  25.822  1.00  0.00     0.030 C 
HETATM    9  C23 UNL     1      23.190 -17.164  25.981  1.00  0.00     0.246 C 
BRANCH   5  10
HETATM   10  C5  UNL     1      21.416 -16.408  24.597  1.00  0.00     0.297 C 
BRANCH  10  11
HETATM   11  N2  UNL     1      20.853 -16.091  23.339  1.00  0.00    -0.316 N 
HETATM   12  C6  UNL     1      20.021 -15.004  23.006  1.00  0.00     0.227 C 
HETATM   13  O1  UNL     1      19.680 -14.179  23.878  1.00  0.00    -0.273 OA
ATOM     14  H2  UNL     1      21.078 -16.730  22.576  1.00  0.00     0.169 HD
BRANCH  12  15
HETATM   15  C7  UNL     1      19.511 -14.785  21.629  1.00  0.00     0.093 C 
HETATM   16  C8  UNL     1      20.636 -14.527  20.646  1.00  0.00     0.021 C 
HETATM   17  C9  UNL     1      19.854 -13.749  19.583  1.00  0.00     0.008 C 
HETATM   18  C10 UNL     1      20.753 -12.904  18.725  1.00  0.00     0.006 C 
HETATM   19  C13 UNL     1      19.116 -12.759  20.415  1.00  0.00     0.040 C 
HETATM   20  C11 UNL     1      21.162 -11.773  19.616  1.00  0.00     0.002 C 
HETATM   21  C12 UNL     1      20.169 -11.733  20.757  1.00  0.00     0.024 C 
HETATM   22  C17 UNL     1      18.662 -13.541  21.613  1.00  0.00     0.112 C 
BRANCH  19  23
HETATM   23  C14 UNL     1      18.021 -12.168  19.645  1.00  0.00    -0.094 C 
HETATM   24  C15 UNL     1      17.123 -11.709  19.015  1.00  0.00    -0.095 C 
BRANCH  24  25
HETATM   25  C16 UNL     1      16.001 -11.159  18.214  1.00  0.00     0.178 C 
HETATM   26 BR1  UNL     1      14.379 -11.749  19.054  1.00  0.00    -0.083 Br
ENDBRANCH  24  25
ENDBRANCH  19  23
BRANCH  22  27
HETATM   27  C18 UNL     1      17.212 -13.801  21.582  1.00  0.00     0.224 C 
HETATM   28  O2  UNL     1      16.419 -13.018  22.212  1.00  0.00    -0.273 OA
HETATM   29  N3  UNL     1      16.610 -14.875  20.895  1.00  0.00    -0.365 N 
HETATM   30  C19 UNL     1      15.166 -15.079  20.899  1.00  0.00     0.149 C 
ATOM     31  H3  UNL     1      17.201 -15.527  20.380  1.00  0.00     0.161 HD
ENDBRANCH  22  27
ENDBRANCH  12  15
ENDBRANCH  10  11
ENDBRANCH   5  10
ENDBRANCH   4   5
ENDBRANCH   3   4
TORSDOF 8
ENDMDL
MODEL 3
REMARK VINA RESULT: -7.093544478      3.356      7.548
REMARK  8 active torsions:
REMARK  status: ('A' for Active; 'I' for Inactive)
REMARK    1  A    between atoms: C3_3  and  C4_4 
REMARK    2  A    between atoms: C4_4  and  N1_5 
REMARK    3  A    between atoms: N1_5  and  C5_6 
REMARK    4  A    between atoms: C5_6  and  N2_7 
REMARK       I    between atoms: N2_7  and  C6_9 
REMARK    5  A    between atoms: C6_9  and  C7_11 
REMARK    6  A    between atoms: C13_17  and  C14_18 
REMARK    7  A    between atoms: C15_19  and  C16_20 
REMARK    8  A    between atoms: C17_22  and  C18_23 
REMARK       I    between atoms: C18_23  and  N3_25 
ROOT
HETATM    1  C1  UNL     1      13.612 -11.197  19.940  1.00  0.00     0.112 C 
HETATM    2  C2  UNL     1      13.788 -12.391  19.115  1.00  0.00    -0.109 C 
HETATM    3  C3  UNL     1      13.931 -13.383  18.404  1.00  0.00    -0.079 C 
ENDROOT
BRANCH   3   4
HETATM    4  C4  UNL     1      14.078 -14.551  17.548  1.00  0.00     0.337 C 
BRANCH   4   5
HETATM    5  N1  UNL     1      15.464 -14.996  17.551  1.00  0.00    -0.023 N 
HETATM    6  C20 UNL     1      15.605 -15.943  16.497  1.00  0.00     0.246 C 
HETATM    7  C21 UNL     1      15.933 -15.124  15.246  1.00  0.00     0.030 C 
HETATM    8  C22 UNL     1      15.935 -13.677  15.724  1.00  0.00     0.030 C 
HETATM    9  C23 UNL     1      16.350 -13.896  17.160  1.00  0.00     0.246 C 
BRANCH   5  10
HETATM   10  C5  UNL     1      15.801 -15.444  18.873  1.00  0.00     0.297 C 
BRANCH  10  11
HETATM   11  N2  UNL     1      16.731 -14.691  19.627  1.00  0.00    -0.316 N 
HETATM   12  C6  UNL     1      16.562 -14.129  20.907  1.00  0.00     0.227 C 
HETATM   13  O1  UNL     1      15.480 -14.256  21.515  1.00  0.00    -0.273 OA
ATOM     14  H2  UNL     1      17.638 -14.535  19.187  1.00  0.00     0.169 HD
BRANCH  12  15
HETATM   15  C7  UNL     1      17.639 -13.369  21.591  1.00  0.00     0.093 C 
HETATM   16  C8  UNL     1      18.275 -12.343  20.672  1.00  0.00     0.021 C 
HETATM   17  C9  UNL     1      19.637 -12.217  21.359  1.00  0.00     0.008 C 
HETATM   18  C10 UNL     1      20.690 -11.679  20.431  1.00  0.00     0.006 C 
HETATM   19  C13 UNL     1      20.017 -13.645  21.543  1.00  0.00     0.040 C 
HETATM   20  C11 UNL     1      20.980 -12.814  19.499  1.00  0.00     0.002 C 
HETATM   21  C12 UNL     1      20.465 -14.070  20.166  1.00  0.00     0.024 C 
HETATM   22  C17 UNL     1      18.745 -14.318  21.969  1.00  0.00     0.112 C 
BRANCH  19  23
HETATM   23  C14 UNL     1      21.101 -13.758  22.518  1.00  0.00    -0.094 C 
HETATM   24  C15 UNL     1      21.998 -13.850  23.294  1.00  0.00    -0.095 C 
BRANCH  24  25
HETATM   25  C16 UNL     1      23.132 -13.977  24.244  1.00  0.00     0.178 C 
HETATM   26 BR1  UNL     1      22.422 -13.666  26.000  1.00  0.00    -0.083 Br
ENDBRANCH  24  25
ENDBRANCH  19  23
BRANCH  22  27
HETATM   27  C18 UNL     1      18.767 -14.679  23.398  1.00  0.00     0.224 C 
HETATM   28  O2  UNL     1      18.495 -13.789  24.276  1.00  0.00    -0.273 OA
HETATM   29  N3  UNL     1      19.071 -15.966  23.889  1.00  0.00    -0.365 N 
HETATM   30  C19 UNL     1      19.073 -16.264  25.316  1.00  0.00     0.149 C 
ATOM     31  H3  UNL     1      19.296 -16.708  23.227  1.00  0.00     0.161 HD
ENDBRANCH  22  27
ENDBRANCH  12  15
ENDBRANCH  10  11
ENDBRANCH   5  10
ENDBRANCH   4   5
ENDBRANCH   3   4
TORSDOF 8
ENDMDL
MODEL 4
REMARK VINA RESULT: -7.093498885      3.445      6.374
REMARK  8 active torsions:
REMARK  status: ('A' for Active; 'I' for Inactive)
REMARK    1  A    between atoms: C3_3  and  C4_4 
REMARK    2  A    between atoms: C4_4  and  N1_5 
REMARK    3  A    between atoms: N1_5  and  C5_6 
REMARK    4  A    between atoms: C5_6  and  N2_7 
REMARK       I    between atoms: N2_7  and  C6_9 
REMARK    5  A    between atoms: C6_9  and  C7_11 
REMARK    6  A    between atoms: C13_17  and  C14_18 
REMARK    7  A    between atoms: C15_19  and  C16_20 
REMARK    8  A    between atoms: C17_22  and  C18_23 
REMARK       I    between atoms: C18_23  and  N3_25 
ROOT
HETATM    1  C1  UNL     1      21.544 -12.639  26.698  1.00  0.00     0.112 C 
HETATM    2  C2  UNL     1      20.710 -13.834  26.566  1.00  0.00    -0.109 C 
HETATM    3  C3  UNL     1      19.997 -14.829  26.471  1.00  0.00    -0.079 C 
ENDROOT
BRANCH   3   4
HETATM    4  C4  UNL     1      19.152 -16.013  26.387  1.00  0.00     0.337 C 
BRANCH   4   5
HETATM    5  N1  UNL     1      19.881 -17.095  25.742  1.00  0.00    -0.023 N 
HETATM    6  C20 UNL     1      20.492 -17.864  26.773  1.00  0.00     0.246 C 
HETATM    7  C21 UNL     1      19.445 -18.897  27.195  1.00  0.00     0.030 C 
HETATM    8  C22 UNL     1      18.235 -18.599  26.318  1.00  0.00     0.030 C 
HETATM    9  C23 UNL     1      18.945 -18.030  25.111  1.00  0.00     0.246 C 
BRANCH   5  10
HETATM   10  C5  UNL     1      20.753 -16.536  24.748  1.00  0.00     0.297 C 
BRANCH  10  11
HETATM   11  N2  UNL     1      20.207 -16.180  23.493  1.00  0.00    -0.316 N 
HETATM   12  C6  UNL     1      20.365 -14.972  22.785  1.00  0.00     0.227 C 
HETATM   13  O1  UNL     1      21.046 -14.044  23.265  1.00  0.00    -0.273 OA
ATOM     14  H2  UNL     1      19.627 -16.888  23.043  1.00  0.00     0.169 HD
BRANCH  12  15
HETATM   15  C7  UNL     1      19.741 -14.740  21.458  1.00  0.00     0.093 C 
HETATM   16  C8  UNL     1      20.780 -14.454  20.390  1.00  0.00     0.021 C 
HETATM   17  C9  UNL     1      19.904 -13.672  19.407  1.00  0.00     0.008 C 
HETATM   18  C10 UNL     1      20.720 -12.803  18.491  1.00  0.00     0.006 C 
HETATM   19  C13 UNL     1      19.225 -12.702  20.311  1.00  0.00     0.040 C 
HETATM   20  C11 UNL     1      21.188 -11.680  19.363  1.00  0.00     0.002 C 
HETATM   21  C12 UNL     1      20.291 -11.669  20.580  1.00  0.00     0.024 C 
HETATM   22  C17 UNL     1      18.880 -13.507  21.529  1.00  0.00     0.112 C 
BRANCH  19  23
HETATM   23  C14 UNL     1      18.065 -12.115  19.642  1.00  0.00    -0.094 C 
HETATM   24  C15 UNL     1      17.114 -11.659  19.092  1.00  0.00    -0.095 C 
BRANCH  24  25
HETATM   25  C16 UNL     1      15.926 -11.111  18.390  1.00  0.00     0.178 C 
HETATM   26 BR1  UNL     1      14.384 -11.686  19.377  1.00  0.00    -0.083 Br
ENDBRANCH  24  25
ENDBRANCH  19  23
BRANCH  22  27
HETATM   27  C18 UNL     1      17.435 -13.785  21.613  1.00  0.00     0.224 C 
HETATM   28  O2  UNL     1      16.686 -13.014  22.306  1.00  0.00    -0.273 OA
HETATM   29  N3  UNL     1      16.794 -14.865  20.973  1.00  0.00    -0.365 N 
HETATM   30  C19 UNL     1      15.358 -15.088  21.091  1.00  0.00     0.149 C 
ATOM     31  H3  UNL     1      17.351 -15.509  20.411  1.00  0.00     0.161 HD
ENDBRANCH  22  27
ENDBRANCH  12  15
ENDBRANCH  10  11
ENDBRANCH   5  10
ENDBRANCH   4   5
ENDBRANCH   3   4
TORSDOF 8
ENDMDL
MODEL 5
REMARK VINA RESULT: -7.076534187      2.456      3.538
REMARK  8 active torsions:
REMARK  status: ('A' for Active; 'I' for Inactive)
REMARK    1  A    between atoms: C3_3  and  C4_4 
REMARK    2  A    between atoms: C4_4  and  N1_5 
REMARK    3  A    between atoms: N1_5  and  C5_6 
REMARK    4  A    between atoms: C5_6  and  N2_7 
REMARK       I    between atoms: N2_7  and  C6_9 
REMARK    5  A    between atoms: C6_9  and  C7_11 
REMARK    6  A    between atoms: C13_17  and  C14_18 
REMARK    7  A    between atoms: C15_19  and  C16_20 
REMARK    8  A    between atoms: C17_22  and  C18_23 
REMARK       I    between atoms: C18_23  and  N3_25 
ROOT
HETATM    1  C1  UNL     1      20.907 -12.007  17.308  1.00  0.00     0.112 C 
HETATM    2  C2  UNL     1      20.871 -12.302  18.740  1.00  0.00    -0.109 C 
HETATM    3  C3  UNL     1      20.821 -12.539  19.944  1.00  0.00    -0.079 C 
ENDROOT
BRANCH   3   4
HETATM    4  C4  UNL     1      20.753 -12.795  21.376  1.00  0.00     0.337 C 
BRANCH   4   5
HETATM    5  N1  UNL     1      19.452 -13.350  21.719  1.00  0.00    -0.023 N 
HETATM    6  C20 UNL     1      19.336 -14.599  21.045  1.00  0.00     0.246 C 
HETATM    7  C21 UNL     1      19.960 -15.634  21.984  1.00  0.00     0.030 C 
HETATM    8  C22 UNL     1      20.426 -14.829  23.191  1.00  0.00     0.030 C 
HETATM    9  C23 UNL     1      19.412 -13.708  23.139  1.00  0.00     0.246 C 
BRANCH   5  10
HETATM   10  C5  UNL     1      18.443 -12.367  21.438  1.00  0.00     0.297 C 
BRANCH  10  11
HETATM   11  N2  UNL     1      17.566 -12.591  20.352  1.00  0.00    -0.316 N 
HETATM   12  C6  UNL     1      16.731 -11.662  19.701  1.00  0.00     0.227 C 
HETATM   13  O1  UNL     1      16.693 -10.473  20.080  1.00  0.00    -0.273 OA
ATOM     14  H2  UNL     1      17.533 -13.546  19.994  1.00  0.00     0.169 HD
BRANCH  12  15
HETATM   15  C7  UNL     1      15.865 -12.036  18.554  1.00  0.00     0.093 C 
HETATM   16  C8  UNL     1      14.756 -12.982  18.970  1.00  0.00     0.021 C 
HETATM   17  C9  UNL     1      14.488 -13.648  17.618  1.00  0.00     0.008 C 
HETATM   18  C10 UNL     1      13.815 -14.984  17.769  1.00  0.00     0.006 C 
HETATM   19  C13 UNL     1      15.866 -13.989  17.170  1.00  0.00     0.040 C 
HETATM   20  C11 UNL     1      14.891 -15.886  18.287  1.00  0.00     0.002 C 
HETATM   21  C12 UNL     1      16.210 -15.209  17.990  1.00  0.00     0.024 C 
HETATM   22  C17 UNL     1      16.688 -12.791  17.544  1.00  0.00     0.112 C 
BRANCH  19  23
HETATM   23  C14 UNL     1      15.873 -14.286  15.737  1.00  0.00    -0.094 C 
HETATM   24  C15 UNL     1      15.901 -14.529  14.574  1.00  0.00    -0.095 C 
BRANCH  24  25
HETATM   25  C16 UNL     1      15.961 -14.822  13.119  1.00  0.00     0.178 C 
HETATM   26 BR1  UNL     1      15.975 -13.130  12.214  1.00  0.00    -0.083 Br
ENDBRANCH  24  25
ENDBRANCH  19  23
BRANCH  22  27
HETATM   27  C18 UNL     1      17.072 -11.997  16.364  1.00  0.00     0.224 C 
HETATM   28  O2  UNL     1      18.184 -12.237  15.778  1.00  0.00    -0.273 OA
HETATM   29  N3  UNL     1      16.289 -10.962  15.812  1.00  0.00    -0.365 N 
HETATM   30  C19 UNL     1      16.721 -10.212  14.638  1.00  0.00     0.149 C 
ATOM     31  H3  UNL     1      15.395 -10.733  16.245  1.00  0.00     0.161 HD
ENDBRANCH  22  27
ENDBRANCH  12  15
ENDBRANCH  10  11
ENDBRANCH   5  10
ENDBRANCH   4   5
ENDBRANCH   3   4
TORSDOF 8
ENDMDL
