MODEL 1
REMARK VINA RESULT: -8.316595305      0.000      0.000
REMARK  8 active torsions:
REMARK  status: ('A' for Active; 'I' for Inactive)
REMARK    1  A    between atoms: C5_7  and  C6_8 
REMARK    2  A    between atoms: C6_8  and  C7_9 
REMARK    3  A    between atoms: C7_9  and  C8_10 
REMARK    4  A    between atoms: C9_11  and  C10_12 
REMARK    5  A    between atoms: C10_12  and  N2_13 
REMARK    6  A    between atoms: N2_13  and  C11_16 
REMARK    7  A    between atoms: C11_16  and  C12_17 
REMARK    8  A    between atoms: C12_17  and  C13_18 
ROOT
HETATM    1  C11 UNL     1      16.531 -11.094  19.704  1.00  0.00     0.234 C 
ENDROOT
BRANCH   1   2
HETATM    2  N2  UNL     1      16.322 -10.982  18.251  1.00  0.00    -0.065 N 
ATOM      3  H22 UNL     1      17.210 -11.062  17.754  1.00  0.00     0.278 HD
ATOM      4  H21 UNL     1      16.070 -10.026  17.998  1.00  0.00     0.278 HD
BRANCH   2   5
HETATM    5  C10 UNL     1      15.374 -11.903  17.731  1.00  0.00     0.325 C 
BRANCH   5   6
HETATM    6  C9  UNL     1      14.291 -12.166  18.723  1.00  0.00    -0.079 C 
HETATM    7  C8  UNL     1      13.460 -12.373  19.553  1.00  0.00    -0.101 C 
BRANCH   7   8
HETATM    8  C7  UNL     1      12.497 -12.626  20.588  1.00  0.00     0.122 C 
BRANCH   8   9
HETATM    9  C6  UNL     1      13.012 -12.335  21.918  1.00  0.00    -0.001 C 
BRANCH   9  10
HETATM   10  C5  UNL     1      12.639 -11.333  22.702  1.00  0.00    -0.012 A 
HETATM   11  C2  UNL     1      13.158 -10.064  22.656  1.00  0.00     0.032 A 
HETATM   12  C1  UNL     1      14.081  -9.610  21.842  1.00  0.00     0.044 C 
HETATM   13  N1  UNL     1      12.526  -9.337  23.612  1.00  0.00    -0.366 N 
HETATM   14  C3  UNL     1      11.636 -10.099  24.251  1.00  0.00     0.089 A 
ATOM     15  H1  UNL     1      12.705  -8.352  23.813  1.00  0.00     0.165 HD
HETATM   16  C4  UNL     1      11.678 -11.364  23.704  1.00  0.00     0.030 A 
ENDBRANCH   9  10
ENDBRANCH   8   9
ENDBRANCH   7   8
ENDBRANCH   5   6
ENDBRANCH   2   5
ENDBRANCH   1   2
BRANCH   1  17
HETATM   17  C12 UNL     1      17.949 -11.504  19.867  1.00  0.00     0.039 C 
BRANCH  17  18
HETATM   18  C13 UNL     1      18.249 -12.755  20.615  1.00  0.00    -0.012 C 
HETATM   19  C14 UNL     1      17.893 -13.883  19.653  1.00  0.00     0.018 C 
HETATM   20  C15 UNL     1      17.390 -12.971  21.851  1.00  0.00     0.140 C 
HETATM   21  N3  UNL     1      17.683 -14.383  22.178  1.00  0.00    -0.306 N 
HETATM   22  C16 UNL     1      17.418 -15.747  22.304  1.00  0.00     0.324 A 
HETATM   23  C18 UNL     1      19.032 -14.624  22.654  1.00  0.00     0.120 A 
HETATM   24  O1  UNL     1      16.339 -16.401  22.148  1.00  0.00    -0.247 OA
HETATM   25  N4  UNL     1      18.765 -16.026  22.650  1.00  0.00    -0.311 N 
HETATM   26  C17 UNL     1      19.431 -17.286  22.881  1.00  0.00     0.157 C 
HETATM   27  C19 UNL     1      19.105 -14.166  24.123  1.00  0.00     0.064 C 
HETATM   28  C20 UNL     1      20.077 -14.048  21.777  1.00  0.00     0.011 C 
HETATM   29  C21 UNL     1      20.708 -15.083  20.876  1.00  0.00     0.020 C 
HETATM   30  C22 UNL     1      21.224 -13.611  22.714  1.00  0.00     0.020 C 
HETATM   31  C23 UNL     1      19.665 -12.792  21.045  1.00  0.00     0.079 C 
HETATM   32 BR1  UNL     1      20.777 -12.433  19.506  1.00  0.00    -0.089 Br
ENDBRANCH  17  18
ENDBRANCH   1  17
TORSDOF 8
ENDMDL
MODEL 2
REMARK VINA RESULT: -8.067042501      0.909      1.339
REMARK  8 active torsions:
REMARK  status: ('A' for Active; 'I' for Inactive)
REMARK    1  A    between atoms: C5_7  and  C6_8 
REMARK    2  A    between atoms: C6_8  and  C7_9 
REMARK    3  A    between atoms: C7_9  and  C8_10 
REMARK    4  A    between atoms: C9_11  and  C10_12 
REMARK    5  A    between atoms: C10_12  and  N2_13 
REMARK    6  A    between atoms: N2_13  and  C11_16 
REMARK    7  A    between atoms: C11_16  and  C12_17 
REMARK    8  A    between atoms: C12_17  and  C13_18 
ROOT
HETATM    1  C11 UNL     1      17.601 -11.886  18.304  1.00  0.00     0.234 C 
ENDROOT
BRANCH   1   2
HETATM    2  N2  UNL     1      16.349 -11.134  18.120  1.00  0.00    -0.065 N 
ATOM      3  H22 UNL     1      16.314 -10.719  17.188  1.00  0.00     0.278 HD
ATOM      4  H21 UNL     1      16.354 -10.285  18.686  1.00  0.00     0.278 HD
BRANCH   2   5
HETATM    5  C10 UNL     1      15.177 -11.895  18.372  1.00  0.00     0.325 C 
BRANCH   5   6
HETATM    6  C9  UNL     1      14.186 -11.099  19.153  1.00  0.00    -0.079 C 
HETATM    7  C8  UNL     1      13.429 -10.454  19.812  1.00  0.00    -0.101 C 
BRANCH   7   8
HETATM    8  C7  UNL     1      12.556  -9.673  20.642  1.00  0.00     0.122 C 
BRANCH   8   9
HETATM    9  C6  UNL     1      12.960  -9.673  22.041  1.00  0.00    -0.001 C 
BRANCH   9  10
HETATM   10  C5  UNL     1      12.320 -10.260  23.042  1.00  0.00    -0.012 A 
HETATM   11  C2  UNL     1      11.866  -9.621  24.167  1.00  0.00     0.032 A 
HETATM   12  C1  UNL     1      11.959  -8.343  24.449  1.00  0.00     0.044 C 
HETATM   13  N1  UNL     1      11.275 -10.558  24.951  1.00  0.00    -0.366 N 
HETATM   14  C3  UNL     1      11.342 -11.753  24.361  1.00  0.00     0.089 A 
ATOM     15  H1  UNL     1      10.842 -10.375  25.857  1.00  0.00     0.165 HD
HETATM   16  C4  UNL     1      11.993 -11.605  23.155  1.00  0.00     0.030 A 
ENDBRANCH   9  10
ENDBRANCH   8   9
ENDBRANCH   7   8
ENDBRANCH   5   6
ENDBRANCH   2   5
ENDBRANCH   1   2
BRANCH   1  17
HETATM   17  C12 UNL     1      17.963 -11.702  19.733  1.00  0.00     0.039 C 
BRANCH  17  18
HETATM   18  C13 UNL     1      18.267 -12.907  20.553  1.00  0.00    -0.012 C 
HETATM   19  C14 UNL     1      17.932 -14.090  19.653  1.00  0.00     0.018 C 
HETATM   20  C15 UNL     1      17.396 -13.060  21.791  1.00  0.00     0.140 C 
HETATM   21  N3  UNL     1      17.699 -14.448  22.200  1.00  0.00    -0.306 N 
HETATM   22  C16 UNL     1      17.444 -15.806  22.400  1.00  0.00     0.324 A 
HETATM   23  C18 UNL     1      19.044 -14.650  22.703  1.00  0.00     0.120 A 
HETATM   24  O1  UNL     1      16.374 -16.479  22.270  1.00  0.00    -0.247 OA
HETATM   25  N4  UNL     1      18.791 -16.052  22.775  1.00  0.00    -0.311 N 
HETATM   26  C17 UNL     1      19.465 -17.290  23.085  1.00  0.00     0.157 C 
HETATM   27  C19 UNL     1      19.096 -14.108  24.144  1.00  0.00     0.064 C 
HETATM   28  C20 UNL     1      20.093 -14.114  21.806  1.00  0.00     0.011 C 
HETATM   29  C21 UNL     1      20.744 -15.191  20.972  1.00  0.00     0.020 C 
HETATM   30  C22 UNL     1      21.225 -13.612  22.730  1.00  0.00     0.020 C 
HETATM   31  C23 UNL     1      19.678 -12.905  21.000  1.00  0.00     0.079 C 
HETATM   32 BR1  UNL     1      20.804 -12.622  19.456  1.00  0.00    -0.089 Br
ENDBRANCH  17  18
ENDBRANCH   1  17
TORSDOF 8
ENDMDL
MODEL 3
REMARK VINA RESULT: -8.016519033      2.604      6.370
REMARK  8 active torsions:
REMARK  status: ('A' for Active; 'I' for Inactive)
REMARK    1  A    between atoms: C5_7  and  C6_8 
REMARK    2  A    between atoms: C6_8  and  C7_9 
REMARK    3  A    between atoms: C7_9  and  C8_10 
REMARK    4  A    between atoms: C9_11  and  C10_12 
REMARK    5  A    between atoms: C10_12  and  N2_13 
REMARK    6  A    between atoms: N2_13  and  C11_16 
REMARK    7  A    between atoms: C11_16  and  C12_17 
REMARK    8  A    between atoms: C12_17  and  C13_18 
ROOT
HETATM    1  C11 UNL     1      17.876 -11.246  16.743  1.00  0.00     0.234 C 
ENDROOT
BRANCH   1   2
HETATM    2  N2  UNL     1      18.806 -12.387  16.749  1.00  0.00    -0.065 N 
ATOM      3  H22 UNL     1      18.745 -12.903  15.871  1.00  0.00     0.278 HD
ATOM      4  H21 UNL     1      18.484 -13.108  17.395  1.00  0.00     0.278 HD
BRANCH   2   5
HETATM    5  C10 UNL     1      20.152 -12.032  17.027  1.00  0.00     0.325 C 
BRANCH   5   6
HETATM    6  C9  UNL     1      20.504 -12.352  18.441  1.00  0.00    -0.079 C 
HETATM    7  C8  UNL     1      20.796 -12.560  19.579  1.00  0.00    -0.101 C 
BRANCH   7   8
HETATM    8  C7  UNL     1      21.162 -12.760  20.953  1.00  0.00     0.122 C 
BRANCH   8   9
HETATM    9  C6  UNL     1      20.792 -14.078  21.448  1.00  0.00    -0.001 C 
BRANCH   9  10
HETATM   10  C5  UNL     1      19.958 -14.335  22.445  1.00  0.00    -0.012 A 
HETATM   11  C2  UNL     1      19.020 -15.336  22.447  1.00  0.00     0.032 A 
HETATM   12  C1  UNL     1      18.790 -16.214  21.499  1.00  0.00     0.044 C 
HETATM   13  N1  UNL     1      18.365 -15.270  23.634  1.00  0.00    -0.366 N 
HETATM   14  C3  UNL     1      18.855 -14.271  24.370  1.00  0.00     0.089 A 
ATOM     15  H1  UNL     1      17.609 -15.893  23.920  1.00  0.00     0.165 HD
HETATM   16  C4  UNL     1      19.861 -13.659  23.654  1.00  0.00     0.030 A 
ENDBRANCH   9  10
ENDBRANCH   8   9
ENDBRANCH   7   8
ENDBRANCH   5   6
ENDBRANCH   2   5
ENDBRANCH   1   2
BRANCH   1  17
HETATM   17  C12 UNL     1      16.517 -11.846  16.761  1.00  0.00     0.039 C 
BRANCH  17  18
HETATM   18  C13 UNL     1      15.812 -11.977  18.066  1.00  0.00    -0.012 C 
HETATM   19  C14 UNL     1      14.477 -11.272  17.864  1.00  0.00     0.018 C 
HETATM   20  C15 UNL     1      16.493 -11.265  19.224  1.00  0.00     0.140 C 
HETATM   21  N3  UNL     1      15.439 -11.301  20.260  1.00  0.00    -0.306 N 
HETATM   22  C16 UNL     1      14.456 -10.778  21.102  1.00  0.00     0.324 A 
HETATM   23  C18 UNL     1      15.160 -12.621  20.791  1.00  0.00     0.120 A 
HETATM   24  O1  UNL     1      14.106  -9.577  21.324  1.00  0.00    -0.247 OA
HETATM   25  N4  UNL     1      14.079 -12.073  21.543  1.00  0.00    -0.311 N 
HETATM   26  C17 UNL     1      13.007 -12.488  22.417  1.00  0.00     0.157 C 
HETATM   27  C19 UNL     1      16.284 -12.982  21.780  1.00  0.00     0.064 C 
HETATM   28  C20 UNL     1      14.915 -13.636  19.740  1.00  0.00     0.011 C 
HETATM   29  C21 UNL     1      13.444 -13.914  19.540  1.00  0.00     0.020 C 
HETATM   30  C22 UNL     1      15.480 -14.963  20.294  1.00  0.00     0.020 C 
HETATM   31  C23 UNL     1      15.659 -13.400  18.447  1.00  0.00     0.079 C 
HETATM   32 BR1  UNL     1      14.875 -14.348  16.957  1.00  0.00    -0.089 Br
ENDBRANCH  17  18
ENDBRANCH   1  17
TORSDOF 8
ENDMDL
MODEL 4
REMARK VINA RESULT: -7.958840742      2.764      6.938
REMARK  8 active torsions:
REMARK  status: ('A' for Active; 'I' for Inactive)
REMARK    1  A    between atoms: C5_7  and  C6_8 
REMARK    2  A    between atoms: C6_8  and  C7_9 
REMARK    3  A    between atoms: C7_9  and  C8_10 
REMARK    4  A    between atoms: C9_11  and  C10_12 
REMARK    5  A    between atoms: C10_12  and  N2_13 
REMARK    6  A    between atoms: N2_13  and  C11_16 
REMARK    7  A    between atoms: C11_16  and  C12_17 
REMARK    8  A    between atoms: C12_17  and  C13_18 
ROOT
HETATM    1  C11 UNL     1      19.130 -11.595  17.311  1.00  0.00     0.234 C 
ENDROOT
BRANCH   1   2
HETATM    2  N2  UNL     1      20.301 -12.431  17.623  1.00  0.00    -0.065 N 
ATOM      3  H22 UNL     1      20.825 -12.645  16.773  1.00  0.00     0.278 HD
ATOM      4  H21 UNL     1      20.009 -13.373  17.886  1.00  0.00     0.278 HD
BRANCH   2   5
HETATM    5  C10 UNL     1      21.157 -11.879  18.612  1.00  0.00     0.325 C 
BRANCH   5   6
HETATM    6  C9  UNL     1      20.905 -12.505  19.942  1.00  0.00    -0.079 C 
HETATM    7  C8  UNL     1      20.659 -13.023  20.988  1.00  0.00    -0.101 C 
BRANCH   7   8
HETATM    8  C7  UNL     1      20.316 -13.660  22.229  1.00  0.00     0.122 C 
BRANCH   8   9
HETATM    9  C6  UNL     1      21.485 -14.026  23.015  1.00  0.00    -0.001 C 
BRANCH   9  10
HETATM   10  C5  UNL     1      21.674 -13.775  24.303  1.00  0.00    -0.012 A 
HETATM   11  C2  UNL     1      22.891 -13.779  24.934  1.00  0.00     0.032 A 
HETATM   12  C1  UNL     1      24.066 -14.005  24.398  1.00  0.00     0.044 C 
HETATM   13  N1  UNL     1      22.667 -13.485  26.241  1.00  0.00    -0.366 N 
HETATM   14  C3  UNL     1      21.362 -13.299  26.449  1.00  0.00     0.089 A 
ATOM     15  H1  UNL     1      23.390 -13.416  26.958  1.00  0.00     0.165 HD
HETATM   16  C4  UNL     1      20.704 -13.473  25.249  1.00  0.00     0.030 A 
ENDBRANCH   9  10
ENDBRANCH   8   9
ENDBRANCH   7   8
ENDBRANCH   5   6
ENDBRANCH   2   5
ENDBRANCH   1   2
BRANCH   1  17
HETATM   17  C12 UNL     1      18.010 -12.549  17.105  1.00  0.00     0.039 C 
BRANCH  17  18
HETATM   18  C13 UNL     1      17.053 -12.778  18.222  1.00  0.00    -0.012 C 
HETATM   19  C14 UNL     1      17.079 -11.488  19.033  1.00  0.00     0.018 C 
HETATM   20  C15 UNL     1      17.459 -13.886  19.181  1.00  0.00     0.140 C 
HETATM   21  N3  UNL     1      16.526 -13.665  20.307  1.00  0.00    -0.306 N 
HETATM   22  C16 UNL     1      16.146 -13.297  21.599  1.00  0.00     0.324 A 
HETATM   23  C18 UNL     1      15.139 -13.964  20.009  1.00  0.00     0.120 A 
HETATM   24  O1  UNL     1      16.844 -12.959  22.606  1.00  0.00    -0.247 OA
HETATM   25  N4  UNL     1      14.771 -13.462  21.292  1.00  0.00    -0.311 N 
HETATM   26  C17 UNL     1      13.596 -13.192  22.087  1.00  0.00     0.157 C 
HETATM   27  C19 UNL     1      14.968 -15.495  20.037  1.00  0.00     0.064 C 
HETATM   28  C20 UNL     1      14.650 -13.314  18.771  1.00  0.00     0.011 C 
HETATM   29  C21 UNL     1      13.837 -12.073  19.055  1.00  0.00     0.020 C 
HETATM   30  C22 UNL     1      13.637 -14.298  18.147  1.00  0.00     0.020 C 
HETATM   31  C23 UNL     1      15.704 -13.106  17.708  1.00  0.00     0.079 C 
HETATM   32 BR1  UNL     1      15.200 -11.758  16.419  1.00  0.00    -0.089 Br
ENDBRANCH  17  18
ENDBRANCH   1  17
TORSDOF 8
ENDMDL
MODEL 5
REMARK VINA RESULT: -7.949659508      2.780      6.550
REMARK  8 active torsions:
REMARK  status: ('A' for Active; 'I' for Inactive)
REMARK    1  A    between atoms: C5_7  and  C6_8 
REMARK    2  A    between atoms: C6_8  and  C7_9 
REMARK    3  A    between atoms: C7_9  and  C8_10 
REMARK    4  A    between atoms: C9_11  and  C10_12 
REMARK    5  A    between atoms: C10_12  and  N2_13 
REMARK    6  A    between atoms: N2_13  and  C11_16 
REMARK    7  A    between atoms: C11_16  and  C12_17 
REMARK    8  A    between atoms: C12_17  and  C13_18 
ROOT
HETATM    1  C11 UNL     1      18.373 -11.416  16.723  1.00  0.00     0.234 C 
ENDROOT
BRANCH   1   2
HETATM    2  N2  UNL     1      19.582 -12.239  16.558  1.00  0.00    -0.065 N 
ATOM      3  H22 UNL     1      19.873 -12.257  15.580  1.00  0.00     0.278 HD
ATOM      4  H21 UNL     1      19.364 -13.227  16.691  1.00  0.00     0.278 HD
BRANCH   2   5
HETATM    5  C10 UNL     1      20.664 -11.850  17.392  1.00  0.00     0.325 C 
BRANCH   5   6
HETATM    6  C9  UNL     1      20.648 -12.616  18.672  1.00  0.00    -0.079 C 
HETATM    7  C8  UNL     1      20.611 -13.265  19.672  1.00  0.00    -0.101 C 
BRANCH   7   8
HETATM    8  C7  UNL     1      20.535 -14.081  20.851  1.00  0.00     0.122 C 
BRANCH   8   9
HETATM    9  C6  UNL     1      21.238 -13.498  21.985  1.00  0.00    -0.001 C 
BRANCH   9  10
HETATM   10  C5  UNL     1      20.998 -13.741  23.266  1.00  0.00    -0.012 A 
HETATM   11  C2  UNL     1      21.958 -13.985  24.213  1.00  0.00     0.032 A 
HETATM   12  C1  UNL     1      23.258 -14.007  24.043  1.00  0.00     0.044 C 
HETATM   13  N1  UNL     1      21.317 -14.191  25.392  1.00  0.00    -0.366 N 
HETATM   14  C3  UNL     1      19.998 -14.085  25.218  1.00  0.00     0.089 A 
ATOM     15  H1  UNL     1      21.775 -14.396  26.280  1.00  0.00     0.165 HD
HETATM   16  C4  UNL     1      19.759 -13.801  23.890  1.00  0.00     0.030 A 
ENDBRANCH   9  10
ENDBRANCH   8   9
ENDBRANCH   7   8
ENDBRANCH   5   6
ENDBRANCH   2   5
ENDBRANCH   1   2
BRANCH   1  17
HETATM   17  C12 UNL     1      17.247 -12.382  16.797  1.00  0.00     0.039 C 
BRANCH  17  18
HETATM   18  C13 UNL     1      16.465 -12.473  18.060  1.00  0.00    -0.012 C 
HETATM   19  C14 UNL     1      15.149 -11.767  17.759  1.00  0.00     0.018 C 
HETATM   20  C15 UNL     1      17.081 -11.731  19.236  1.00  0.00     0.140 C 
HETATM   21  N3  UNL     1      15.968 -11.732  20.208  1.00  0.00    -0.306 N 
HETATM   22  C16 UNL     1      14.940 -11.180  20.975  1.00  0.00     0.324 A 
HETATM   23  C18 UNL     1      15.648 -13.035  20.758  1.00  0.00     0.120 A 
HETATM   24  O1  UNL     1      14.584  -9.972  21.142  1.00  0.00    -0.247 OA
HETATM   25  N4  UNL     1      14.528 -12.460  21.429  1.00  0.00    -0.311 N 
HETATM   26  C17 UNL     1      13.404 -12.845  22.250  1.00  0.00     0.157 C 
HETATM   27  C19 UNL     1      16.709 -13.373  21.823  1.00  0.00     0.064 C 
HETATM   28  C20 UNL     1      15.459 -14.079  19.725  1.00  0.00     0.011 C 
HETATM   29  C21 UNL     1      14.002 -14.355  19.445  1.00  0.00     0.020 C 
HETATM   30  C22 UNL     1      15.983 -15.392  20.348  1.00  0.00     0.020 C 
HETATM   31  C23 UNL     1      16.281 -13.883  18.472  1.00  0.00     0.079 C 
HETATM   32 BR1  UNL     1      15.580 -14.869  16.965  1.00  0.00    -0.089 Br
ENDBRANCH  17  18
ENDBRANCH   1  17
TORSDOF 8
ENDMDL
