MODEL 1
REMARK VINA RESULT: -7.966922472      0.000      0.000
REMARK  6 active torsions:
REMARK  status: ('A' for Active; 'I' for Inactive)
REMARK    1  A    between atoms: C3_5  and  C4_6 
REMARK    2  A    between atoms: C4_6  and  C5_10 
REMARK       I    between atoms: C5_10  and  N3_12 
REMARK    3  A    between atoms: N4_16  and  C10_18 
REMARK    4  A    between atoms: C10_18  and  C11_19 
REMARK    5  A    between atoms: C12_20  and  C13_21 
REMARK    6  A    between atoms: C13_21  and  N5_22 
ROOT
HETATM    1  C5  UNL     1      14.507 -12.076  18.957  1.00  0.00     0.272 C 
HETATM    2  O1  UNL     1      14.027 -13.106  18.343  1.00  0.00    -0.266 OA
HETATM    3  N3  UNL     1      15.873 -12.116  19.272  1.00  0.00    -0.345 N 
HETATM    4  C6  UNL     1      16.440 -10.985  19.962  1.00  0.00     0.128 C 
HETATM    5  C7  UNL     1      17.943 -11.343  20.185  1.00  0.00     0.048 C 
HETATM    6  C8  UNL     1      17.939 -12.432  21.225  1.00  0.00     0.240 C 
HETATM    7  N4  UNL     1      18.156 -13.750  20.679  1.00  0.00    -0.059 N 
HETATM    8  C9  UNL     1      19.350 -13.868  19.904  1.00  0.00     0.273 C 
HETATM    9  C18 UNL     1      16.970 -14.202  19.985  1.00  0.00     0.257 C 
HETATM   10  C19 UNL     1      16.571 -13.351  18.840  1.00  0.00     0.154 C 
ENDROOT
BRANCH   1  11
HETATM   11  C4  UNL     1      13.642 -10.967  19.281  1.00  0.00     0.121 C 
HETATM   12  N2  UNL     1      13.320 -10.077  18.410  1.00  0.00    -0.393 N 
ATOM     13  H22 UNL     1      12.708  -9.293  18.639  1.00  0.00     0.156 HD
ATOM     14  H21 UNL     1      13.713 -10.201  17.477  1.00  0.00     0.156 HD
BRANCH  11  15
HETATM   15  C3  UNL     1      13.069 -10.785  20.642  1.00  0.00     0.066 A 
HETATM   16  N1  UNL     1      12.365 -11.716  21.326  1.00  0.00    -0.357 N 
HETATM   17  C2  UNL     1      11.992 -11.237  22.520  1.00  0.00     0.023 A 
ATOM     18  H1  UNL     1      12.149 -12.651  20.981  1.00  0.00     0.166 HD
HETATM   19  C1  UNL     1      11.198 -11.956  23.572  1.00  0.00     0.069 C 
HETATM   20  C21 UNL     1      12.447  -9.956  22.658  1.00  0.00     0.035 A 
HETATM   21  C20 UNL     1      13.128  -9.691  21.453  1.00  0.00     0.053 A 
HETATM   22 BR1  UNL     1      12.248  -8.741  24.117  1.00  0.00    -0.049 Br
ENDBRANCH  11  15
ENDBRANCH   1  11
BRANCH   7  23
HETATM   23  C10 UNL     1      18.306 -14.652  21.827  1.00  0.00     0.330 C 
BRANCH  23  24
HETATM   24  C11 UNL     1      19.606 -14.475  22.464  1.00  0.00    -0.077 C 
HETATM   25  C12 UNL     1      20.688 -14.327  23.018  1.00  0.00    -0.077 C 
BRANCH  25  26
HETATM   26  C13 UNL     1      21.967 -14.163  23.697  1.00  0.00     0.330 C 
BRANCH  26  27
HETATM   27  N5  UNL     1      21.760 -14.124  25.111  1.00  0.00    -0.061 N 
HETATM   28  C14 UNL     1      21.675 -15.476  25.650  1.00  0.00     0.273 C 
HETATM   29  C15 UNL     1      22.738 -13.319  25.851  1.00  0.00     0.239 C 
HETATM   30  C16 UNL     1      21.604 -12.948  26.791  1.00  0.00     0.056 C 
HETATM   31  C17 UNL     1      20.725 -13.269  25.602  1.00  0.00     0.239 C 
ENDBRANCH  26  27
ENDBRANCH  25  26
ENDBRANCH  23  24
ENDBRANCH   7  23
TORSDOF 6
ENDMDL
MODEL 2
REMARK VINA RESULT: -7.602257004      2.755      7.687
REMARK  6 active torsions:
REMARK  status: ('A' for Active; 'I' for Inactive)
REMARK    1  A    between atoms: C3_5  and  C4_6 
REMARK    2  A    between atoms: C4_6  and  C5_10 
REMARK       I    between atoms: C5_10  and  N3_12 
REMARK    3  A    between atoms: N4_16  and  C10_18 
REMARK    4  A    between atoms: C10_18  and  C11_19 
REMARK    5  A    between atoms: C12_20  and  C13_21 
REMARK    6  A    between atoms: C13_21  and  N5_22 
ROOT
HETATM    1  C5  UNL     1      18.533 -12.920  20.802  1.00  0.00     0.272 C 
HETATM    2  O1  UNL     1      19.333 -11.922  20.619  1.00  0.00    -0.266 OA
HETATM    3  N3  UNL     1      17.824 -13.366  19.677  1.00  0.00    -0.345 N 
HETATM    4  C6  UNL     1      16.919 -14.475  19.846  1.00  0.00     0.128 C 
HETATM    5  C7  UNL     1      16.278 -14.708  18.443  1.00  0.00     0.048 C 
HETATM    6  C8  UNL     1      15.365 -13.530  18.225  1.00  0.00     0.240 C 
HETATM    7  N4  UNL     1      15.908 -12.537  17.332  1.00  0.00    -0.059 N 
HETATM    8  C9  UNL     1      16.292 -13.053  16.055  1.00  0.00     0.273 C 
HETATM    9  C18 UNL     1      16.957 -11.792  17.993  1.00  0.00     0.257 C 
HETATM   10  C19 UNL     1      18.109 -12.617  18.430  1.00  0.00     0.154 C 
ENDROOT
BRANCH   1  11
HETATM   11  C4  UNL     1      18.410 -13.510  22.113  1.00  0.00     0.121 C 
HETATM   12  N2  UNL     1      17.303 -14.012  22.533  1.00  0.00    -0.393 N 
ATOM     13  H22 UNL     1      17.217 -14.430  23.460  1.00  0.00     0.156 HD
ATOM     14  H21 UNL     1      16.518 -13.968  21.884  1.00  0.00     0.156 HD
BRANCH  11  15
HETATM   15  C3  UNL     1      19.557 -13.576  23.060  1.00  0.00     0.066 A 
HETATM   16  N1  UNL     1      20.839 -13.843  22.719  1.00  0.00    -0.357 N 
HETATM   17  C2  UNL     1      21.624 -13.828  23.805  1.00  0.00     0.023 A 
ATOM     18  H1  UNL     1      21.162 -14.030  21.770  1.00  0.00     0.166 HD
HETATM   19  C1  UNL     1      23.104 -14.077  23.850  1.00  0.00     0.069 C 
HETATM   20  C21 UNL     1      20.869 -13.545  24.907  1.00  0.00     0.035 A 
HETATM   21  C20 UNL     1      19.560 -13.390  24.409  1.00  0.00     0.053 A 
HETATM   22 BR1  UNL     1      21.394 -13.382  26.736  1.00  0.00    -0.049 Br
ENDBRANCH  11  15
ENDBRANCH   1  11
BRANCH   7  23
HETATM   23  C10 UNL     1      14.834 -11.568  17.088  1.00  0.00     0.330 C 
BRANCH  23  24
HETATM   24  C11 UNL     1      14.200 -11.166  18.338  1.00  0.00    -0.077 C 
HETATM   25  C12 UNL     1      13.649 -10.828  19.379  1.00  0.00    -0.077 C 
BRANCH  25  26
HETATM   26  C13 UNL     1      12.971 -10.437  20.608  1.00  0.00     0.330 C 
BRANCH  26  27
HETATM   27  N5  UNL     1      13.058 -11.496  21.564  1.00  0.00    -0.061 N 
HETATM   28  C14 UNL     1      12.457 -11.090  22.829  1.00  0.00     0.273 C 
HETATM   29  C15 UNL     1      12.513 -12.779  21.107  1.00  0.00     0.239 C 
HETATM   30  C16 UNL     1      13.609 -13.445  21.920  1.00  0.00     0.056 C 
HETATM   31  C17 UNL     1      14.329 -12.128  21.734  1.00  0.00     0.239 C 
ENDBRANCH  26  27
ENDBRANCH  25  26
ENDBRANCH  23  24
ENDBRANCH   7  23
TORSDOF 6
ENDMDL
MODEL 3
REMARK VINA RESULT: -7.508120387      3.369      4.750
REMARK  6 active torsions:
REMARK  status: ('A' for Active; 'I' for Inactive)
REMARK    1  A    between atoms: C3_5  and  C4_6 
REMARK    2  A    between atoms: C4_6  and  C5_10 
REMARK       I    between atoms: C5_10  and  N3_12 
REMARK    3  A    between atoms: N4_16  and  C10_18 
REMARK    4  A    between atoms: C10_18  and  C11_19 
REMARK    5  A    between atoms: C12_20  and  C13_21 
REMARK    6  A    between atoms: C13_21  and  N5_22 
ROOT
HETATM    1  C5  UNL     1      15.922 -11.398  19.316  1.00  0.00     0.272 C 
HETATM    2  O1  UNL     1      16.585 -10.340  19.646  1.00  0.00    -0.266 OA
HETATM    3  N3  UNL     1      16.115 -12.532  20.119  1.00  0.00    -0.345 N 
HETATM    4  C6  UNL     1      15.395 -13.732  19.776  1.00  0.00     0.128 C 
HETATM    5  C7  UNL     1      15.839 -14.799  20.826  1.00  0.00     0.048 C 
HETATM    6  C8  UNL     1      17.266 -15.126  20.477  1.00  0.00     0.240 C 
HETATM    7  N4  UNL     1      18.230 -14.500  21.348  1.00  0.00    -0.059 N 
HETATM    8  C9  UNL     1      18.028 -14.781  22.735  1.00  0.00     0.273 C 
HETATM    9  C18 UNL     1      18.325 -13.087  21.054  1.00  0.00     0.257 C 
HETATM   10  C19 UNL     1      17.060 -12.338  21.244  1.00  0.00     0.154 C 
ENDROOT
BRANCH   1  11
HETATM   11  C4  UNL     1      15.042 -11.367  18.173  1.00  0.00     0.121 C 
HETATM   12  N2  UNL     1      13.797 -11.062  18.279  1.00  0.00    -0.393 N 
ATOM     13  H22 UNL     1      13.175 -11.039  17.471  1.00  0.00     0.156 HD
ATOM     14  H21 UNL     1      13.469 -10.844  19.220  1.00  0.00     0.156 HD
BRANCH  11  15
HETATM   15  C3  UNL     1      15.520 -11.684  16.800  1.00  0.00     0.066 A 
HETATM   16  N1  UNL     1      14.912 -11.304  15.652  1.00  0.00    -0.357 N 
HETATM   17  C2  UNL     1      15.597 -11.751  14.590  1.00  0.00     0.023 A 
ATOM     18  H1  UNL     1      14.054 -10.756  15.602  1.00  0.00     0.166 HD
HETATM   19  C1  UNL     1      15.252 -11.544  13.144  1.00  0.00     0.069 C 
HETATM   20  C21 UNL     1      16.692 -12.448  15.016  1.00  0.00     0.035 A 
HETATM   21  C20 UNL     1      16.622 -12.392  16.423  1.00  0.00     0.053 A 
HETATM   22 BR1  UNL     1      18.050 -13.325  14.001  1.00  0.00    -0.049 Br
ENDBRANCH  11  15
ENDBRANCH   1  11
BRANCH   7  23
HETATM   23  C10 UNL     1      19.537 -15.063  20.991  1.00  0.00     0.330 C 
BRANCH  23  24
HETATM   24  C11 UNL     1      20.547 -14.712  21.983  1.00  0.00    -0.077 C 
HETATM   25  C12 UNL     1      21.399 -14.400  22.805  1.00  0.00    -0.077 C 
BRANCH  25  26
HETATM   26  C13 UNL     1      22.411 -14.004  23.776  1.00  0.00     0.330 C 
BRANCH  26  27
HETATM   27  N5  UNL     1      21.878 -14.110  25.098  1.00  0.00    -0.061 N 
HETATM   28  C14 UNL     1      21.761 -15.510  25.488  1.00  0.00     0.273 C 
HETATM   29  C15 UNL     1      22.600 -13.336  26.114  1.00  0.00     0.239 C 
HETATM   30  C16 UNL     1      21.256 -13.108  26.783  1.00  0.00     0.056 C 
HETATM   31  C17 UNL     1      20.702 -13.354  25.397  1.00  0.00     0.239 C 
ENDBRANCH  26  27
ENDBRANCH  25  26
ENDBRANCH  23  24
ENDBRANCH   7  23
TORSDOF 6
ENDMDL
MODEL 4
REMARK VINA RESULT: -7.480057103      2.823      8.320
REMARK  6 active torsions:
REMARK  status: ('A' for Active; 'I' for Inactive)
REMARK    1  A    between atoms: C3_5  and  C4_6 
REMARK    2  A    between atoms: C4_6  and  C5_10 
REMARK       I    between atoms: C5_10  and  N3_12 
REMARK    3  A    between atoms: N4_16  and  C10_18 
REMARK    4  A    between atoms: C10_18  and  C11_19 
REMARK    5  A    between atoms: C12_20  and  C13_21 
REMARK    6  A    between atoms: C13_21  and  N5_22 
ROOT
HETATM    1  C5  UNL     1      19.398 -14.319  20.731  1.00  0.00     0.272 C 
HETATM    2  O1  UNL     1      20.218 -13.783  19.889  1.00  0.00    -0.266 OA
HETATM    3  N3  UNL     1      18.037 -14.039  20.542  1.00  0.00    -0.345 N 
HETATM    4  C6  UNL     1      17.095 -14.617  21.466  1.00  0.00     0.128 C 
HETATM    5  C7  UNL     1      15.693 -14.104  21.009  1.00  0.00     0.048 C 
HETATM    6  C8  UNL     1      15.678 -12.638  21.352  1.00  0.00     0.240 C 
HETATM    7  N4  UNL     1      15.883 -11.777  20.213  1.00  0.00    -0.059 N 
HETATM    8  C9  UNL     1      14.962 -12.001  19.144  1.00  0.00     0.273 C 
HETATM    9  C18 UNL     1      17.269 -11.820  19.800  1.00  0.00     0.257 C 
HETATM   10  C19 UNL     1      17.741 -13.162  19.384  1.00  0.00     0.154 C 
ENDROOT
BRANCH   1  11
HETATM   11  C4  UNL     1      19.904 -15.155  21.793  1.00  0.00     0.121 C 
HETATM   12  N2  UNL     1      19.657 -16.416  21.844  1.00  0.00    -0.393 N 
ATOM     13  H22 UNL     1      20.016 -17.007  22.595  1.00  0.00     0.156 HD
ATOM     14  H21 UNL     1      19.082 -16.790  21.090  1.00  0.00     0.156 HD
BRANCH  11  15
HETATM   15  C3  UNL     1      20.744 -14.610  22.894  1.00  0.00     0.066 A 
HETATM   16  N1  UNL     1      22.096 -14.547  22.890  1.00  0.00    -0.357 N 
HETATM   17  C2  UNL     1      22.543 -14.003  24.029  1.00  0.00     0.023 A 
ATOM     18  H1  UNL     1      22.691 -14.869  22.126  1.00  0.00     0.166 HD
HETATM   19  C1  UNL     1      23.974 -13.760  24.411  1.00  0.00     0.069 C 
HETATM   20  C21 UNL     1      21.481 -13.687  24.828  1.00  0.00     0.035 A 
HETATM   21  C20 UNL     1      20.350 -14.081  24.086  1.00  0.00     0.053 A 
HETATM   22 BR1  UNL     1      21.454 -12.891  26.564  1.00  0.00    -0.049 Br
ENDBRANCH  11  15
ENDBRANCH   1  11
BRANCH   7  23
HETATM   23  C10 UNL     1      15.657 -10.407  20.685  1.00  0.00     0.330 C 
BRANCH  23  24
HETATM   24  C11 UNL     1      14.327 -10.267  21.266  1.00  0.00    -0.077 C 
HETATM   25  C12 UNL     1      13.202 -10.164  21.740  1.00  0.00    -0.077 C 
BRANCH  25  26
HETATM   26  C13 UNL     1      11.859 -10.066  22.297  1.00  0.00     0.330 C 
BRANCH  26  27
HETATM   27  N5  UNL     1      11.925  -9.539  23.624  1.00  0.00    -0.061 N 
HETATM   28  C14 UNL     1      11.804 -10.612  24.604  1.00  0.00     0.273 C 
HETATM   29  C15 UNL     1      13.102  -8.705  23.895  1.00  0.00     0.239 C 
HETATM   30  C16 UNL     1      12.209  -7.873  24.797  1.00  0.00     0.056 C 
HETATM   31  C17 UNL     1      11.095  -8.416  23.930  1.00  0.00     0.239 C 
ENDBRANCH  26  27
ENDBRANCH  25  26
ENDBRANCH  23  24
ENDBRANCH   7  23
TORSDOF 6
ENDMDL
MODEL 5
REMARK VINA RESULT: -7.450457769      0.840      1.370
REMARK  6 active torsions:
REMARK  status: ('A' for Active; 'I' for Inactive)
REMARK    1  A    between atoms: C3_5  and  C4_6 
REMARK    2  A    between atoms: C4_6  and  C5_10 
REMARK       I    between atoms: C5_10  and  N3_12 
REMARK    3  A    between atoms: N4_16  and  C10_18 
REMARK    4  A    between atoms: C10_18  and  C11_19 
REMARK    5  A    between atoms: C12_20  and  C13_21 
REMARK    6  A    between atoms: C13_21  and  N5_22 
ROOT
HETATM    1  C5  UNL     1      14.369 -12.228  19.667  1.00  0.00     0.272 C 
HETATM    2  O1  UNL     1      13.786 -13.325  19.314  1.00  0.00    -0.266 OA
HETATM    3  N3  UNL     1      15.763 -12.280  19.816  1.00  0.00    -0.345 N 
HETATM    4  C6  UNL     1      16.444 -11.075  20.213  1.00  0.00     0.128 C 
HETATM    5  C7  UNL     1      17.953 -11.463  20.313  1.00  0.00     0.048 C 
HETATM    6  C8  UNL     1      18.054 -12.349  21.526  1.00  0.00     0.240 C 
HETATM    7  N4  UNL     1      18.162 -13.752  21.208  1.00  0.00    -0.059 N 
HETATM    8  C9  UNL     1      19.243 -14.065  20.328  1.00  0.00     0.273 C 
HETATM    9  C18 UNL     1      16.884 -14.260  20.758  1.00  0.00     0.257 C 
HETATM   10  C19 UNL     1      16.364 -13.605  19.534  1.00  0.00     0.154 C 
ENDROOT
BRANCH   1  11
HETATM   11  C4  UNL     1      13.584 -11.037  19.887  1.00  0.00     0.121 C 
HETATM   12  N2  UNL     1      13.308 -10.217  18.934  1.00  0.00    -0.393 N 
ATOM     13  H22 UNL     1      12.753  -9.376  19.090  1.00  0.00     0.156 HD
ATOM     14  H21 UNL     1      13.677 -10.460  18.015  1.00  0.00     0.156 HD
BRANCH  11  15
HETATM   15  C3  UNL     1      13.044 -10.683  21.228  1.00  0.00     0.066 A 
HETATM   16  N1  UNL     1      12.415 -11.537  22.068  1.00  0.00    -0.357 N 
HETATM   17  C2  UNL     1      12.053 -10.905  23.193  1.00  0.00     0.023 A 
ATOM     18  H1  UNL     1      12.241 -12.523  21.873  1.00  0.00     0.166 HD
HETATM   19  C1  UNL     1      11.334 -11.499  24.369  1.00  0.00     0.069 C 
HETATM   20  C21 UNL     1      12.441  -9.597  23.123  1.00  0.00     0.035 A 
HETATM   21  C20 UNL     1      13.068  -9.480  21.866  1.00  0.00     0.053 A 
HETATM   22 BR1  UNL     1      12.219  -8.190  24.395  1.00  0.00    -0.049 Br
ENDBRANCH  11  15
ENDBRANCH   1  11
BRANCH   7  23
HETATM   23  C10 UNL     1      18.434 -14.443  22.473  1.00  0.00     0.330 C 
BRANCH  23  24
HETATM   24  C11 UNL     1      19.813 -14.231  22.898  1.00  0.00    -0.077 C 
HETATM   25  C12 UNL     1      20.977 -14.054  23.235  1.00  0.00    -0.077 C 
BRANCH  25  26
HETATM   26  C13 UNL     1      22.367 -13.833  23.612  1.00  0.00     0.330 C 
BRANCH  26  27
HETATM   27  N5  UNL     1      22.669 -14.575  24.796  1.00  0.00    -0.061 N 
HETATM   28  C14 UNL     1      22.531 -13.729  25.976  1.00  0.00     0.273 C 
HETATM   29  C15 UNL     1      21.911 -15.823  24.947  1.00  0.00     0.239 C 
HETATM   30  C16 UNL     1      23.153 -16.408  25.596  1.00  0.00     0.056 C 
HETATM   31  C17 UNL     1      23.876 -15.341  24.804  1.00  0.00     0.239 C 
ENDBRANCH  26  27
ENDBRANCH  25  26
ENDBRANCH  23  24
ENDBRANCH   7  23
TORSDOF 6
ENDMDL
