MODEL 1
REMARK VINA RESULT: -7.574269937      0.000      0.000
REMARK  10 active torsions:
REMARK  status: ('A' for Active; 'I' for Inactive)
REMARK    1  A    between atoms: N1_2  and  C2_3 
REMARK    2  A    between atoms: C2_3  and  C3_4 
REMARK    3  A    between atoms: C5_6  and  N2_7 
REMARK       I    between atoms: N2_7  and  C6_9 
REMARK    4  A    between atoms: C11_16  and  O2_17 
REMARK    5  A    between atoms: C11_16  and  C12_19 
REMARK    6  A    between atoms: C12_19  and  C13_20 
REMARK    7  A    between atoms: C14_21  and  C15_22 
REMARK    8  A    between atoms: C15_22  and  C16_23 
REMARK    9  A    between atoms: C16_23  and  C17_24 
REMARK   10  A    between atoms: C17_24  and  N4_25 
ROOT
HETATM    1  C3  UNL     1      16.700 -12.880  20.064  1.00  0.00     0.009 C 
HETATM    2  C4  UNL     1      17.995 -12.820  19.933  1.00  0.00    -0.017 C 
HETATM    3  C5  UNL     1      18.397 -12.175  18.637  1.00  0.00     0.141 C 
HETATM    4  C7  UNL     1      19.751 -12.438  18.191  1.00  0.00     0.003 C 
HETATM    5  C8  UNL     1      20.889 -12.479  18.860  1.00  0.00    -0.002 C 
HETATM    6  C9  UNL     1      21.031 -12.254  20.297  1.00  0.00    -0.001 C 
HETATM    7  C10 UNL     1      20.127 -12.615  21.186  1.00  0.00     0.016 C 
HETATM    8  C11 UNL     1      18.800 -13.300  21.060  1.00  0.00     0.111 C 
ENDROOT
BRANCH   8   9
HETATM    9  O2  UNL     1      18.168 -13.042  22.276  1.00  0.00    -0.380 OA
ATOM     10  H2  UNL     1      18.798 -12.990  22.985  1.00  0.00     0.211 HD
ENDBRANCH   8   9
BRANCH   8  11
HETATM   11  C12 UNL     1      19.003 -14.791  20.947  1.00  0.00     0.141 C 
BRANCH  11  12
HETATM   12  C13 UNL     1      18.680 -15.444  22.247  1.00  0.00    -0.103 C 
HETATM   13  C14 UNL     1      18.436 -15.959  23.305  1.00  0.00    -0.106 C 
BRANCH  13  14
HETATM   14  C15 UNL     1      18.161 -16.598  24.602  1.00  0.00     0.095 C 
BRANCH  14  15
HETATM   15  C16 UNL     1      19.380 -16.502  25.491  1.00  0.00     0.040 C 
BRANCH  15  16
HETATM   16  C17 UNL     1      19.578 -15.084  25.996  1.00  0.00     0.238 C 
BRANCH  16  17
HETATM   17  N4  UNL     1      20.903 -14.620  25.724  1.00  0.00    -0.062 N 
HETATM   18  C18 UNL     1      20.801 -13.634  24.638  1.00  0.00     0.265 C 
HETATM   19  C19 UNL     1      22.134 -12.920  24.580  1.00  0.00     0.265 C 
HETATM   20  N5  UNL     1      23.179 -13.821  25.059  1.00  0.00    -0.066 N 
HETATM   21  C20 UNL     1      24.460 -13.278  24.705  1.00  0.00     0.272 C 
HETATM   22  C21 UNL     1      22.943 -15.138  24.503  1.00  0.00     0.265 C 
HETATM   23  C23 UNL     1      23.044 -13.923  26.497  1.00  0.00     0.265 C 
HETATM   24  C22 UNL     1      21.704 -15.707  25.196  1.00  0.00     0.265 C 
HETATM   25  C24 UNL     1      21.548 -13.961  26.820  1.00  0.00     0.265 C 
ENDBRANCH  16  17
ENDBRANCH  15  16
ENDBRANCH  14  15
ENDBRANCH  13  14
ENDBRANCH  11  12
ENDBRANCH   8  11
BRANCH   1  26
HETATM   26  C2  UNL     1      15.794 -13.396  21.081  1.00  0.00     0.265 C 
BRANCH  26  27
HETATM   27  N1  UNL     1      14.641 -12.464  21.168  1.00  0.00    -0.065 N 
HETATM   28  C1  UNL     1      13.483 -12.835  21.910  1.00  0.00     0.273 C 
HETATM   29  C25 UNL     1      14.994 -11.052  21.308  1.00  0.00     0.265 A 
HETATM   30  C26 UNL     1      14.518 -11.612  20.000  1.00  0.00     0.265 A 
ENDBRANCH  26  27
ENDBRANCH   1  26
BRANCH   3  31
HETATM   31  N2  UNL     1      17.501 -12.658  17.603  1.00  0.00    -0.334 N 
HETATM   32  C6  UNL     1      16.748 -11.771  16.780  1.00  0.00     0.329 C 
HETATM   33  N3  UNL     1      15.882 -12.258  15.778  1.00  0.00    -0.040 NA
HETATM   34  O1  UNL     1      16.867 -10.547  16.960  1.00  0.00    -0.251 OA
ATOM     35  H2  UNL     1      17.408 -13.664  17.460  1.00  0.00     0.164 HD
ENDBRANCH   3  31
TORSDOF 10
ENDMDL
MODEL 2
REMARK VINA RESULT: -7.519058619      0.837      1.490
REMARK  10 active torsions:
REMARK  status: ('A' for Active; 'I' for Inactive)
REMARK    1  A    between atoms: N1_2  and  C2_3 
REMARK    2  A    between atoms: C2_3  and  C3_4 
REMARK    3  A    between atoms: C5_6  and  N2_7 
REMARK       I    between atoms: N2_7  and  C6_9 
REMARK    4  A    between atoms: C11_16  and  O2_17 
REMARK    5  A    between atoms: C11_16  and  C12_19 
REMARK    6  A    between atoms: C12_19  and  C13_20 
REMARK    7  A    between atoms: C14_21  and  C15_22 
REMARK    8  A    between atoms: C15_22  and  C16_23 
REMARK    9  A    between atoms: C16_23  and  C17_24 
REMARK   10  A    between atoms: C17_24  and  N4_25 
ROOT
HETATM    1  C3  UNL     1      16.598 -12.380  19.453  1.00  0.00     0.009 C 
HETATM    2  C4  UNL     1      17.898 -12.455  19.513  1.00  0.00    -0.017 C 
HETATM    3  C5  UNL     1      18.547 -11.942  18.259  1.00  0.00     0.141 C 
HETATM    4  C7  UNL     1      19.915 -12.366  18.035  1.00  0.00     0.003 C 
HETATM    5  C8  UNL     1      20.936 -12.473  18.867  1.00  0.00    -0.002 C 
HETATM    6  C9  UNL     1      20.894 -12.165  20.295  1.00  0.00    -0.001 C 
HETATM    7  C10 UNL     1      19.839 -12.375  21.057  1.00  0.00     0.016 C 
HETATM    8  C11 UNL     1      18.478 -12.934  20.771  1.00  0.00     0.111 C 
ENDROOT
BRANCH   8   9
HETATM    9  O2  UNL     1      17.710 -12.534  21.864  1.00  0.00    -0.380 OA
ATOM     10  H2  UNL     1      18.251 -12.401  22.633  1.00  0.00     0.211 HD
ENDBRANCH   8   9
BRANCH   8  11
HETATM   11  C12 UNL     1      18.536 -14.442  20.768  1.00  0.00     0.141 C 
BRANCH  11  12
HETATM   12  C13 UNL     1      18.390 -14.954  22.161  1.00  0.00    -0.103 C 
HETATM   13  C14 UNL     1      18.286 -15.383  23.279  1.00  0.00    -0.106 C 
BRANCH  13  14
HETATM   14  C15 UNL     1      18.153 -15.930  24.638  1.00  0.00     0.095 C 
BRANCH  14  15
HETATM   15  C16 UNL     1      19.220 -15.345  25.536  1.00  0.00     0.040 C 
BRANCH  15  16
HETATM   16  C17 UNL     1      20.521 -16.119  25.415  1.00  0.00     0.238 C 
BRANCH  16  17
HETATM   17  N4  UNL     1      21.617 -15.244  25.132  1.00  0.00    -0.062 N 
HETATM   18  C18 UNL     1      22.851 -16.012  25.354  1.00  0.00     0.265 C 
HETATM   19  C19 UNL     1      23.976 -15.201  24.750  1.00  0.00     0.265 C 
HETATM   20  N5  UNL     1      23.621 -13.785  24.796  1.00  0.00    -0.066 N 
HETATM   21  C20 UNL     1      24.795 -13.001  24.532  1.00  0.00     0.272 C 
HETATM   22  C21 UNL     1      23.022 -13.502  26.085  1.00  0.00     0.265 C 
HETATM   23  C23 UNL     1      22.611 -13.553  23.785  1.00  0.00     0.265 C 
HETATM   24  C22 UNL     1      21.645 -14.165  26.101  1.00  0.00     0.265 C 
HETATM   25  C24 UNL     1      21.669 -14.760  23.787  1.00  0.00     0.265 C 
ENDBRANCH  16  17
ENDBRANCH  15  16
ENDBRANCH  14  15
ENDBRANCH  13  14
ENDBRANCH  11  12
ENDBRANCH   8  11
BRANCH   1  26
HETATM   26  C2  UNL     1      15.507 -12.735  20.349  1.00  0.00     0.265 C 
BRANCH  26  27
HETATM   27  N1  UNL     1      14.524 -11.622  20.321  1.00  0.00    -0.065 N 
HETATM   28  C1  UNL     1      13.787 -11.355  19.132  1.00  0.00     0.273 C 
HETATM   29  C25 UNL     1      13.736 -11.460  21.543  1.00  0.00     0.265 A 
HETATM   30  C26 UNL     1      14.875 -10.539  21.221  1.00  0.00     0.265 A 
ENDBRANCH  26  27
ENDBRANCH   1  26
BRANCH   3  31
HETATM   31  N2  UNL     1      17.762 -12.405  17.130  1.00  0.00    -0.334 N 
HETATM   32  C6  UNL     1      17.112 -11.502  16.241  1.00  0.00     0.329 C 
HETATM   33  N3  UNL     1      16.353 -11.969  15.146  1.00  0.00    -0.040 NA
HETATM   34  O1  UNL     1      17.225 -10.280  16.445  1.00  0.00    -0.251 OA
ATOM     35  H2  UNL     1      17.673 -13.408  16.968  1.00  0.00     0.164 HD
ENDBRANCH   3  31
TORSDOF 10
ENDMDL
MODEL 3
REMARK VINA RESULT: -7.509049251      0.089      1.022
REMARK  10 active torsions:
REMARK  status: ('A' for Active; 'I' for Inactive)
REMARK    1  A    between atoms: N1_2  and  C2_3 
REMARK    2  A    between atoms: C2_3  and  C3_4 
REMARK    3  A    between atoms: C5_6  and  N2_7 
REMARK       I    between atoms: N2_7  and  C6_9 
REMARK    4  A    between atoms: C11_16  and  O2_17 
REMARK    5  A    between atoms: C11_16  and  C12_19 
REMARK    6  A    between atoms: C12_19  and  C13_20 
REMARK    7  A    between atoms: C14_21  and  C15_22 
REMARK    8  A    between atoms: C15_22  and  C16_23 
REMARK    9  A    between atoms: C16_23  and  C17_24 
REMARK   10  A    between atoms: C17_24  and  N4_25 
ROOT
HETATM    1  C3  UNL     1      16.694 -12.905  20.086  1.00  0.00     0.009 C 
HETATM    2  C4  UNL     1      17.991 -12.840  19.971  1.00  0.00    -0.017 C 
HETATM    3  C5  UNL     1      18.406 -12.183  18.685  1.00  0.00     0.141 C 
HETATM    4  C7  UNL     1      19.766 -12.439  18.253  1.00  0.00     0.003 C 
HETATM    5  C8  UNL     1      20.897 -12.484  18.935  1.00  0.00    -0.002 C 
HETATM    6  C9  UNL     1      21.021 -12.271  20.376  1.00  0.00    -0.001 C 
HETATM    7  C10 UNL     1      20.107 -12.642  21.251  1.00  0.00     0.016 C 
HETATM    8  C11 UNL     1      18.784 -13.329  21.102  1.00  0.00     0.111 C 
ENDROOT
BRANCH   8   9
HETATM    9  O2  UNL     1      18.136 -13.083  22.314  1.00  0.00    -0.380 OA
ATOM     10  H2  UNL     1      17.410 -13.682  22.441  1.00  0.00     0.211 HD
ENDBRANCH   8   9
BRANCH   8  11
HETATM   11  C12 UNL     1      18.992 -14.818  20.979  1.00  0.00     0.141 C 
BRANCH  11  12
HETATM   12  C13 UNL     1      18.663 -15.482  22.272  1.00  0.00    -0.103 C 
HETATM   13  C14 UNL     1      18.389 -15.999  23.322  1.00  0.00    -0.106 C 
BRANCH  13  14
HETATM   14  C15 UNL     1      18.066 -16.613  24.620  1.00  0.00     0.095 C 
BRANCH  14  15
HETATM   15  C16 UNL     1      19.279 -16.576  25.523  1.00  0.00     0.040 C 
BRANCH  15  16
HETATM   16  C17 UNL     1      19.548 -15.166  26.020  1.00  0.00     0.238 C 
BRANCH  16  17
HETATM   17  N4  UNL     1      20.843 -14.715  25.615  1.00  0.00    -0.062 N 
HETATM   18  C18 UNL     1      21.495 -14.148  26.804  1.00  0.00     0.265 C 
HETATM   19  C19 UNL     1      22.956 -13.977  26.452  1.00  0.00     0.265 C 
HETATM   20  N5  UNL     1      23.078 -13.766  25.012  1.00  0.00    -0.066 N 
HETATM   21  C20 UNL     1      24.399 -13.284  24.721  1.00  0.00     0.272 C 
HETATM   22  C21 UNL     1      22.032 -12.857  24.589  1.00  0.00     0.265 C 
HETATM   23  C23 UNL     1      22.841 -15.038  24.362  1.00  0.00     0.265 C 
HETATM   24  C22 UNL     1      20.708 -13.616  24.678  1.00  0.00     0.265 C 
HETATM   25  C24 UNL     1      21.710 -15.740  25.118  1.00  0.00     0.265 C 
ENDBRANCH  16  17
ENDBRANCH  15  16
ENDBRANCH  14  15
ENDBRANCH  13  14
ENDBRANCH  11  12
ENDBRANCH   8  11
BRANCH   1  26
HETATM   26  C2  UNL     1      15.778 -13.432  21.088  1.00  0.00     0.265 C 
BRANCH  26  27
HETATM   27  N1  UNL     1      14.630 -12.495  21.181  1.00  0.00    -0.065 N 
HETATM   28  C1  UNL     1      13.468 -12.866  21.917  1.00  0.00     0.273 C 
HETATM   29  C25 UNL     1      14.991 -11.085  21.335  1.00  0.00     0.265 A 
HETATM   30  C26 UNL     1      14.513 -11.630  20.022  1.00  0.00     0.265 A 
ENDBRANCH  26  27
ENDBRANCH   1  26
BRANCH   3  31
HETATM   31  N2  UNL     1      17.524 -12.659  17.636  1.00  0.00    -0.334 N 
HETATM   32  C6  UNL     1      16.773 -11.768  16.818  1.00  0.00     0.329 C 
HETATM   33  N3  UNL     1      15.919 -12.247  15.801  1.00  0.00    -0.040 NA
HETATM   34  O1  UNL     1      16.881 -10.545  17.015  1.00  0.00    -0.251 OA
ATOM     35  H2  UNL     1      17.440 -13.664  17.480  1.00  0.00     0.164 HD
ENDBRANCH   3  31
TORSDOF 10
ENDMDL
MODEL 4
REMARK VINA RESULT: -7.505616238      2.204      8.026
REMARK  10 active torsions:
REMARK  status: ('A' for Active; 'I' for Inactive)
REMARK    1  A    between atoms: N1_2  and  C2_3 
REMARK    2  A    between atoms: C2_3  and  C3_4 
REMARK    3  A    between atoms: C5_6  and  N2_7 
REMARK       I    between atoms: N2_7  and  C6_9 
REMARK    4  A    between atoms: C11_16  and  O2_17 
REMARK    5  A    between atoms: C11_16  and  C12_19 
REMARK    6  A    between atoms: C12_19  and  C13_20 
REMARK    7  A    between atoms: C14_21  and  C15_22 
REMARK    8  A    between atoms: C15_22  and  C16_23 
REMARK    9  A    between atoms: C16_23  and  C17_24 
REMARK   10  A    between atoms: C17_24  and  N4_25 
ROOT
HETATM    1  C3  UNL     1      19.498 -14.733  22.916  1.00  0.00     0.009 C 
HETATM    2  C4  UNL     1      19.880 -13.948  21.949  1.00  0.00    -0.017 C 
HETATM    3  C5  UNL     1      21.277 -13.438  22.161  1.00  0.00     0.141 C 
HETATM    4  C7  UNL     1      21.640 -12.252  21.410  1.00  0.00     0.003 C 
HETATM    5  C8  UNL     1      21.395 -11.913  20.157  1.00  0.00    -0.002 C 
HETATM    6  C9  UNL     1      20.648 -12.723  19.196  1.00  0.00    -0.001 C 
HETATM    7  C10 UNL     1      19.626 -13.489  19.524  1.00  0.00     0.016 C 
HETATM    8  C11 UNL     1      18.950 -13.769  20.831  1.00  0.00     0.111 C 
ENDROOT
BRANCH   8   9
HETATM    9  O2  UNL     1      18.220 -14.934  20.593  1.00  0.00    -0.380 OA
ATOM     10  H2  UNL     1      18.197 -15.139  19.666  1.00  0.00     0.211 HD
ENDBRANCH   8   9
BRANCH   8  11
HETATM   11  C12 UNL     1      17.973 -12.663  21.148  1.00  0.00     0.141 C 
BRANCH  11  12
HETATM   12  C13 UNL     1      17.146 -12.361  19.945  1.00  0.00    -0.103 C 
HETATM   13  C14 UNL     1      16.479 -12.096  18.981  1.00  0.00    -0.106 C 
BRANCH  13  14
HETATM   14  C15 UNL     1      15.645 -11.761  17.816  1.00  0.00     0.095 C 
BRANCH  14  15
HETATM   15  C16 UNL     1      14.267 -11.339  18.273  1.00  0.00     0.040 C 
BRANCH  15  16
HETATM   16  C17 UNL     1      13.754 -12.251  19.374  1.00  0.00     0.238 C 
BRANCH  16  17
HETATM   17  N4  UNL     1      13.338 -11.497  20.516  1.00  0.00    -0.062 N 
HETATM   18  C18 UNL     1      12.198 -12.209  21.112  1.00  0.00     0.265 C 
HETATM   19  C19 UNL     1      11.977 -11.598  22.478  1.00  0.00     0.265 C 
HETATM   20  N5  UNL     1      12.428 -10.209  22.458  1.00  0.00    -0.066 N 
HETATM   21  C20 UNL     1      11.929  -9.540  23.626  1.00  0.00     0.272 C 
HETATM   22  C21 UNL     1      11.987  -9.600  21.218  1.00  0.00     0.265 C 
HETATM   23  C23 UNL     1      13.875 -10.218  22.450  1.00  0.00     0.265 C 
HETATM   24  C22 UNL     1      12.821 -10.211  20.092  1.00  0.00     0.265 C 
HETATM   25  C24 UNL     1      14.326 -11.367  21.544  1.00  0.00     0.265 C 
ENDBRANCH  16  17
ENDBRANCH  15  16
ENDBRANCH  14  15
ENDBRANCH  13  14
ENDBRANCH  11  12
ENDBRANCH   8  11
BRANCH   1  26
HETATM   26  C2  UNL     1      18.279 -15.471  23.218  1.00  0.00     0.265 C 
BRANCH  26  27
HETATM   27  N1  UNL     1      18.498 -16.192  24.498  1.00  0.00    -0.065 N 
HETATM   28  C1  UNL     1      17.683 -17.312  24.831  1.00  0.00     0.273 C 
HETATM   29  C25 UNL     1      19.899 -16.356  24.886  1.00  0.00     0.265 A 
HETATM   30  C26 UNL     1      19.021 -15.333  25.545  1.00  0.00     0.265 A 
ENDBRANCH  26  27
ENDBRANCH   1  26
BRANCH   3  31
HETATM   31  N2  UNL     1      21.426 -13.118  23.569  1.00  0.00    -0.334 N 
HETATM   32  C6  UNL     1      22.616 -13.419  24.291  1.00  0.00     0.329 C 
HETATM   33  N3  UNL     1      22.744 -13.100  25.660  1.00  0.00    -0.040 NA
HETATM   34  O1  UNL     1      23.553 -13.973  23.690  1.00  0.00    -0.251 OA
ATOM     35  H2  UNL     1      20.653 -12.664  24.056  1.00  0.00     0.164 HD
ENDBRANCH   3  31
TORSDOF 10
ENDMDL
MODEL 5
REMARK VINA RESULT: -7.489637791      2.212      7.917
REMARK  10 active torsions:
REMARK  status: ('A' for Active; 'I' for Inactive)
REMARK    1  A    between atoms: N1_2  and  C2_3 
REMARK    2  A    between atoms: C2_3  and  C3_4 
REMARK    3  A    between atoms: C5_6  and  N2_7 
REMARK       I    between atoms: N2_7  and  C6_9 
REMARK    4  A    between atoms: C11_16  and  O2_17 
REMARK    5  A    between atoms: C11_16  and  C12_19 
REMARK    6  A    between atoms: C12_19  and  C13_20 
REMARK    7  A    between atoms: C14_21  and  C15_22 
REMARK    8  A    between atoms: C15_22  and  C16_23 
REMARK    9  A    between atoms: C16_23  and  C17_24 
REMARK   10  A    between atoms: C17_24  and  N4_25 
ROOT
HETATM    1  C3  UNL     1      20.157 -13.176  23.050  1.00  0.00     0.009 C 
HETATM    2  C4  UNL     1      19.954 -14.099  23.948  1.00  0.00    -0.017 C 
HETATM    3  C5  UNL     1      21.118 -14.229  24.889  1.00  0.00     0.141 C 
HETATM    4  C7  UNL     1      21.198 -15.473  25.630  1.00  0.00     0.003 C 
HETATM    5  C8  UNL     1      20.261 -16.186  26.228  1.00  0.00    -0.002 C 
HETATM    6  C9  UNL     1      18.840 -15.844  26.268  1.00  0.00    -0.001 C 
HETATM    7  C10 UNL     1      18.203 -15.247  25.280  1.00  0.00     0.016 C 
HETATM    8  C11 UNL     1      18.650 -14.767  23.932  1.00  0.00     0.111 C 
ENDROOT
BRANCH   8   9
HETATM    9  O2  UNL     1      17.641 -13.890  23.533  1.00  0.00    -0.380 OA
ATOM     10  H2  UNL     1      16.788 -14.201  23.812  1.00  0.00     0.211 HD
ENDBRANCH   8   9
BRANCH   8  11
HETATM   11  C12 UNL     1      18.676 -15.922  22.961  1.00  0.00     0.141 C 
BRANCH  11  12
HETATM   12  C13 UNL     1      17.682 -15.688  21.874  1.00  0.00    -0.103 C 
HETATM   13  C14 UNL     1      16.892 -15.514  20.986  1.00  0.00    -0.106 C 
BRANCH  13  14
HETATM   14  C15 UNL     1      15.944 -15.297  19.882  1.00  0.00     0.095 C 
BRANCH  14  15
HETATM   15  C16 UNL     1      16.007 -13.856  19.426  1.00  0.00     0.040 C 
BRANCH  15  16
HETATM   16  C17 UNL     1      14.617 -13.310  19.147  1.00  0.00     0.238 C 
BRANCH  16  17
HETATM   17  N4  UNL     1      14.249 -12.321  20.112  1.00  0.00    -0.062 N 
HETATM   18  C18 UNL     1      13.210 -12.916  20.965  1.00  0.00     0.265 C 
HETATM   19  C19 UNL     1      13.062 -12.003  22.162  1.00  0.00     0.265 C 
HETATM   20  N5  UNL     1      13.420 -10.642  21.771  1.00  0.00    -0.066 N 
HETATM   21  C20 UNL     1      12.976  -9.733  22.790  1.00  0.00     0.272 C 
HETATM   22  C21 UNL     1      12.840 -10.370  20.471  1.00  0.00     0.265 C 
HETATM   23  C23 UNL     1      14.859 -10.591  21.628  1.00  0.00     0.265 C 
HETATM   24  C22 UNL     1      13.617 -11.198  19.447  1.00  0.00     0.265 C 
HETATM   25  C24 UNL     1      15.307 -11.904  20.981  1.00  0.00     0.265 C 
ENDBRANCH  16  17
ENDBRANCH  15  16
ENDBRANCH  14  15
ENDBRANCH  13  14
ENDBRANCH  11  12
ENDBRANCH   8  11
BRANCH   1  26
HETATM   26  C2  UNL     1      19.394 -12.654  21.926  1.00  0.00     0.265 C 
BRANCH  26  27
HETATM   27  N1  UNL     1      20.271 -12.705  20.727  1.00  0.00    -0.065 N 
HETATM   28  C1  UNL     1      21.327 -11.761  20.579  1.00  0.00     0.273 C 
HETATM   29  C25 UNL     1      20.625 -14.050  20.275  1.00  0.00     0.265 A 
HETATM   30  C26 UNL     1      19.593 -13.232  19.557  1.00  0.00     0.265 A 
ENDBRANCH  26  27
ENDBRANCH   1  26
BRANCH   3  31
HETATM   31  N2  UNL     1      22.337 -14.114  24.109  1.00  0.00    -0.334 N 
HETATM   32  C6  UNL     1      23.494 -13.452  24.610  1.00  0.00     0.329 C 
HETATM   33  N3  UNL     1      24.672 -13.349  23.839  1.00  0.00    -0.040 NA
HETATM   34  O1  UNL     1      23.453 -12.962  25.752  1.00  0.00    -0.251 OA
ATOM     35  H2  UNL     1      22.364 -14.518  23.173  1.00  0.00     0.164 HD
ENDBRANCH   3  31
TORSDOF 10
ENDMDL
