MODEL 1
REMARK VINA RESULT: -7.029858570      0.000      0.000
REMARK  1 active torsions:
REMARK  status: ('A' for Active; 'I' for Inactive)
REMARK    1  A    between atoms: C7_11  and  N2_12 
ROOT
HETATM    1  C1  UNL     1     -24.424  35.917  -3.731  1.00  0.00     0.050 C 
HETATM    2  C2  UNL     1     -23.250  35.204  -4.335  1.00  0.00    -0.038 A 
HETATM    3  C3  UNL     1     -23.165  35.237  -5.698  1.00  0.00     0.018 A 
HETATM    4 BR1  UNL     1     -24.444  36.124  -6.779  1.00  0.00    -0.051 Br
HETATM    5  C4  UNL     1     -22.112  34.600  -6.294  1.00  0.00     0.039 A 
HETATM    6  C5  UNL     1     -21.187  33.958  -5.504  1.00  0.00     0.023 A 
HETATM    7  S1  UNL     1     -19.841  33.139  -6.187  1.00  0.00    -0.051 SA
HETATM    8  C6  UNL     1     -18.837  32.422  -5.024  1.00  0.00     0.187 A 
HETATM    9  N1  UNL     1     -17.689  31.687  -5.035  1.00  0.00    -0.167 N 
ATOM     10  H1  UNL     1     -17.165  31.405  -5.863  1.00  0.00     0.186 HD
HETATM   11  C7  UNL     1     -17.371  31.403  -3.771  1.00  0.00     0.693 A 
HETATM   12  N3  UNL     1     -18.310  31.956  -3.002  1.00  0.00    -0.122 N 
ATOM     13  H3  UNL     1     -18.331  31.904  -1.984  1.00  0.00     0.206 HD
HETATM   14  N4  UNL     1     -19.228  32.592  -3.758  1.00  0.00    -0.207 N 
HETATM   15  C8  UNL     1     -20.324  33.268  -3.346  1.00  0.00     0.138 A 
HETATM   16  S2  UNL     1     -20.527  33.291  -1.697  1.00  0.00    -0.057 SA
HETATM   17  C9  UNL     1     -21.245  33.905  -4.105  1.00  0.00     0.028 A 
HETATM   18  C10 UNL     1     -22.327  34.559  -3.485  1.00  0.00    -0.040 A 
HETATM   19  C11 UNL     1     -22.535  34.601  -2.042  1.00  0.00     0.050 C 
ENDROOT
BRANCH  11  20
HETATM   20  N2  UNL     1     -16.335  30.714  -3.354  1.00  0.00    -0.233 N 
ATOM     21  H22 UNL     1     -15.787  30.056  -3.908  1.00  0.00     0.174 HD
ATOM     22  H21 UNL     1     -15.924  30.728  -2.420  1.00  0.00     0.174 HD
ENDBRANCH  11  20
TORSDOF 1
ENDMDL
MODEL 2
REMARK VINA RESULT: -7.011033715      2.076      3.218
REMARK  1 active torsions:
REMARK  status: ('A' for Active; 'I' for Inactive)
REMARK    1  A    between atoms: C7_11  and  N2_12 
ROOT
HETATM    1  C1  UNL     1     -25.344  35.564  -3.399  1.00  0.00     0.050 C 
HETATM    2  C2  UNL     1     -23.981  35.008  -3.106  1.00  0.00    -0.038 A 
HETATM    3  C3  UNL     1     -23.758  34.618  -1.816  1.00  0.00     0.018 A 
HETATM    4 BR1  UNL     1     -25.078  34.762  -0.463  1.00  0.00    -0.051 Br
HETATM    5  C4  UNL     1     -22.530  34.106  -1.500  1.00  0.00     0.039 A 
HETATM    6  C5  UNL     1     -21.576  34.004  -2.486  1.00  0.00     0.023 A 
HETATM    7  S1  UNL     1     -20.015  33.370  -2.160  1.00  0.00    -0.051 SA
HETATM    8  C6  UNL     1     -19.007  33.342  -3.524  1.00  0.00     0.187 A 
HETATM    9  N1  UNL     1     -17.729  32.953  -3.794  1.00  0.00    -0.167 N 
ATOM     10  H1  UNL     1     -17.069  32.557  -3.126  1.00  0.00     0.186 HD
HETATM   11  C7  UNL     1     -17.495  33.181  -5.087  1.00  0.00     0.693 A 
HETATM   12  N3  UNL     1     -18.613  33.701  -5.597  1.00  0.00    -0.122 N 
ATOM     13  H3  UNL     1     -18.733  33.978  -6.570  1.00  0.00     0.206 HD
HETATM   14  N4  UNL     1     -19.562  33.809  -4.645  1.00  0.00    -0.207 N 
HETATM   15  C8  UNL     1     -20.821  34.287  -4.773  1.00  0.00     0.138 A 
HETATM   16  S2  UNL     1     -21.202  34.794  -6.309  1.00  0.00    -0.057 SA
HETATM   17  C9  UNL     1     -21.773  34.396  -3.818  1.00  0.00     0.028 A 
HETATM   18  C10 UNL     1     -23.035  34.923  -4.149  1.00  0.00    -0.040 A 
HETATM   19  C11 UNL     1     -23.404  35.376  -5.485  1.00  0.00     0.050 C 
ENDROOT
BRANCH  11  20
HETATM   20  N2  UNL     1     -16.384  32.944  -5.742  1.00  0.00    -0.233 N 
ATOM     21  H22 UNL     1     -15.461  32.806  -5.331  1.00  0.00     0.174 HD
ATOM     22  H21 UNL     1     -16.272  32.862  -6.753  1.00  0.00     0.174 HD
ENDBRANCH  11  20
TORSDOF 1
ENDMDL
MODEL 3
REMARK VINA RESULT: -6.925690801      2.910      3.486
REMARK  1 active torsions:
REMARK  status: ('A' for Active; 'I' for Inactive)
REMARK    1  A    between atoms: C7_11  and  N2_12 
ROOT
HETATM    1  C1  UNL     1     -22.992  35.942  -9.010  1.00  0.00     0.050 C 
HETATM    2  C2  UNL     1     -21.644  35.651  -8.417  1.00  0.00    -0.038 A 
HETATM    3  C3  UNL     1     -20.637  36.502  -8.772  1.00  0.00     0.018 A 
HETATM    4 BR1  UNL     1     -20.905  37.969  -9.941  1.00  0.00    -0.051 Br
HETATM    5  C4  UNL     1     -19.390  36.277  -8.258  1.00  0.00     0.039 A 
HETATM    6  C5  UNL     1     -19.202  35.210  -7.410  1.00  0.00     0.023 A 
HETATM    7  S1  UNL     1     -17.663  34.869  -6.728  1.00  0.00    -0.051 SA
HETATM    8  C6  UNL     1     -17.669  33.509  -5.715  1.00  0.00     0.187 A 
HETATM    9  N1  UNL     1     -16.750  32.841  -4.962  1.00  0.00    -0.167 N 
ATOM     10  H1  UNL     1     -15.764  33.081  -4.866  1.00  0.00     0.186 HD
HETATM   11  C7  UNL     1     -17.370  31.817  -4.372  1.00  0.00     0.693 A 
HETATM   12  N3  UNL     1     -18.645  31.862  -4.759  1.00  0.00    -0.122 N 
ATOM     13  H3  UNL     1     -19.364  31.201  -4.466  1.00  0.00     0.206 HD
HETATM   14  N4  UNL     1     -18.852  32.902  -5.592  1.00  0.00    -0.207 N 
HETATM   15  C8  UNL     1     -20.006  33.275  -6.191  1.00  0.00     0.138 A 
HETATM   16  S2  UNL     1     -21.304  32.302  -5.827  1.00  0.00    -0.057 SA
HETATM   17  C9  UNL     1     -20.213  34.318  -7.027  1.00  0.00     0.028 A 
HETATM   18  C10 UNL     1     -21.499  34.545  -7.553  1.00  0.00    -0.040 A 
HETATM   19  C11 UNL     1     -22.659  33.714  -7.255  1.00  0.00     0.050 C 
ENDROOT
BRANCH  11  20
HETATM   20  N2  UNL     1     -16.837  30.932  -3.563  1.00  0.00    -0.233 N 
ATOM     21  H22 UNL     1     -16.570  31.089  -2.591  1.00  0.00     0.174 HD
ATOM     22  H21 UNL     1     -16.609  29.962  -3.779  1.00  0.00     0.174 HD
ENDBRANCH  11  20
TORSDOF 1
ENDMDL
MODEL 4
REMARK VINA RESULT: -6.783721231      2.081      3.279
REMARK  1 active torsions:
REMARK  status: ('A' for Active; 'I' for Inactive)
REMARK    1  A    between atoms: C7_11  and  N2_12 
ROOT
HETATM    1  C1  UNL     1     -26.289  34.277  -3.738  1.00  0.00     0.050 C 
HETATM    2  C2  UNL     1     -24.868  34.069  -3.301  1.00  0.00    -0.038 A 
HETATM    3  C3  UNL     1     -24.586  34.392  -2.005  1.00  0.00     0.018 A 
HETATM    4 BR1  UNL     1     -25.898  35.065  -0.813  1.00  0.00    -0.051 Br
HETATM    5  C4  UNL     1     -23.304  34.221  -1.561  1.00  0.00     0.039 A 
HETATM    6  C5  UNL     1     -22.358  33.733  -2.431  1.00  0.00     0.023 A 
HETATM    7  S1  UNL     1     -20.730  33.492  -1.940  1.00  0.00    -0.051 SA
HETATM    8  C6  UNL     1     -19.742  32.884  -3.177  1.00  0.00     0.187 A 
HETATM    9  N1  UNL     1     -18.432  32.533  -3.305  1.00  0.00    -0.167 N 
ATOM     10  H1  UNL     1     -17.723  32.584  -2.574  1.00  0.00     0.186 HD
HETATM   11  C7  UNL     1     -18.241  32.110  -4.556  1.00  0.00     0.693 A 
HETATM   12  N3  UNL     1     -19.416  32.203  -5.179  1.00  0.00    -0.122 N 
ATOM     13  H3  UNL     1     -19.578  31.948  -6.153  1.00  0.00     0.206 HD
HETATM   14  N4  UNL     1     -20.360  32.680  -4.343  1.00  0.00    -0.207 N 
HETATM   15  C8  UNL     1     -21.666  32.912  -4.605  1.00  0.00     0.138 A 
HETATM   16  S2  UNL     1     -22.121  32.552  -6.163  1.00  0.00    -0.057 SA
HETATM   17  C9  UNL     1     -22.613  33.391  -3.766  1.00  0.00     0.028 A 
HETATM   18  C10 UNL     1     -23.931  33.566  -4.229  1.00  0.00    -0.040 A 
HETATM   19  C11 UNL     1     -24.365  33.260  -5.587  1.00  0.00     0.050 C 
ENDROOT
BRANCH  11  20
HETATM   20  N2  UNL     1     -17.117  31.683  -5.082  1.00  0.00    -0.233 N 
ATOM     21  H22 UNL     1     -16.185  31.802  -4.687  1.00  0.00     0.174 HD
ATOM     22  H21 UNL     1     -17.004  31.173  -5.959  1.00  0.00     0.174 HD
ENDBRANCH  11  20
TORSDOF 1
ENDMDL
MODEL 5
REMARK VINA RESULT: -6.659682615      2.252      2.792
REMARK  1 active torsions:
REMARK  status: ('A' for Active; 'I' for Inactive)
REMARK    1  A    between atoms: C7_11  and  N2_12 
ROOT
HETATM    1  C1  UNL     1     -23.060  34.231  -1.324  1.00  0.00     0.050 C 
HETATM    2  C2  UNL     1     -22.372  34.468  -2.637  1.00  0.00    -0.038 A 
HETATM    3  C3  UNL     1     -23.118  35.083  -3.602  1.00  0.00     0.018 A 
HETATM    4 BR1  UNL     1     -24.916  35.612  -3.318  1.00  0.00    -0.051 Br
HETATM    5  C4  UNL     1     -22.535  35.319  -4.816  1.00  0.00     0.039 A 
HETATM    6  C5  UNL     1     -21.231  34.932  -5.016  1.00  0.00     0.023 A 
HETATM    7  S1  UNL     1     -20.437  35.198  -6.515  1.00  0.00    -0.051 SA
HETATM    8  C6  UNL     1     -18.836  34.639  -6.531  1.00  0.00     0.187 A 
HETATM    9  N1  UNL     1     -17.815  34.607  -7.433  1.00  0.00    -0.167 N 
ATOM     10  H1  UNL     1     -17.846  34.966  -8.387  1.00  0.00     0.186 HD
HETATM   11  C7  UNL     1     -16.768  34.025  -6.848  1.00  0.00     0.693 A 
HETATM   12  N3  UNL     1     -17.145  33.706  -5.608  1.00  0.00    -0.122 N 
ATOM     13  H3  UNL     1     -16.549  33.246  -4.921  1.00  0.00     0.206 HD
HETATM   14  N4  UNL     1     -18.423  34.078  -5.392  1.00  0.00    -0.207 N 
HETATM   15  C8  UNL     1     -19.156  33.926  -4.265  1.00  0.00     0.138 A 
HETATM   16  S2  UNL     1     -18.342  33.185  -3.020  1.00  0.00    -0.057 SA
HETATM   17  C9  UNL     1     -20.438  34.299  -4.048  1.00  0.00     0.028 A 
HETATM   18  C10 UNL     1     -21.033  34.053  -2.796  1.00  0.00    -0.040 A 
HETATM   19  C11 UNL     1     -20.349  33.407  -1.682  1.00  0.00     0.050 C 
ENDROOT
BRANCH  11  20
HETATM   20  N2  UNL     1     -15.589  33.803  -7.379  1.00  0.00    -0.233 N 
ATOM     21  H22 UNL     1     -15.264  34.141  -8.284  1.00  0.00     0.174 HD
ATOM     22  H21 UNL     1     -14.824  33.263  -6.973  1.00  0.00     0.174 HD
ENDBRANCH  11  20
TORSDOF 1
ENDMDL
