MODEL 1
REMARK VINA RESULT: -7.458636877      0.000      0.000
REMARK  1 active torsions:
REMARK  status: ('A' for Active; 'I' for Inactive)
REMARK    1  A    between atoms: C2_2  and  N1_5 
REMARK       I    between atoms: N1_5  and  C5_7 
ROOT
HETATM    1  N1  UNL     1     -21.770  35.107  -7.143  1.00  0.00    -0.217 N 
ATOM      2  H1  UNL     1     -22.342  35.915  -7.385  1.00  0.00     0.178 HD
HETATM    3  C5  UNL     1     -21.831  34.675  -5.802  1.00  0.00     0.693 C 
HETATM    4  N2  UNL     1     -22.625  35.290  -4.987  1.00  0.00    -0.022 N 
ATOM      5  H2  UNL     1     -23.151  36.058  -5.406  1.00  0.00     0.203 HD
HETATM    6  C6  UNL     1     -22.890  35.076  -3.596  1.00  0.00     0.703 A 
HETATM    7  N3  UNL     1     -23.943  35.571  -2.922  1.00  0.00    -0.199 N 
ATOM      8  H3  UNL     1     -24.662  36.162  -3.339  1.00  0.00     0.183 HD
HETATM    9  C7  UNL     1     -23.933  35.192  -1.632  1.00  0.00     0.124 A 
HETATM   10  C8  UNL     1     -22.801  34.412  -1.498  1.00  0.00     0.133 A 
HETATM   11  N4  UNL     1     -22.194  34.358  -2.684  1.00  0.00    -0.154 N 
HETATM   12  C9  UNL     1     -20.974  33.622  -2.910  1.00  0.00     0.083 A 
HETATM   13  C10 UNL     1     -20.322  33.261  -1.768  1.00  0.00     0.034 A 
HETATM   14  C11 UNL     1     -19.123  32.530  -1.829  1.00  0.00     0.021 A 
HETATM   15  C12 UNL     1     -18.625  32.187  -3.052  1.00  0.00     0.013 A 
HETATM   16 BR1  UNL     1     -16.989  31.187  -3.182  1.00  0.00    -0.051 Br
HETATM   17  C13 UNL     1     -19.291  32.558  -4.200  1.00  0.00     0.051 A 
HETATM   18  C14 UNL     1     -20.454  33.269  -4.144  1.00  0.00     0.078 A 
HETATM   19  N5  UNL     1     -21.002  33.585  -5.425  1.00  0.00    -0.189 N 
ATOM     20  H5  UNL     1     -20.763  32.937  -6.176  1.00  0.00     0.184 HD
ENDROOT
BRANCH   1  21
HETATM   21  C2  UNL     1     -20.994  34.537  -8.199  1.00  0.00     0.036 C 
HETATM   22  C1  UNL     1     -19.515  34.729  -7.985  1.00  0.00     0.038 C 
HETATM   23  C3  UNL     1     -21.368  33.106  -8.529  1.00  0.00     0.038 C 
HETATM   24  C4  UNL     1     -21.327  35.326  -9.479  1.00  0.00     0.038 C 
ENDBRANCH   1  21
TORSDOF 1
ENDMDL
MODEL 2
REMARK VINA RESULT: -7.188286607      2.924      5.923
REMARK  1 active torsions:
REMARK  status: ('A' for Active; 'I' for Inactive)
REMARK    1  A    between atoms: C2_2  and  N1_5 
REMARK       I    between atoms: N1_5  and  C5_7 
ROOT
HETATM    1  N1  UNL     1     -22.639  34.296  -1.527  1.00  0.00    -0.217 N 
ATOM      2  H1  UNL     1     -22.133  34.827  -0.819  1.00  0.00     0.178 HD
HETATM    3  C5  UNL     1     -21.856  33.654  -2.508  1.00  0.00     0.693 C 
HETATM    4  N2  UNL     1     -20.568  33.740  -2.428  1.00  0.00    -0.022 N 
ATOM      5  H2  UNL     1     -20.227  34.284  -1.635  1.00  0.00     0.203 HD
HETATM    6  C6  UNL     1     -19.538  33.201  -3.267  1.00  0.00     0.703 A 
HETATM    7  N3  UNL     1     -18.240  33.098  -2.931  1.00  0.00    -0.199 N 
ATOM      8  H3  UNL     1     -17.854  33.404  -2.038  1.00  0.00     0.183 HD
HETATM    9  C7  UNL     1     -17.514  32.542  -3.916  1.00  0.00     0.124 A 
HETATM   10  C8  UNL     1     -18.419  32.283  -4.926  1.00  0.00     0.133 A 
HETATM   11  N4  UNL     1     -19.622  32.687  -4.515  1.00  0.00    -0.154 N 
HETATM   12  C9  UNL     1     -20.810  32.566  -5.324  1.00  0.00     0.083 A 
HETATM   13  C10 UNL     1     -20.564  32.314  -6.642  1.00  0.00     0.034 A 
HETATM   14  C11 UNL     1     -21.625  32.161  -7.551  1.00  0.00     0.021 A 
HETATM   15  C12 UNL     1     -22.905  32.268  -7.091  1.00  0.00     0.013 A 
HETATM   16 BR1  UNL     1     -24.385  32.064  -8.301  1.00  0.00    -0.051 Br
HETATM   17  C13 UNL     1     -23.142  32.523  -5.758  1.00  0.00     0.051 A 
HETATM   18  C14 UNL     1     -22.116  32.674  -4.873  1.00  0.00     0.078 A 
HETATM   19  N5  UNL     1     -22.538  32.953  -3.537  1.00  0.00    -0.189 N 
ATOM     20  H5  UNL     1     -23.461  32.598  -3.287  1.00  0.00     0.184 HD
ENDROOT
BRANCH   1  21
HETATM   21  C2  UNL     1     -24.064  34.284  -1.415  1.00  0.00     0.036 C 
HETATM   22  C1  UNL     1     -24.726  35.074  -2.514  1.00  0.00     0.038 C 
HETATM   23  C3  UNL     1     -24.652  32.898  -1.239  1.00  0.00     0.038 C 
HETATM   24  C4  UNL     1     -24.420  35.020  -0.111  1.00  0.00     0.038 C 
ENDBRANCH   1  21
TORSDOF 1
ENDMDL
MODEL 3
REMARK VINA RESULT: -7.117651420      2.590      5.870
REMARK  1 active torsions:
REMARK  status: ('A' for Active; 'I' for Inactive)
REMARK    1  A    between atoms: C2_2  and  N1_5 
REMARK       I    between atoms: N1_5  and  C5_7 
ROOT
HETATM    1  N1  UNL     1     -22.294  33.950  -1.564  1.00  0.00    -0.217 N 
ATOM      2  H1  UNL     1     -21.924  33.885  -0.616  1.00  0.00     0.178 HD
HETATM    3  C5  UNL     1     -21.418  33.583  -2.606  1.00  0.00     0.693 C 
HETATM    4  N2  UNL     1     -20.236  33.153  -2.302  1.00  0.00    -0.022 N 
ATOM      5  H2  UNL     1     -20.042  33.119  -1.300  1.00  0.00     0.203 HD
HETATM    6  C6  UNL     1     -19.154  32.717  -3.133  1.00  0.00     0.703 A 
HETATM    7  N3  UNL     1     -18.088  32.014  -2.712  1.00  0.00    -0.199 N 
ATOM      8  H3  UNL     1     -17.939  31.725  -1.745  1.00  0.00     0.183 HD
HETATM    9  C7  UNL     1     -17.243  31.738  -3.721  1.00  0.00     0.124 A 
HETATM   10  C8  UNL     1     -17.822  32.306  -4.838  1.00  0.00     0.133 A 
HETATM   11  N4  UNL     1     -18.963  32.886  -4.461  1.00  0.00    -0.154 N 
HETATM   12  C9  UNL     1     -19.833  33.578  -5.380  1.00  0.00     0.083 A 
HETATM   13  C10 UNL     1     -19.255  33.874  -6.580  1.00  0.00     0.034 A 
HETATM   14  C11 UNL     1     -19.985  34.538  -7.581  1.00  0.00     0.021 A 
HETATM   15  C12 UNL     1     -21.281  34.881  -7.331  1.00  0.00     0.013 A 
HETATM   16 BR1  UNL     1     -22.315  35.790  -8.673  1.00  0.00    -0.051 Br
HETATM   17  C13 UNL     1     -21.855  34.578  -6.115  1.00  0.00     0.051 A 
HETATM   18  C14 UNL     1     -21.151  33.935  -5.141  1.00  0.00     0.078 A 
HETATM   19  N5  UNL     1     -21.890  33.717  -3.939  1.00  0.00    -0.189 N 
ATOM     20  H5  UNL     1     -22.902  33.647  -4.054  1.00  0.00     0.184 HD
ENDROOT
BRANCH   1  21
HETATM   21  C2  UNL     1     -23.643  34.404  -1.690  1.00  0.00     0.036 C 
HETATM   22  C1  UNL     1     -23.776  35.520  -2.693  1.00  0.00     0.038 C 
HETATM   23  C3  UNL     1     -24.646  33.288  -1.903  1.00  0.00     0.038 C 
HETATM   24  C4  UNL     1     -24.039  35.023  -0.336  1.00  0.00     0.038 C 
ENDBRANCH   1  21
TORSDOF 1
ENDMDL
MODEL 4
REMARK VINA RESULT: -7.117514525      2.668      5.582
REMARK  1 active torsions:
REMARK  status: ('A' for Active; 'I' for Inactive)
REMARK    1  A    between atoms: C2_2  and  N1_5 
REMARK       I    between atoms: N1_5  and  C5_7 
ROOT
HETATM    1  N1  UNL     1     -22.491  33.715  -2.501  1.00  0.00    -0.217 N 
ATOM      2  H1  UNL     1     -22.408  33.496  -1.508  1.00  0.00     0.178 HD
HETATM    3  C5  UNL     1     -21.340  33.506  -3.287  1.00  0.00     0.693 C 
HETATM    4  N2  UNL     1     -20.283  33.019  -2.724  1.00  0.00    -0.022 N 
ATOM      5  H2  UNL     1     -20.384  32.824  -1.728  1.00  0.00     0.203 HD
HETATM    6  C6  UNL     1     -18.992  32.706  -3.263  1.00  0.00     0.703 A 
HETATM    7  N3  UNL     1     -18.070  31.932  -2.666  1.00  0.00    -0.199 N 
ATOM      8  H3  UNL     1     -18.195  31.492  -1.755  1.00  0.00     0.183 HD
HETATM    9  C7  UNL     1     -16.961  31.810  -3.417  1.00  0.00     0.124 A 
HETATM   10  C8  UNL     1     -17.213  32.554  -4.552  1.00  0.00     0.133 A 
HETATM   11  N4  UNL     1     -18.433  33.081  -4.436  1.00  0.00    -0.154 N 
HETATM   12  C9  UNL     1     -19.025  33.921  -5.449  1.00  0.00     0.083 A 
HETATM   13  C10 UNL     1     -18.136  34.395  -6.369  1.00  0.00     0.034 A 
HETATM   14  C11 UNL     1     -18.569  35.219  -7.423  1.00  0.00     0.021 A 
HETATM   15  C12 UNL     1     -19.893  35.534  -7.509  1.00  0.00     0.013 A 
HETATM   16 BR1  UNL     1     -20.527  36.656  -8.935  1.00  0.00    -0.051 Br
HETATM   17  C13 UNL     1     -20.783  35.050  -6.574  1.00  0.00     0.051 A 
HETATM   18  C14 UNL     1     -20.367  34.252  -5.550  1.00  0.00     0.078 A 
HETATM   19  N5  UNL     1     -21.413  33.855  -4.662  1.00  0.00    -0.189 N 
ATOM     20  H5  UNL     1     -22.346  33.817  -5.075  1.00  0.00     0.184 HD
ENDROOT
BRANCH   1  21
HETATM   21  C2  UNL     1     -23.762  34.199  -2.940  1.00  0.00     0.036 C 
HETATM   22  C1  UNL     1     -23.690  35.625  -3.422  1.00  0.00     0.038 C 
HETATM   23  C3  UNL     1     -24.465  33.275  -3.913  1.00  0.00     0.038 C 
HETATM   24  C4  UNL     1     -24.683  34.231  -1.707  1.00  0.00     0.038 C 
ENDBRANCH   1  21
TORSDOF 1
ENDMDL
MODEL 5
REMARK VINA RESULT: -7.082811157      4.674      6.186
REMARK  1 active torsions:
REMARK  status: ('A' for Active; 'I' for Inactive)
REMARK    1  A    between atoms: C2_2  and  N1_5 
REMARK       I    between atoms: N1_5  and  C5_7 
ROOT
HETATM    1  N1  UNL     1     -25.205  29.409  -5.550  1.00  0.00    -0.217 N 
ATOM      2  H1  UNL     1     -24.841  28.678  -6.159  1.00  0.00     0.178 HD
HETATM    3  C5  UNL     1     -24.370  30.525  -5.340  1.00  0.00     0.693 C 
HETATM    4  N2  UNL     1     -23.233  30.574  -5.954  1.00  0.00    -0.022 N 
ATOM      5  H2  UNL     1     -23.040  29.772  -6.554  1.00  0.00     0.203 HD
HETATM    6  C6  UNL     1     -22.198  31.565  -5.935  1.00  0.00     0.703 A 
HETATM    7  N3  UNL     1     -21.201  31.662  -6.831  1.00  0.00    -0.199 N 
ATOM      8  H3  UNL     1     -21.076  31.027  -7.619  1.00  0.00     0.183 HD
HETATM    9  C7  UNL     1     -20.388  32.698  -6.561  1.00  0.00     0.124 A 
HETATM   10  C8  UNL     1     -20.914  33.280  -5.426  1.00  0.00     0.133 A 
HETATM   11  N4  UNL     1     -21.996  32.585  -5.070  1.00  0.00    -0.154 N 
HETATM   12  C9  UNL     1     -22.801  32.918  -3.920  1.00  0.00     0.083 A 
HETATM   13  C10 UNL     1     -22.201  33.782  -3.052  1.00  0.00     0.034 A 
HETATM   14  C11 UNL     1     -22.868  34.207  -1.889  1.00  0.00     0.021 A 
HETATM   15  C12 UNL     1     -24.126  33.740  -1.647  1.00  0.00     0.013 A 
HETATM   16 BR1  UNL     1     -25.075  34.295  -0.070  1.00  0.00    -0.051 Br
HETATM   17  C13 UNL     1     -24.723  32.866  -2.531  1.00  0.00     0.051 A 
HETATM   18  C14 UNL     1     -24.078  32.451  -3.658  1.00  0.00     0.078 A 
HETATM   19  N5  UNL     1     -24.832  31.533  -4.452  1.00  0.00    -0.189 N 
ATOM     20  H5  UNL     1     -25.846  31.613  -4.369  1.00  0.00     0.184 HD
ENDROOT
BRANCH   1  21
HETATM   21  C2  UNL     1     -26.507  29.190  -5.002  1.00  0.00     0.036 C 
HETATM   22  C1  UNL     1     -26.462  28.918  -3.521  1.00  0.00     0.038 C 
HETATM   23  C3  UNL     1     -27.518  30.253  -5.383  1.00  0.00     0.038 C 
HETATM   24  C4  UNL     1     -27.051  27.897  -5.637  1.00  0.00     0.038 C 
ENDBRANCH   1  21
TORSDOF 1
ENDMDL
