MODEL 1
REMARK VINA RESULT: -7.328930489      0.000      0.000
REMARK  3 active torsions:
REMARK  status: ('A' for Active; 'I' for Inactive)
REMARK    1  A    between atoms: C2_2  and  C4_5 
REMARK    2  A    between atoms: C5_6  and  C6_7 
REMARK    3  A    between atoms: C12_17  and  N3_18 
ROOT
HETATM    1  C6  UNL     1     -23.024  34.170  -2.098  1.00  0.00     0.100 A 
HETATM    2  N1  UNL     1     -23.569  34.887  -1.104  1.00  0.00    -0.357 N 
ATOM      3  H1  UNL     1     -22.967  35.142  -0.322  1.00  0.00     0.166 HD
HETATM    4  C7  UNL     1     -24.847  35.296  -1.062  1.00  0.00     0.113 A 
HETATM    5  C8  UNL     1     -25.642  34.935  -2.142  1.00  0.00     0.078 A 
HETATM    6  C9  UNL     1     -27.045  35.316  -2.216  1.00  0.00     0.102 C 
HETATM    7  N2  UNL     1     -28.160  35.620  -2.271  1.00  0.00    -0.191 NA
HETATM    8  C10 UNL     1     -25.079  34.195  -3.165  1.00  0.00     0.043 A 
HETATM    9  S1  UNL     1     -25.738  33.583  -4.621  1.00  0.00    -0.082 SA
HETATM   10  C11 UNL     1     -24.353  32.815  -5.251  1.00  0.00     0.077 A 
HETATM   11  C12 UNL     1     -24.089  32.089  -6.411  1.00  0.00     0.119 A 
HETATM   12  N4  UNL     1     -22.869  31.584  -6.657  1.00  0.00    -0.338 N 
ATOM     13  H4  UNL     1     -22.654  31.051  -7.499  1.00  0.00     0.168 HD
HETATM   14  C13 UNL     1     -21.953  31.838  -5.705  1.00  0.00     0.182 A 
HETATM   15  N5  UNL     1     -22.183  32.519  -4.608  1.00  0.00    -0.350 N 
ATOM     16  H5  UNL     1     -21.413  32.653  -3.952  1.00  0.00     0.166 HD
HETATM   17  C14 UNL     1     -23.404  33.060  -4.295  1.00  0.00     0.068 A 
HETATM   18  C15 UNL     1     -23.778  33.773  -3.220  1.00  0.00     0.046 A 
ENDROOT
BRANCH   1  19
HETATM   19  C5  UNL     1     -21.627  33.780  -2.042  1.00  0.00    -0.046 C 
HETATM   20  C4  UNL     1     -20.459  33.476  -2.002  1.00  0.00    -0.074 C 
BRANCH  20  21
HETATM   21  C2  UNL     1     -19.037  33.129  -1.958  1.00  0.00     0.093 C 
HETATM   22  C1  UNL     1     -18.489  33.021  -3.353  1.00  0.00     0.046 C 
HETATM   23  C3  UNL     1     -18.297  34.155  -1.121  1.00  0.00     0.046 C 
HETATM   24 CL1  UNL     1     -18.788  31.542  -1.172  1.00  0.00    -0.106 Cl
ENDBRANCH  20  21
ENDBRANCH   1  19
BRANCH  11  25
HETATM   25  N3  UNL     1     -25.013  31.886  -7.275  1.00  0.00    -0.384 N 
ATOM     26  H32 UNL     1     -25.521  31.002  -7.236  1.00  0.00     0.157 HD
ATOM     27  H31 UNL     1     -25.229  32.593  -7.977  1.00  0.00     0.157 HD
ENDBRANCH  11  25
TORSDOF 3
ENDMDL
MODEL 2
REMARK VINA RESULT: -7.315750248      1.915      2.028
REMARK  3 active torsions:
REMARK  status: ('A' for Active; 'I' for Inactive)
REMARK    1  A    between atoms: C2_2  and  C4_5 
REMARK    2  A    between atoms: C5_6  and  C6_7 
REMARK    3  A    between atoms: C12_17  and  N3_18 
ROOT
HETATM    1  C6  UNL     1     -22.979  34.355  -2.110  1.00  0.00     0.100 A 
HETATM    2  N1  UNL     1     -23.740  34.353  -1.005  1.00  0.00    -0.357 N 
ATOM      3  H1  UNL     1     -23.301  34.062  -0.132  1.00  0.00     0.166 HD
HETATM    4  C7  UNL     1     -25.034  34.705  -0.960  1.00  0.00     0.113 A 
HETATM    5  C8  UNL     1     -25.603  35.097  -2.165  1.00  0.00     0.078 A 
HETATM    6  C9  UNL     1     -26.999  35.502  -2.251  1.00  0.00     0.102 C 
HETATM    7  N2  UNL     1     -28.109  35.823  -2.317  1.00  0.00    -0.191 NA
HETATM    8  C10 UNL     1     -24.819  35.098  -3.303  1.00  0.00     0.043 A 
HETATM    9  S1  UNL     1     -25.172  35.511  -4.927  1.00  0.00    -0.082 SA
HETATM   10  C11 UNL     1     -23.645  35.220  -5.625  1.00  0.00     0.077 A 
HETATM   11  C12 UNL     1     -23.132  35.326  -6.916  1.00  0.00     0.119 A 
HETATM   12  N4  UNL     1     -21.852  35.022  -7.187  1.00  0.00    -0.338 N 
ATOM     13  H4  UNL     1     -21.456  35.094  -8.124  1.00  0.00     0.168 HD
HETATM   14  C13 UNL     1     -21.134  34.616  -6.124  1.00  0.00     0.182 A 
HETATM   15  N5  UNL     1     -21.599  34.510  -4.903  1.00  0.00    -0.350 N 
ATOM     16  H5  UNL     1     -20.964  34.193  -4.170  1.00  0.00     0.166 HD
HETATM   17  C14 UNL     1     -22.894  34.804  -4.558  1.00  0.00     0.068 A 
HETATM   18  C15 UNL     1     -23.499  34.742  -3.361  1.00  0.00     0.046 A 
ENDROOT
BRANCH   1  19
HETATM   19  C5  UNL     1     -21.586  33.954  -2.043  1.00  0.00    -0.046 C 
HETATM   20  C4  UNL     1     -20.422  33.635  -2.003  1.00  0.00    -0.074 C 
BRANCH  20  21
HETATM   21  C2  UNL     1     -19.005  33.268  -1.967  1.00  0.00     0.093 C 
HETATM   22  C1  UNL     1     -18.843  31.891  -1.384  1.00  0.00     0.046 C 
HETATM   23  C3  UNL     1     -18.423  33.379  -3.363  1.00  0.00     0.046 C 
HETATM   24 CL1  UNL     1     -18.078  34.390  -0.927  1.00  0.00    -0.106 Cl
ENDBRANCH  20  21
ENDBRANCH   1  19
BRANCH  11  25
HETATM   25  N3  UNL     1     -23.877  35.720  -7.881  1.00  0.00    -0.384 N 
ATOM     26  H32 UNL     1     -24.518  35.046  -8.299  1.00  0.00     0.157 HD
ATOM     27  H31 UNL     1     -23.826  36.682  -8.214  1.00  0.00     0.157 HD
ENDBRANCH  11  25
TORSDOF 3
ENDMDL
MODEL 3
REMARK VINA RESULT: -7.017405747      5.247      6.954
REMARK  3 active torsions:
REMARK  status: ('A' for Active; 'I' for Inactive)
REMARK    1  A    between atoms: C2_2  and  C4_5 
REMARK    2  A    between atoms: C5_6  and  C6_7 
REMARK    3  A    between atoms: C12_17  and  N3_18 
ROOT
HETATM    1  C6  UNL     1     -22.214  35.075  -7.336  1.00  0.00     0.100 A 
HETATM    2  N1  UNL     1     -23.516  34.876  -7.079  1.00  0.00    -0.357 N 
ATOM      3  H1  UNL     1     -24.192  35.317  -7.702  1.00  0.00     0.166 HD
HETATM    4  C7  UNL     1     -23.997  34.141  -6.063  1.00  0.00     0.113 A 
HETATM    5  C8  UNL     1     -23.052  33.554  -5.232  1.00  0.00     0.078 A 
HETATM    6  C9  UNL     1     -23.443  32.734  -4.095  1.00  0.00     0.102 C 
HETATM    7  N2  UNL     1     -23.757  32.083  -3.191  1.00  0.00    -0.191 NA
HETATM    8  C10 UNL     1     -21.711  33.760  -5.498  1.00  0.00     0.043 A 
HETATM    9  S1  UNL     1     -20.297  33.207  -4.707  1.00  0.00    -0.082 SA
HETATM   10  C11 UNL     1     -19.120  33.934  -5.702  1.00  0.00     0.077 A 
HETATM   11  C12 UNL     1     -17.727  33.951  -5.705  1.00  0.00     0.119 A 
HETATM   12  N4  UNL     1     -17.037  34.628  -6.638  1.00  0.00    -0.338 N 
ATOM     13  H4  UNL     1     -16.018  34.653  -6.658  1.00  0.00     0.168 HD
HETATM   14  C13 UNL     1     -17.798  35.271  -7.543  1.00  0.00     0.182 A 
HETATM   15  N5  UNL     1     -19.109  35.266  -7.557  1.00  0.00    -0.350 N 
ATOM     16  H5  UNL     1     -19.586  35.788  -8.292  1.00  0.00     0.166 HD
HETATM   17  C14 UNL     1     -19.873  34.596  -6.635  1.00  0.00     0.068 A 
HETATM   18  C15 UNL     1     -21.209  34.506  -6.530  1.00  0.00     0.046 A 
ENDROOT
BRANCH   1  19
HETATM   19  C5  UNL     1     -21.805  35.890  -8.465  1.00  0.00    -0.046 C 
HETATM   20  C4  UNL     1     -21.483  36.580  -9.403  1.00  0.00    -0.074 C 
BRANCH  20  21
HETATM   21  C2  UNL     1     -21.111  37.430 -10.535  1.00  0.00     0.093 C 
HETATM   22  C1  UNL     1     -19.786  38.089 -10.272  1.00  0.00     0.046 C 
HETATM   23  C3  UNL     1     -21.105  36.600 -11.805  1.00  0.00     0.046 C 
HETATM   24 CL1  UNL     1     -22.309  38.737 -10.776  1.00  0.00    -0.106 Cl
ENDBRANCH  20  21
ENDBRANCH   1  19
BRANCH  11  25
HETATM   25  N3  UNL     1     -17.068  33.315  -4.809  1.00  0.00    -0.384 N 
ATOM     26  H32 UNL     1     -17.583  32.697  -4.182  1.00  0.00     0.157 HD
ATOM     27  H31 UNL     1     -16.058  33.429  -4.732  1.00  0.00     0.157 HD
ENDBRANCH  11  25
TORSDOF 3
ENDMDL
MODEL 4
REMARK VINA RESULT: -6.889040077      3.383      5.926
REMARK  3 active torsions:
REMARK  status: ('A' for Active; 'I' for Inactive)
REMARK    1  A    between atoms: C2_2  and  C4_5 
REMARK    2  A    between atoms: C5_6  and  C6_7 
REMARK    3  A    between atoms: C12_17  and  N3_18 
ROOT
HETATM    1  C6  UNL     1     -23.120  34.997  -4.884  1.00  0.00     0.100 A 
HETATM    2  N1  UNL     1     -23.884  35.419  -5.903  1.00  0.00    -0.357 N 
ATOM      3  H1  UNL     1     -24.854  35.657  -5.697  1.00  0.00     0.166 HD
HETATM    4  C7  UNL     1     -23.469  35.553  -7.172  1.00  0.00     0.113 A 
HETATM    5  C8  UNL     1     -22.144  35.222  -7.421  1.00  0.00     0.078 A 
HETATM    6  C9  UNL     1     -21.571  35.323  -8.755  1.00  0.00     0.102 C 
HETATM    7  N2  UNL     1     -21.119  35.403  -9.818  1.00  0.00    -0.191 NA
HETATM    8  C10 UNL     1     -21.357  34.786  -6.370  1.00  0.00     0.043 A 
HETATM    9  S1  UNL     1     -19.717  34.301  -6.303  1.00  0.00    -0.082 SA
HETATM   10  C11 UNL     1     -19.604  33.937  -4.641  1.00  0.00     0.077 A 
HETATM   11  C12 UNL     1     -18.580  33.478  -3.816  1.00  0.00     0.119 A 
HETATM   12  N4  UNL     1     -18.778  33.273  -2.504  1.00  0.00    -0.338 N 
ATOM     13  H4  UNL     1     -18.042  32.939  -1.882  1.00  0.00     0.168 HD
HETATM   14  C13 UNL     1     -20.023  33.545  -2.074  1.00  0.00     0.182 A 
HETATM   15  N5  UNL     1     -21.000  33.978  -2.836  1.00  0.00    -0.350 N 
ATOM     16  H5  UNL     1     -21.907  34.154  -2.404  1.00  0.00     0.166 HD
HETATM   17  C14 UNL     1     -20.865  34.208  -4.181  1.00  0.00     0.068 A 
HETATM   18  C15 UNL     1     -21.769  34.646  -5.073  1.00  0.00     0.046 A 
ENDROOT
BRANCH   1  19
HETATM   19  C5  UNL     1     -23.673  34.889  -3.547  1.00  0.00    -0.046 C 
HETATM   20  C4  UNL     1     -24.153  34.793  -2.442  1.00  0.00    -0.074 C 
BRANCH  20  21
HETATM   21  C2  UNL     1     -24.754  34.668  -1.113  1.00  0.00     0.093 C 
HETATM   22  C1  UNL     1     -23.837  35.251  -0.074  1.00  0.00     0.046 C 
HETATM   23  C3  UNL     1     -26.120  35.327  -1.116  1.00  0.00     0.046 C 
HETATM   24 CL1  UNL     1     -25.008  32.950  -0.684  1.00  0.00    -0.106 Cl
ENDBRANCH  20  21
ENDBRANCH   1  19
BRANCH  11  25
HETATM   25  N3  UNL     1     -17.416  33.239  -4.297  1.00  0.00    -0.384 N 
ATOM     26  H32 UNL     1     -17.356  32.741  -5.185  1.00  0.00     0.157 HD
ATOM     27  H31 UNL     1     -16.579  33.542  -3.799  1.00  0.00     0.157 HD
ENDBRANCH  11  25
TORSDOF 3
ENDMDL
MODEL 5
REMARK VINA RESULT: -6.855145126      5.136      7.418
REMARK  3 active torsions:
REMARK  status: ('A' for Active; 'I' for Inactive)
REMARK    1  A    between atoms: C2_2  and  C4_5 
REMARK    2  A    between atoms: C5_6  and  C6_7 
REMARK    3  A    between atoms: C12_17  and  N3_18 
ROOT
HETATM    1  C6  UNL     1     -19.074  35.241  -7.251  1.00  0.00     0.100 A 
HETATM    2  N1  UNL     1     -17.744  35.122  -7.115  1.00  0.00    -0.357 N 
ATOM      3  H1  UNL     1     -17.156  35.674  -7.739  1.00  0.00     0.166 HD
HETATM    4  C7  UNL     1     -17.129  34.332  -6.221  1.00  0.00     0.113 A 
HETATM    5  C8  UNL     1     -17.956  33.593  -5.386  1.00  0.00     0.078 A 
HETATM    6  C9  UNL     1     -17.413  32.699  -4.374  1.00  0.00     0.102 C 
HETATM    7  N2  UNL     1     -16.979  31.988  -3.571  1.00  0.00    -0.191 NA
HETATM    8  C10 UNL     1     -19.326  33.716  -5.527  1.00  0.00     0.043 A 
HETATM    9  S1  UNL     1     -20.626  32.976  -4.692  1.00  0.00    -0.082 SA
HETATM   10  C11 UNL     1     -21.931  33.702  -5.514  1.00  0.00     0.077 A 
HETATM   11  C12 UNL     1     -23.317  33.607  -5.409  1.00  0.00     0.119 A 
HETATM   12  N4  UNL     1     -24.129  34.315  -6.212  1.00  0.00    -0.338 N 
ATOM     13  H4  UNL     1     -25.145  34.261  -6.151  1.00  0.00     0.168 HD
HETATM   14  C13 UNL     1     -23.495  35.101  -7.100  1.00  0.00     0.182 A 
HETATM   15  N5  UNL     1     -22.192  35.204  -7.214  1.00  0.00    -0.350 N 
ATOM     16  H5  UNL     1     -21.817  35.833  -7.923  1.00  0.00     0.166 HD
HETATM   17  C14 UNL     1     -21.308  34.510  -6.428  1.00  0.00     0.068 A 
HETATM   18  C15 UNL     1     -19.965  34.517  -6.434  1.00  0.00     0.046 A 
ENDROOT
BRANCH   1  19
HETATM   19  C5  UNL     1     -19.633  36.127  -8.254  1.00  0.00    -0.046 C 
HETATM   20  C4  UNL     1     -20.082  36.861  -9.102  1.00  0.00    -0.074 C 
BRANCH  20  21
HETATM   21  C2  UNL     1     -20.608  37.744 -10.145  1.00  0.00     0.093 C 
HETATM   22  C1  UNL     1     -21.325  36.938 -11.191  1.00  0.00     0.046 C 
HETATM   23  C3  UNL     1     -21.499  38.795  -9.509  1.00  0.00     0.046 C 
HETATM   24 CL1  UNL     1     -19.285  38.619 -10.971  1.00  0.00    -0.106 Cl
ENDBRANCH  20  21
ENDBRANCH   1  19
BRANCH  11  25
HETATM   25  N3  UNL     1     -23.851  32.835  -4.538  1.00  0.00    -0.384 N 
ATOM     26  H32 UNL     1     -23.296  32.057  -4.180  1.00  0.00     0.157 HD
ATOM     27  H31 UNL     1     -24.804  33.001  -4.215  1.00  0.00     0.157 HD
ENDBRANCH  11  25
TORSDOF 3
ENDMDL
