MODEL 1
REMARK VINA RESULT: -6.252348685      0.000      0.000
REMARK  11 active torsions:
REMARK  status: ('A' for Active; 'I' for Inactive)
REMARK    1  A    between atoms: C2_2  and  C3_3 
REMARK    2  A    between atoms: C3_3  and  C4_4 
REMARK    3  A    between atoms: C4_4  and  C7_7 
REMARK    4  A    between atoms: C8_8  and  C9_9 
REMARK    5  A    between atoms: C9_9  and  C10_10 
REMARK    6  A    between atoms: C10_10  and  N1_11 
REMARK    7  A    between atoms: C11_14  and  O1_15 
REMARK    8  A    between atoms: C14_21  and  O2_22 
REMARK    9  A    between atoms: C15_24  and  C16_25 
REMARK   10  A    between atoms: C16_25  and  C18_27 
REMARK   11  A    between atoms: C20_31  and  O3_32 
ROOT
HETATM    1  N1  UNL     1      -9.429  39.718  21.345  1.00  0.00    -0.254 N 
HETATM    2  N2  UNL     1      -9.032  41.057  21.375  1.00  0.00    -0.277 N 
ATOM      3  H2  UNL     1      -9.009  41.500  22.294  1.00  0.00     0.189 HD
HETATM    4  C11 UNL     1      -8.656  41.875  20.274  1.00  0.00     0.153 C 
HETATM    5  C12 UNL     1      -9.458  42.246  19.115  1.00  0.00     0.155 C 
HETATM    6  C13 UNL     1      -8.879  43.600  18.609  1.00  0.00     0.041 C 
HETATM    7  N3  UNL     1      -9.567  41.325  18.033  1.00  0.00    -0.361 N 
ATOM      8  H3  UNL     1      -9.720  41.775  17.131  1.00  0.00     0.162 HD
HETATM    9  C14 UNL     1      -9.509  39.930  17.955  1.00  0.00     0.135 C 
HETATM   10  C15 UNL     1      -8.411  38.994  18.116  1.00  0.00     0.163 C 
HETATM   11  N4  UNL     1      -8.016  38.689  19.470  1.00  0.00    -0.343 N 
ATOM     12  H4  UNL     1      -7.029  38.461  19.586  1.00  0.00     0.164 HD
HETATM   13  C20 UNL     1      -8.771  38.657  20.652  1.00  0.00     0.235 C 
ENDROOT
BRANCH   1  14
HETATM   14  C10 UNL     1     -10.631  39.406  22.152  1.00  0.00     0.165 C 
BRANCH  14  15
HETATM   15  C9  UNL     1     -11.815  40.201  21.636  1.00  0.00     0.115 C 
BRANCH  15  16
HETATM   16  C8  UNL     1     -12.550  39.326  20.722  1.00  0.00    -0.104 C 
HETATM   17  C7  UNL     1     -13.154  38.604  19.977  1.00  0.00    -0.097 C 
BRANCH  17  18
HETATM   18  C4  UNL     1     -13.922  37.720  19.072  1.00  0.00     0.016 C 
HETATM   19  C5  UNL     1     -13.903  38.239  17.660  1.00  0.00     0.029 C 
HETATM   20  C6  UNL     1     -15.333  37.579  19.606  1.00  0.00     0.029 C 
BRANCH  18  21
HETATM   21  C3  UNL     1     -13.280  36.372  19.113  1.00  0.00     0.021 C 
BRANCH  21  22
HETATM   22  C2  UNL     1     -12.172  36.359  18.056  1.00  0.00    -0.003 C 
HETATM   23  C1  UNL     1     -10.822  36.090  18.687  1.00  0.00     0.005 C 
ENDBRANCH  21  22
ENDBRANCH  18  21
ENDBRANCH  17  18
ENDBRANCH  15  16
ENDBRANCH  14  15
ENDBRANCH   1  14
BRANCH  13  24
HETATM   24  O3  UNL     1      -8.922  37.508  21.244  1.00  0.00    -0.331 OA
ATOM     25  H3  UNL     1      -8.876  36.779  20.637  1.00  0.00     0.221 HD
ENDBRANCH  13  24
BRANCH   4  26
HETATM   26  O1  UNL     1      -7.445  42.352  20.313  1.00  0.00    -0.347 OA
ATOM     27  H1  UNL     1      -7.257  42.938  21.036  1.00  0.00     0.219 HD
ENDBRANCH   4  26
BRANCH  10  28
HETATM   28  C16 UNL     1      -7.202  39.227  17.246  1.00  0.00     0.012 C 
HETATM   29  C17 UNL     1      -7.351  40.107  16.085  1.00  0.00     0.012 C 
BRANCH  28  30
HETATM   30  C18 UNL     1      -6.544  37.943  16.812  1.00  0.00     0.002 C 
HETATM   31  C19 UNL     1      -5.965  38.115  15.404  1.00  0.00     0.005 C 
ENDBRANCH  28  30
ENDBRANCH  10  28
BRANCH   9  32
HETATM   32  O2  UNL     1     -10.666  39.389  17.681  1.00  0.00    -0.348 OA
ATOM     33  H2  UNL     1     -10.630  38.441  17.640  1.00  0.00     0.219 HD
ENDBRANCH   9  32
TORSDOF 11
ENDMDL
MODEL 2
REMARK VINA RESULT: -6.164214209      2.210      5.063
REMARK  11 active torsions:
REMARK  status: ('A' for Active; 'I' for Inactive)
REMARK    1  A    between atoms: C2_2  and  C3_3 
REMARK    2  A    between atoms: C3_3  and  C4_4 
REMARK    3  A    between atoms: C4_4  and  C7_7 
REMARK    4  A    between atoms: C8_8  and  C9_9 
REMARK    5  A    between atoms: C9_9  and  C10_10 
REMARK    6  A    between atoms: C10_10  and  N1_11 
REMARK    7  A    between atoms: C11_14  and  O1_15 
REMARK    8  A    between atoms: C14_21  and  O2_22 
REMARK    9  A    between atoms: C15_24  and  C16_25 
REMARK   10  A    between atoms: C16_25  and  C18_27 
REMARK   11  A    between atoms: C20_31  and  O3_32 
ROOT
HETATM    1  N1  UNL     1     -10.140  42.037  18.706  1.00  0.00    -0.254 N 
HETATM    2  N2  UNL     1     -11.165  41.661  17.834  1.00  0.00    -0.277 N 
ATOM      3  H2  UNL     1     -11.866  42.373  17.628  1.00  0.00     0.189 HD
HETATM    4  C11 UNL     1     -11.346  40.400  17.200  1.00  0.00     0.153 C 
HETATM    5  C12 UNL     1     -11.541  39.099  17.827  1.00  0.00     0.155 C 
HETATM    6  C13 UNL     1     -12.323  38.238  16.792  1.00  0.00     0.041 C 
HETATM    7  N3  UNL     1     -10.400  38.385  18.296  1.00  0.00    -0.361 N 
ATOM      8  H3  UNL     1     -10.523  37.373  18.285  1.00  0.00     0.162 HD
HETATM    9  C14 UNL     1      -9.147  38.788  18.767  1.00  0.00     0.135 C 
HETATM   10  C15 UNL     1      -8.003  39.381  18.098  1.00  0.00     0.163 C 
HETATM   11  N4  UNL     1      -8.080  40.795  17.820  1.00  0.00    -0.343 N 
ATOM     12  H4  UNL     1      -7.571  41.096  16.989  1.00  0.00     0.164 HD
HETATM   13  C20 UNL     1      -8.743  41.823  18.508  1.00  0.00     0.235 C 
ENDROOT
BRANCH   1  14
HETATM   14  C10 UNL     1     -10.588  42.756  19.920  1.00  0.00     0.165 C 
BRANCH  14  15
HETATM   15  C9  UNL     1     -11.319  41.799  20.842  1.00  0.00     0.115 C 
BRANCH  15  16
HETATM   16  C8  UNL     1     -10.387  41.445  21.913  1.00  0.00    -0.104 C 
HETATM   17  C7  UNL     1      -9.625  41.159  22.796  1.00  0.00    -0.097 C 
BRANCH  17  18
HETATM   18  C4  UNL     1      -8.707  40.799  23.900  1.00  0.00     0.016 C 
HETATM   19  C5  UNL     1      -8.024  42.019  24.458  1.00  0.00     0.029 C 
HETATM   20  C6  UNL     1      -7.713  39.773  23.396  1.00  0.00     0.029 C 
BRANCH  18  21
HETATM   21  C3  UNL     1      -9.526  40.156  24.970  1.00  0.00     0.021 C 
BRANCH  21  22
HETATM   22  C2  UNL     1      -9.923  38.764  24.473  1.00  0.00    -0.003 C 
HETATM   23  C1  UNL     1     -10.022  37.784  25.622  1.00  0.00     0.005 C 
ENDBRANCH  21  22
ENDBRANCH  18  21
ENDBRANCH  17  18
ENDBRANCH  15  16
ENDBRANCH  14  15
ENDBRANCH   1  14
BRANCH  13  24
HETATM   24  O3  UNL     1      -8.014  42.745  19.068  1.00  0.00    -0.331 OA
ATOM     25  H3  UNL     1      -7.265  42.987  18.537  1.00  0.00     0.221 HD
ENDBRANCH  13  24
BRANCH   4  26
HETATM   26  O1  UNL     1     -11.339  40.417  15.898  1.00  0.00    -0.347 OA
ATOM     27  H1  UNL     1     -11.943  39.818  15.476  1.00  0.00     0.219 HD
ENDBRANCH   4  26
BRANCH  10  28
HETATM   28  C16 UNL     1      -7.463  38.631  16.908  1.00  0.00     0.012 C 
HETATM   29  C17 UNL     1      -6.794  37.350  17.149  1.00  0.00     0.012 C 
BRANCH  28  30
HETATM   30  C18 UNL     1      -6.587  39.488  16.031  1.00  0.00     0.002 C 
HETATM   31  C19 UNL     1      -6.182  38.698  14.783  1.00  0.00     0.005 C 
ENDBRANCH  28  30
ENDBRANCH  10  28
BRANCH   9  32
HETATM   32  O2  UNL     1      -8.997  38.579  20.048  1.00  0.00    -0.348 OA
ATOM     33  H2  UNL     1      -9.490  37.830  20.361  1.00  0.00     0.219 HD
ENDBRANCH   9  32
TORSDOF 11
ENDMDL
MODEL 3
REMARK VINA RESULT: -6.127333568      2.199      5.188
REMARK  11 active torsions:
REMARK  status: ('A' for Active; 'I' for Inactive)
REMARK    1  A    between atoms: C2_2  and  C3_3 
REMARK    2  A    between atoms: C3_3  and  C4_4 
REMARK    3  A    between atoms: C4_4  and  C7_7 
REMARK    4  A    between atoms: C8_8  and  C9_9 
REMARK    5  A    between atoms: C9_9  and  C10_10 
REMARK    6  A    between atoms: C10_10  and  N1_11 
REMARK    7  A    between atoms: C11_14  and  O1_15 
REMARK    8  A    between atoms: C14_21  and  O2_22 
REMARK    9  A    between atoms: C15_24  and  C16_25 
REMARK   10  A    between atoms: C16_25  and  C18_27 
REMARK   11  A    between atoms: C20_31  and  O3_32 
ROOT
HETATM    1  N1  UNL     1     -10.146  42.093  18.708  1.00  0.00    -0.254 N 
HETATM    2  N2  UNL     1     -11.165  41.730  17.825  1.00  0.00    -0.277 N 
ATOM      3  H2  UNL     1     -11.856  42.450  17.613  1.00  0.00     0.189 HD
HETATM    4  C11 UNL     1     -11.353  40.473  17.187  1.00  0.00     0.153 C 
HETATM    5  C12 UNL     1     -11.570  39.172  17.808  1.00  0.00     0.155 C 
HETATM    6  C13 UNL     1     -12.350  38.323  16.763  1.00  0.00     0.041 C 
HETATM    7  N3  UNL     1     -10.443  38.445  18.288  1.00  0.00    -0.361 N 
ATOM      8  H3  UNL     1     -10.577  37.434  18.275  1.00  0.00     0.162 HD
HETATM    9  C14 UNL     1      -9.191  38.832  18.774  1.00  0.00     0.135 C 
HETATM   10  C15 UNL     1      -8.032  39.414  18.119  1.00  0.00     0.163 C 
HETATM   11  N4  UNL     1      -8.090  40.829  17.843  1.00  0.00    -0.343 N 
ATOM     12  H4  UNL     1      -7.569  41.125  17.018  1.00  0.00     0.164 HD
HETATM   13  C20 UNL     1      -8.749  41.863  18.526  1.00  0.00     0.235 C 
ENDROOT
BRANCH   1  14
HETATM   14  C10 UNL     1     -10.599  42.815  19.919  1.00  0.00     0.165 C 
BRANCH  14  15
HETATM   15  C9  UNL     1     -11.501  41.917  20.743  1.00  0.00     0.115 C 
BRANCH  15  16
HETATM   16  C8  UNL     1     -10.663  41.297  21.771  1.00  0.00    -0.104 C 
HETATM   17  C7  UNL     1      -9.973  40.795  22.615  1.00  0.00    -0.097 C 
BRANCH  17  18
HETATM   18  C4  UNL     1      -9.137  40.189  23.676  1.00  0.00     0.016 C 
HETATM   19  C5  UNL     1      -7.783  39.801  23.145  1.00  0.00     0.029 C 
HETATM   20  C6  UNL     1      -9.875  39.004  24.264  1.00  0.00     0.029 C 
BRANCH  18  21
HETATM   21  C3  UNL     1      -8.973  41.209  24.753  1.00  0.00     0.021 C 
BRANCH  21  22
HETATM   22  C2  UNL     1      -7.990  42.265  24.242  1.00  0.00    -0.003 C 
HETATM   23  C1  UNL     1      -7.058  42.719  25.345  1.00  0.00     0.005 C 
ENDBRANCH  21  22
ENDBRANCH  18  21
ENDBRANCH  17  18
ENDBRANCH  15  16
ENDBRANCH  14  15
ENDBRANCH   1  14
BRANCH  13  24
HETATM   24  O3  UNL     1      -8.016  42.776  19.096  1.00  0.00    -0.331 OA
ATOM     25  H3  UNL     1      -7.723  42.518  19.961  1.00  0.00     0.221 HD
ENDBRANCH  13  24
BRANCH   4  26
HETATM   26  O1  UNL     1     -11.331  40.492  15.885  1.00  0.00    -0.347 OA
ATOM     27  H1  UNL     1     -10.917  39.745  15.469  1.00  0.00     0.219 HD
ENDBRANCH   4  26
BRANCH  10  28
HETATM   28  C16 UNL     1      -7.487  38.660  16.933  1.00  0.00     0.012 C 
HETATM   29  C17 UNL     1      -6.773  37.406  17.186  1.00  0.00     0.012 C 
BRANCH  28  30
HETATM   30  C18 UNL     1      -6.656  39.529  16.026  1.00  0.00     0.002 C 
HETATM   31  C19 UNL     1      -6.205  38.715  14.809  1.00  0.00     0.005 C 
ENDBRANCH  28  30
ENDBRANCH  10  28
BRANCH   9  32
HETATM   32  O2  UNL     1      -9.057  38.620  20.056  1.00  0.00    -0.348 OA
ATOM     33  H2  UNL     1      -8.452  39.225  20.470  1.00  0.00     0.219 HD
ENDBRANCH   9  32
TORSDOF 11
ENDMDL
MODEL 4
REMARK VINA RESULT: -6.090909408      2.858      6.181
REMARK  11 active torsions:
REMARK  status: ('A' for Active; 'I' for Inactive)
REMARK    1  A    between atoms: C2_2  and  C3_3 
REMARK    2  A    between atoms: C3_3  and  C4_4 
REMARK    3  A    between atoms: C4_4  and  C7_7 
REMARK    4  A    between atoms: C8_8  and  C9_9 
REMARK    5  A    between atoms: C9_9  and  C10_10 
REMARK    6  A    between atoms: C10_10  and  N1_11 
REMARK    7  A    between atoms: C11_14  and  O1_15 
REMARK    8  A    between atoms: C14_21  and  O2_22 
REMARK    9  A    between atoms: C15_24  and  C16_25 
REMARK   10  A    between atoms: C16_25  and  C18_27 
REMARK   11  A    between atoms: C20_31  and  O3_32 
ROOT
HETATM    1  N1  UNL     1     -10.102  41.455  19.049  1.00  0.00    -0.254 N 
HETATM    2  N2  UNL     1     -11.173  40.975  18.293  1.00  0.00    -0.277 N 
ATOM      3  H2  UNL     1     -11.973  41.601  18.194  1.00  0.00     0.189 HD
HETATM    4  C11 UNL     1     -11.281  39.714  17.643  1.00  0.00     0.153 C 
HETATM    5  C12 UNL     1     -11.245  38.387  18.246  1.00  0.00     0.155 C 
HETATM    6  C13 UNL     1     -12.040  37.458  17.283  1.00  0.00     0.041 C 
HETATM    7  N3  UNL     1      -9.980  37.807  18.553  1.00  0.00    -0.361 N 
ATOM      8  H3  UNL     1      -9.984  36.787  18.524  1.00  0.00     0.162 HD
HETATM    9  C14 UNL     1      -8.735  38.348  18.886  1.00  0.00     0.135 C 
HETATM   10  C15 UNL     1      -7.757  39.087  18.107  1.00  0.00     0.163 C 
HETATM   11  N4  UNL     1      -8.033  40.486  17.886  1.00  0.00    -0.343 N 
ATOM     12  H4  UNL     1      -7.667  40.861  17.011  1.00  0.00     0.164 HD
HETATM   13  C20 UNL     1      -8.723  41.414  18.681  1.00  0.00     0.235 C 
ENDROOT
BRANCH   1  14
HETATM   14  C10 UNL     1     -10.480  42.093  20.331  1.00  0.00     0.165 C 
BRANCH  14  15
HETATM   15  C9  UNL     1     -10.358  41.087  21.459  1.00  0.00     0.115 C 
BRANCH  15  16
HETATM   16  C8  UNL     1      -9.585  41.730  22.521  1.00  0.00    -0.104 C 
HETATM   17  C7  UNL     1      -8.945  42.254  23.393  1.00  0.00    -0.097 C 
BRANCH  17  18
HETATM   18  C4  UNL     1      -8.138  42.905  24.448  1.00  0.00     0.016 C 
HETATM   19  C5  UNL     1      -7.282  41.902  25.174  1.00  0.00     0.029 C 
HETATM   20  C6  UNL     1      -9.066  43.645  25.389  1.00  0.00     0.029 C 
BRANCH  18  21
HETATM   21  C3  UNL     1      -7.261  43.913  23.782  1.00  0.00     0.021 C 
BRANCH  21  22
HETATM   22  C2  UNL     1      -6.147  44.278  24.767  1.00  0.00    -0.003 C 
HETATM   23  C1  UNL     1      -5.270  45.379  24.212  1.00  0.00     0.005 C 
ENDBRANCH  21  22
ENDBRANCH  18  21
ENDBRANCH  17  18
ENDBRANCH  15  16
ENDBRANCH  14  15
ENDBRANCH   1  14
BRANCH  13  24
HETATM   24  O3  UNL     1      -8.045  42.407  19.181  1.00  0.00    -0.331 OA
ATOM     25  H3  UNL     1      -7.732  43.005  18.513  1.00  0.00     0.221 HD
ENDBRANCH  13  24
BRANCH   4  26
HETATM   26  O1  UNL     1     -11.433  39.755  16.351  1.00  0.00    -0.347 OA
ATOM     27  H1  UNL     1     -12.053  39.133  15.990  1.00  0.00     0.219 HD
ENDBRANCH   4  26
BRANCH  10  28
HETATM   28  C16 UNL     1      -7.281  38.429  16.837  1.00  0.00     0.012 C 
HETATM   29  C17 UNL     1      -6.487  37.204  16.955  1.00  0.00     0.012 C 
BRANCH  28  30
HETATM   30  C18 UNL     1      -6.575  39.390  15.916  1.00  0.00     0.002 C 
HETATM   31  C19 UNL     1      -6.092  38.643  14.669  1.00  0.00     0.005 C 
ENDBRANCH  28  30
ENDBRANCH  10  28
BRANCH   9  32
HETATM   32  O2  UNL     1      -8.407  38.136  20.133  1.00  0.00    -0.348 OA
ATOM     33  H2  UNL     1      -8.043  37.270  20.277  1.00  0.00     0.219 HD
ENDBRANCH   9  32
TORSDOF 11
ENDMDL
MODEL 5
REMARK VINA RESULT: -5.987666755      2.302      5.635
REMARK  11 active torsions:
REMARK  status: ('A' for Active; 'I' for Inactive)
REMARK    1  A    between atoms: C2_2  and  C3_3 
REMARK    2  A    between atoms: C3_3  and  C4_4 
REMARK    3  A    between atoms: C4_4  and  C7_7 
REMARK    4  A    between atoms: C8_8  and  C9_9 
REMARK    5  A    between atoms: C9_9  and  C10_10 
REMARK    6  A    between atoms: C10_10  and  N1_11 
REMARK    7  A    between atoms: C11_14  and  O1_15 
REMARK    8  A    between atoms: C14_21  and  O2_22 
REMARK    9  A    between atoms: C15_24  and  C16_25 
REMARK   10  A    between atoms: C16_25  and  C18_27 
REMARK   11  A    between atoms: C20_31  and  O3_32 
ROOT
HETATM    1  N1  UNL     1     -10.977  40.722  18.478  1.00  0.00    -0.254 N 
HETATM    2  N2  UNL     1     -11.756  39.583  18.255  1.00  0.00    -0.277 N 
ATOM      3  H2  UNL     1     -12.760  39.735  18.160  1.00  0.00     0.189 HD
HETATM    4  C11 UNL     1     -11.312  38.236  18.146  1.00  0.00     0.153 C 
HETATM    5  C12 UNL     1     -10.613  37.436  19.144  1.00  0.00     0.155 C 
HETATM    6  C13 UNL     1     -10.954  35.953  18.819  1.00  0.00     0.041 C 
HETATM    7  N3  UNL     1      -9.204  37.595  19.286  1.00  0.00    -0.361 N 
ATOM      8  H3  UNL     1      -8.733  36.754  19.620  1.00  0.00     0.162 HD
HETATM    9  C14 UNL     1      -8.334  38.667  19.061  1.00  0.00     0.135 C 
HETATM   10  C15 UNL     1      -7.880  39.310  17.841  1.00  0.00     0.163 C 
HETATM   11  N4  UNL     1      -8.794  40.240  17.224  1.00  0.00    -0.343 N 
ATOM     12  H4  UNL     1      -8.716  40.307  16.209  1.00  0.00     0.164 HD
HETATM   13  C20 UNL     1      -9.773  41.068  17.795  1.00  0.00     0.235 C 
ENDROOT
BRANCH   1  14
HETATM   14  C10 UNL     1     -11.507  41.648  19.505  1.00  0.00     0.165 C 
BRANCH  14  15
HETATM   15  C9  UNL     1     -11.923  40.865  20.735  1.00  0.00     0.115 C 
BRANCH  15  16
HETATM   16  C8  UNL     1     -10.853  41.020  21.721  1.00  0.00    -0.104 C 
HETATM   17  C7  UNL     1      -9.974  41.154  22.529  1.00  0.00    -0.097 C 
BRANCH  17  18
HETATM   18  C4  UNL     1      -8.909  41.332  23.541  1.00  0.00     0.016 C 
HETATM   19  C5  UNL     1      -8.042  40.105  23.638  1.00  0.00     0.029 C 
HETATM   20  C6  UNL     1      -9.549  41.681  24.869  1.00  0.00     0.029 C 
BRANCH  18  21
HETATM   21  C3  UNL     1      -8.076  42.495  23.114  1.00  0.00     0.021 C 
BRANCH  21  22
HETATM   22  C2  UNL     1      -7.592  43.205  24.381  1.00  0.00    -0.003 C 
HETATM   23  C1  UNL     1      -6.679  44.363  24.040  1.00  0.00     0.005 C 
ENDBRANCH  21  22
ENDBRANCH  18  21
ENDBRANCH  17  18
ENDBRANCH  15  16
ENDBRANCH  14  15
ENDBRANCH   1  14
BRANCH  13  24
HETATM   24  O3  UNL     1      -9.601  42.356  17.712  1.00  0.00    -0.331 OA
ATOM     25  H3  UNL     1      -9.290  42.626  16.857  1.00  0.00     0.221 HD
ENDBRANCH  13  24
BRANCH   4  26
HETATM   26  O1  UNL     1     -11.567  37.648  17.012  1.00  0.00    -0.347 OA
ATOM     27  H1  UNL     1     -12.132  36.886  17.062  1.00  0.00     0.219 HD
ENDBRANCH   4  26
BRANCH  10  28
HETATM   28  C16 UNL     1      -7.253  38.410  16.806  1.00  0.00     0.012 C 
HETATM   29  C17 UNL     1      -6.471  37.265  17.276  1.00  0.00     0.012 C 
BRANCH  28  30
HETATM   30  C18 UNL     1      -6.449  39.174  15.786  1.00  0.00     0.002 C 
HETATM   31  C19 UNL     1      -5.384  38.254  15.181  1.00  0.00     0.005 C 
ENDBRANCH  28  30
ENDBRANCH  10  28
BRANCH   9  32
HETATM   32  O2  UNL     1      -7.848  39.165  20.167  1.00  0.00    -0.348 OA
ATOM     33  H2  UNL     1      -6.901  39.235  20.155  1.00  0.00     0.219 HD
ENDBRANCH   9  32
TORSDOF 11
ENDMDL
