MODEL 1
REMARK VINA RESULT: -7.914595104      0.000      0.000
REMARK  6 active torsions:
REMARK  status: ('A' for Active; 'I' for Inactive)
REMARK    1  A    between atoms: C2_2  and  C3_3 
REMARK    2  A    between atoms: C3_3  and  C4_4 
REMARK    3  A    between atoms: C3_3  and  C6_6 
REMARK    4  A    between atoms: N2_20  and  C18_21 
REMARK    5  A    between atoms: C18_21  and  C19_22 
REMARK    6  A    between atoms: C19_22  and  N3_23 
ROOT
HETATM    1  C6  UNL     1      -7.576  38.113  17.858  1.00  0.00     0.091 C 
HETATM    2  C7  UNL     1      -8.388  39.326  18.105  1.00  0.00     0.067 C 
HETATM    3  C8  UNL     1      -9.662  38.902  18.838  1.00  0.00     0.124 C 
HETATM    4  C9  UNL     1     -10.824  39.199  17.963  1.00  0.00     0.082 C 
HETATM    5  C10 UNL     1     -12.044  39.607  18.655  1.00  0.00    -0.023 A 
HETATM    6  C11 UNL     1     -12.134  39.791  20.018  1.00  0.00     0.041 A 
HETATM    7  N1  UNL     1     -13.370  40.159  20.337  1.00  0.00    -0.361 N 
ATOM      8  H1  UNL     1     -13.705  40.360  21.279  1.00  0.00     0.165 HD
HETATM    9  C12 UNL     1     -14.104  40.224  19.219  1.00  0.00     0.012 A 
HETATM   10  C13 UNL     1     -15.550  40.604  19.167  1.00  0.00     0.068 C 
HETATM   11  C14 UNL     1     -13.291  39.882  18.157  1.00  0.00    -0.031 A 
HETATM   12  C15 UNL     1     -13.719  39.831  16.746  1.00  0.00     0.050 C 
HETATM   13  C16 UNL     1     -10.960  39.575  20.856  1.00  0.00     0.159 C 
HETATM   14  C17 UNL     1     -10.674  40.889  21.604  1.00  0.00     0.159 C 
HETATM   15  N2  UNL     1      -9.324  40.639  22.068  1.00  0.00    -0.330 N 
HETATM   16  C20 UNL     1      -8.719  39.778  21.110  1.00  0.00     0.322 C 
HETATM   17  O1  UNL     1      -7.504  39.464  21.155  1.00  0.00    -0.247 OA
HETATM   18  N4  UNL     1      -9.724  39.386  20.165  1.00  0.00    -0.303 N 
HETATM   19  C21 UNL     1      -9.490  37.405  18.935  1.00  0.00     0.247 C 
HETATM   20  O2  UNL     1     -10.052  36.597  19.719  1.00  0.00    -0.271 OA
HETATM   21  N5  UNL     1      -8.533  37.013  17.945  1.00  0.00    -0.354 N 
ATOM     22  H5  UNL     1      -8.522  36.144  17.410  1.00  0.00     0.162 HD
ENDROOT
BRANCH   1  23
HETATM   23  C3  UNL     1      -6.823  37.993  16.589  1.00  0.00     0.008 C 
BRANCH  23  24
HETATM   24  C2  UNL     1      -6.237  39.238  16.017  1.00  0.00     0.002 C 
HETATM   25  C1  UNL     1      -6.940  39.819  14.824  1.00  0.00     0.005 C 
ENDBRANCH  23  24
BRANCH  23  26
HETATM   26  C4  UNL     1      -5.663  37.003  16.895  1.00  0.00     0.002 C 
HETATM   27  C5  UNL     1      -4.747  36.824  15.729  1.00  0.00     0.005 C 
ENDBRANCH  23  26
ENDBRANCH   1  23
BRANCH  15  28
HETATM   28  C18 UNL     1      -8.754  41.188  23.282  1.00  0.00     0.154 C 
BRANCH  28  29
HETATM   29  C19 UNL     1      -8.718  40.090  24.310  1.00  0.00     0.249 C 
BRANCH  29  30
HETATM   30  N3  UNL     1      -7.430  39.424  24.354  1.00  0.00    -0.078 N 
ATOM     31  H33 UNL     1      -7.120  39.158  23.419  1.00  0.00     0.274 HD
ATOM     32  H32 UNL     1      -6.684  40.078  24.592  1.00  0.00     0.274 HD
ATOM     33  H31 UNL     1      -7.432  38.622  24.984  1.00  0.00     0.274 HD
ENDBRANCH  29  30
ENDBRANCH  28  29
ENDBRANCH  15  28
TORSDOF 6
ENDMDL
MODEL 2
REMARK VINA RESULT: -7.042040158      1.078      1.597
REMARK  6 active torsions:
REMARK  status: ('A' for Active; 'I' for Inactive)
REMARK    1  A    between atoms: C2_2  and  C3_3 
REMARK    2  A    between atoms: C3_3  and  C4_4 
REMARK    3  A    between atoms: C3_3  and  C6_6 
REMARK    4  A    between atoms: N2_20  and  C18_21 
REMARK    5  A    between atoms: C18_21  and  C19_22 
REMARK    6  A    between atoms: C19_22  and  N3_23 
ROOT
HETATM    1  C6  UNL     1      -7.831  38.308  18.348  1.00  0.00     0.091 C 
HETATM    2  C7  UNL     1      -8.696  39.479  18.618  1.00  0.00     0.067 C 
HETATM    3  C8  UNL     1     -10.106  38.967  18.918  1.00  0.00     0.124 C 
HETATM    4  C9  UNL     1     -11.019  39.467  17.860  1.00  0.00     0.082 C 
HETATM    5  C10 UNL     1     -12.378  39.776  18.296  1.00  0.00    -0.023 A 
HETATM    6  C11 UNL     1     -12.806  39.698  19.605  1.00  0.00     0.041 A 
HETATM    7  N1  UNL     1     -14.087  40.041  19.675  1.00  0.00    -0.361 N 
ATOM      8  H1  UNL     1     -14.648  40.068  20.527  1.00  0.00     0.165 HD
HETATM    9  C12 UNL     1     -14.522  40.344  18.446  1.00  0.00     0.012 A 
HETATM   10  C13 UNL     1     -15.915  40.778  18.115  1.00  0.00     0.068 C 
HETATM   11  C14 UNL     1     -13.466  40.184  17.571  1.00  0.00    -0.031 A 
HETATM   12  C15 UNL     1     -13.531  40.420  16.116  1.00  0.00     0.050 C 
HETATM   13  C16 UNL     1     -11.873  39.285  20.647  1.00  0.00     0.159 C 
HETATM   14  C17 UNL     1     -11.800  40.419  21.683  1.00  0.00     0.159 C 
HETATM   15  N2  UNL     1     -10.603  40.039  22.407  1.00  0.00    -0.330 N 
HETATM   16  C20 UNL     1      -9.768  39.357  21.479  1.00  0.00     0.322 C 
HETATM   17  O1  UNL     1      -8.598  38.998  21.759  1.00  0.00    -0.247 OA
HETATM   18  N4  UNL     1     -10.501  39.189  20.257  1.00  0.00    -0.303 N 
HETATM   19  C21 UNL     1      -9.943  37.473  18.762  1.00  0.00     0.247 C 
HETATM   20  O2  UNL     1     -10.669  36.551  19.211  1.00  0.00    -0.271 OA
HETATM   21  N5  UNL     1      -8.764  37.246  17.981  1.00  0.00    -0.354 N 
ATOM     22  H5  UNL     1      -8.608  36.496  17.306  1.00  0.00     0.162 HD
ENDROOT
BRANCH   1  23
HETATM   23  C3  UNL     1      -6.786  38.408  17.305  1.00  0.00     0.008 C 
BRANCH  23  24
HETATM   24  C2  UNL     1      -6.526  37.200  16.472  1.00  0.00     0.002 C 
HETATM   25  C1  UNL     1      -5.121  36.669  16.487  1.00  0.00     0.005 C 
ENDBRANCH  23  24
BRANCH  23  26
HETATM   26  C4  UNL     1      -7.254  39.557  16.366  1.00  0.00     0.002 C 
HETATM   27  C5  UNL     1      -6.636  39.470  15.009  1.00  0.00     0.005 C 
ENDBRANCH  23  26
ENDBRANCH   1  23
BRANCH  15  28
HETATM   28  C18 UNL     1     -10.360  40.325  23.806  1.00  0.00     0.154 C 
BRANCH  28  29
HETATM   29  C19 UNL     1     -10.655  39.073  24.589  1.00  0.00     0.249 C 
BRANCH  29  30
HETATM   30  N3  UNL     1      -9.482  38.233  24.739  1.00  0.00    -0.078 N 
ATOM     31  H33 UNL     1      -9.085  37.988  23.832  1.00  0.00     0.274 HD
ATOM     32  H32 UNL     1      -8.697  38.760  25.122  1.00  0.00     0.274 HD
ATOM     33  H31 UNL     1      -9.673  37.400  25.296  1.00  0.00     0.274 HD
ENDBRANCH  29  30
ENDBRANCH  28  29
ENDBRANCH  15  28
TORSDOF 6
ENDMDL
MODEL 3
REMARK VINA RESULT: -6.946377333      1.773      1.854
REMARK  6 active torsions:
REMARK  status: ('A' for Active; 'I' for Inactive)
REMARK    1  A    between atoms: C2_2  and  C3_3 
REMARK    2  A    between atoms: C3_3  and  C4_4 
REMARK    3  A    between atoms: C3_3  and  C6_6 
REMARK    4  A    between atoms: N2_20  and  C18_21 
REMARK    5  A    between atoms: C18_21  and  C19_22 
REMARK    6  A    between atoms: C19_22  and  N3_23 
ROOT
HETATM    1  C6  UNL     1      -7.789  38.845  17.993  1.00  0.00     0.091 C 
HETATM    2  C7  UNL     1      -9.070  39.585  17.937  1.00  0.00     0.067 C 
HETATM    3  C8  UNL     1      -9.899  39.190  19.160  1.00  0.00     0.124 C 
HETATM    4  C9  UNL     1     -11.127  38.501  18.689  1.00  0.00     0.082 C 
HETATM    5  C10 UNL     1     -12.323  38.727  19.495  1.00  0.00    -0.023 A 
HETATM    6  C11 UNL     1     -12.375  39.576  20.581  1.00  0.00     0.041 A 
HETATM    7  N1  UNL     1     -13.598  39.563  21.099  1.00  0.00    -0.361 N 
ATOM      8  H1  UNL     1     -13.905  40.102  21.908  1.00  0.00     0.165 HD
HETATM    9  C12 UNL     1     -14.361  38.727  20.384  1.00  0.00     0.012 A 
HETATM   10  C13 UNL     1     -15.804  38.443  20.657  1.00  0.00     0.068 C 
HETATM   11  C14 UNL     1     -13.581  38.195  19.377  1.00  0.00    -0.031 A 
HETATM   12  C15 UNL     1     -14.047  37.226  18.367  1.00  0.00     0.050 C 
HETATM   13  C16 UNL     1     -11.180  40.311  20.981  1.00  0.00     0.159 C 
HETATM   14  C17 UNL     1     -11.517  41.811  20.931  1.00  0.00     0.159 C 
HETATM   15  N2  UNL     1     -10.187  42.382  20.976  1.00  0.00    -0.330 N 
HETATM   16  C20 UNL     1      -9.320  41.440  20.354  1.00  0.00     0.322 C 
HETATM   17  O1  UNL     1      -8.111  41.684  20.122  1.00  0.00    -0.247 OA
HETATM   18  N4  UNL     1     -10.077  40.254  20.074  1.00  0.00    -0.303 N 
HETATM   19  C21 UNL     1      -9.001  38.185  19.843  1.00  0.00     0.247 C 
HETATM   20  O2  UNL     1      -9.020  37.797  21.038  1.00  0.00    -0.271 OA
HETATM   21  N5  UNL     1      -8.066  37.709  18.869  1.00  0.00    -0.354 N 
ATOM     22  H5  UNL     1      -7.672  36.770  18.801  1.00  0.00     0.162 HD
ENDROOT
BRANCH   1  23
HETATM   23  C3  UNL     1      -7.189  38.345  16.736  1.00  0.00     0.008 C 
BRANCH  23  24
HETATM   24  C2  UNL     1      -6.358  39.295  15.944  1.00  0.00     0.002 C 
HETATM   25  C1  UNL     1      -7.029  39.954  14.774  1.00  0.00     0.005 C 
ENDBRANCH  23  24
BRANCH  23  26
HETATM   26  C4  UNL     1      -6.290  37.147  17.161  1.00  0.00     0.002 C 
HETATM   27  C5  UNL     1      -5.253  36.824  16.136  1.00  0.00     0.005 C 
ENDBRANCH  23  26
ENDBRANCH   1  23
BRANCH  15  28
HETATM   28  C18 UNL     1      -9.861  43.669  21.555  1.00  0.00     0.154 C 
BRANCH  28  29
HETATM   29  C19 UNL     1      -9.444  43.438  22.983  1.00  0.00     0.249 C 
BRANCH  29  30
HETATM   30  N3  UNL     1      -8.053  43.041  23.089  1.00  0.00    -0.078 N 
ATOM     31  H33 UNL     1      -7.529  43.303  22.254  1.00  0.00     0.274 HD
ATOM     32  H32 UNL     1      -7.558  43.609  23.776  1.00  0.00     0.274 HD
ATOM     33  H31 UNL     1      -7.951  42.046  23.292  1.00  0.00     0.274 HD
ENDBRANCH  29  30
ENDBRANCH  28  29
ENDBRANCH  15  28
TORSDOF 6
ENDMDL
MODEL 4
REMARK VINA RESULT: -6.501073866      2.302      4.703
REMARK  6 active torsions:
REMARK  status: ('A' for Active; 'I' for Inactive)
REMARK    1  A    between atoms: C2_2  and  C3_3 
REMARK    2  A    between atoms: C3_3  and  C4_4 
REMARK    3  A    between atoms: C3_3  and  C6_6 
REMARK    4  A    between atoms: N2_20  and  C18_21 
REMARK    5  A    between atoms: C18_21  and  C19_22 
REMARK    6  A    between atoms: C19_22  and  N3_23 
ROOT
HETATM    1  C6  UNL     1      -7.945  38.880  17.280  1.00  0.00     0.091 C 
HETATM    2  C7  UNL     1      -8.514  38.676  18.631  1.00  0.00     0.067 C 
HETATM    3  C8  UNL     1      -9.390  39.885  18.964  1.00  0.00     0.124 C 
HETATM    4  C9  UNL     1      -8.793  40.589  20.127  1.00  0.00     0.082 C 
HETATM    5  C10 UNL     1      -9.746  41.208  21.044  1.00  0.00    -0.023 A 
HETATM    6  C11 UNL     1     -11.116  41.106  20.920  1.00  0.00     0.041 A 
HETATM    7  N1  UNL     1     -11.703  41.776  21.905  1.00  0.00    -0.361 N 
ATOM      8  H1  UNL     1     -12.709  41.861  22.048  1.00  0.00     0.165 HD
HETATM    9  C12 UNL     1     -10.757  42.322  22.681  1.00  0.00     0.012 A 
HETATM   10  C13 UNL     1     -11.023  43.154  23.895  1.00  0.00     0.068 C 
HETATM   11  C14 UNL     1      -9.528  41.977  22.157  1.00  0.00    -0.031 A 
HETATM   12  C15 UNL     1      -8.225  42.380  22.720  1.00  0.00     0.050 C 
HETATM   13  C16 UNL     1     -11.687  40.341  19.818  1.00  0.00     0.159 C 
HETATM   14  C17 UNL     1     -12.562  39.231  20.426  1.00  0.00     0.159 C 
HETATM   15  N2  UNL     1     -12.733  38.369  19.273  1.00  0.00    -0.330 N 
HETATM   16  C20 UNL     1     -11.563  38.520  18.477  1.00  0.00     0.322 C 
HETATM   17  O1  UNL     1     -11.341  37.817  17.461  1.00  0.00    -0.247 OA
HETATM   18  N4  UNL     1     -10.765  39.565  19.050  1.00  0.00    -0.303 N 
HETATM   19  C21 UNL     1      -9.228  40.744  17.733  1.00  0.00     0.247 C 
HETATM   20  O2  UNL     1      -9.967  41.672  17.316  1.00  0.00    -0.271 OA
HETATM   21  N5  UNL     1      -8.034  40.322  17.064  1.00  0.00    -0.354 N 
ATOM     22  H5  UNL     1      -7.380  40.907  16.543  1.00  0.00     0.162 HD
ENDROOT
BRANCH   1  23
HETATM   23  C3  UNL     1      -6.559  38.440  17.006  1.00  0.00     0.008 C 
BRANCH  23  24
HETATM   24  C2  UNL     1      -6.343  37.000  16.689  1.00  0.00     0.002 C 
HETATM   25  C1  UNL     1      -4.921  36.520  16.695  1.00  0.00     0.005 C 
ENDBRANCH  23  24
BRANCH  23  26
HETATM   26  C4  UNL     1      -6.096  39.283  15.783  1.00  0.00     0.002 C 
HETATM   27  C5  UNL     1      -6.170  38.517  14.504  1.00  0.00     0.005 C 
ENDBRANCH  23  26
ENDBRANCH   1  23
BRANCH  15  28
HETATM   28  C18 UNL     1     -13.894  37.537  19.031  1.00  0.00     0.154 C 
BRANCH  28  29
HETATM   29  C19 UNL     1     -13.443  36.101  19.052  1.00  0.00     0.249 C 
BRANCH  29  30
HETATM   30  N3  UNL     1     -13.420  35.516  17.725  1.00  0.00    -0.078 N 
ATOM     31  H33 UNL     1     -12.519  35.080  17.529  1.00  0.00     0.274 HD
ATOM     32  H32 UNL     1     -14.014  34.688  17.676  1.00  0.00     0.274 HD
ATOM     33  H31 UNL     1     -13.668  36.191  17.002  1.00  0.00     0.274 HD
ENDBRANCH  29  30
ENDBRANCH  28  29
ENDBRANCH  15  28
TORSDOF 6
ENDMDL
MODEL 5
REMARK VINA RESULT: -6.346584587      1.903      5.039
REMARK  6 active torsions:
REMARK  status: ('A' for Active; 'I' for Inactive)
REMARK    1  A    between atoms: C2_2  and  C3_3 
REMARK    2  A    between atoms: C3_3  and  C4_4 
REMARK    3  A    between atoms: C3_3  and  C6_6 
REMARK    4  A    between atoms: N2_20  and  C18_21 
REMARK    5  A    between atoms: C18_21  and  C19_22 
REMARK    6  A    between atoms: C19_22  and  N3_23 
ROOT
HETATM    1  C6  UNL     1      -8.067  39.496  17.220  1.00  0.00     0.091 C 
HETATM    2  C7  UNL     1      -8.721  38.826  18.366  1.00  0.00     0.067 C 
HETATM    3  C8  UNL     1      -9.308  39.907  19.276  1.00  0.00     0.124 C 
HETATM    4  C9  UNL     1      -8.611  39.844  20.585  1.00  0.00     0.082 C 
HETATM    5  C10 UNL     1      -9.432  40.167  21.750  1.00  0.00    -0.023 A 
HETATM    6  C11 UNL     1     -10.782  40.440  21.692  1.00  0.00     0.041 A 
HETATM    7  N1  UNL     1     -11.237  40.694  22.913  1.00  0.00    -0.361 N 
ATOM      8  H1  UNL     1     -12.202  40.926  23.150  1.00  0.00     0.165 HD
HETATM    9  C12 UNL     1     -10.223  40.596  23.782  1.00  0.00     0.012 A 
HETATM   10  C13 UNL     1     -10.339  40.812  25.258  1.00  0.00     0.068 C 
HETATM   11  C14 UNL     1      -9.086  40.267  23.072  1.00  0.00    -0.031 A 
HETATM   12  C15 UNL     1      -7.749  40.065  23.662  1.00  0.00     0.050 C 
HETATM   13  C16 UNL     1     -11.470  40.417  20.406  1.00  0.00     0.159 C 
HETATM   14  C17 UNL     1     -12.600  39.378  20.501  1.00  0.00     0.159 C 
HETATM   15  N2  UNL     1     -12.920  39.205  19.098  1.00  0.00    -0.330 N 
HETATM   16  C20 UNL     1     -11.716  39.440  18.377  1.00  0.00     0.322 C 
HETATM   17  O1  UNL     1     -11.621  39.254  17.139  1.00  0.00    -0.247 OA
HETATM   18  N4  UNL     1     -10.721  39.897  19.305  1.00  0.00    -0.303 N 
HETATM   19  C21 UNL     1      -8.903  41.176  18.564  1.00  0.00     0.247 C 
HETATM   20  O2  UNL     1      -9.392  42.329  18.671  1.00  0.00    -0.271 OA
HETATM   21  N5  UNL     1      -7.813  40.855  17.692  1.00  0.00    -0.354 N 
ATOM     22  H5  UNL     1      -7.022  41.452  17.450  1.00  0.00     0.162 HD
ENDROOT
BRANCH   1  23
HETATM   23  C3  UNL     1      -6.810  38.935  16.677  1.00  0.00     0.008 C 
BRANCH  23  24
HETATM   24  C2  UNL     1      -6.699  37.452  16.587  1.00  0.00     0.002 C 
HETATM   25  C1  UNL     1      -5.362  36.860  16.928  1.00  0.00     0.005 C 
ENDBRANCH  23  24
BRANCH  23  26
HETATM   26  C4  UNL     1      -6.688  39.521  15.241  1.00  0.00     0.002 C 
HETATM   27  C5  UNL     1      -5.939  38.616  14.319  1.00  0.00     0.005 C 
ENDBRANCH  23  26
ENDBRANCH   1  23
BRANCH  15  28
HETATM   28  C18 UNL     1     -14.230  38.859  18.588  1.00  0.00     0.154 C 
BRANCH  28  29
HETATM   29  C19 UNL     1     -14.830  40.100  17.983  1.00  0.00     0.249 C 
BRANCH  29  30
HETATM   30  N3  UNL     1     -14.748  40.097  16.534  1.00  0.00    -0.078 N 
ATOM     31  H33 UNL     1     -14.669  39.148  16.171  1.00  0.00     0.274 HD
ATOM     32  H32 UNL     1     -15.639  40.358  16.113  1.00  0.00     0.274 HD
ATOM     33  H31 UNL     1     -13.990  40.688  16.190  1.00  0.00     0.274 HD
ENDBRANCH  29  30
ENDBRANCH  28  29
ENDBRANCH  15  28
TORSDOF 6
ENDMDL
