MODEL 1
REMARK VINA RESULT: -7.806881161      0.000      0.000
REMARK  6 active torsions:
REMARK  status: ('A' for Active; 'I' for Inactive)
REMARK       I    between atoms: C1_4  and  N3_6 
REMARK    1  A    between atoms: N3_6  and  C2_8 
REMARK    2  A    between atoms: C2_8  and  C3_9 
REMARK    3  A    between atoms: C4_10  and  C5_11 
REMARK    4  A    between atoms: C5_11  and  C6_12 
REMARK    5  A    between atoms: C5_11  and  C17_26 
REMARK       I    between atoms: C6_12  and  N4_14 
REMARK    6  A    between atoms: N4_14  and  C7_16 
REMARK       I    between atoms: C17_26  and  N5_28 
ROOT
HETATM    1  C5  UNL     1      -8.383  38.444  18.814  1.00  0.00     0.192 C 
ENDROOT
BRANCH   1   2
HETATM    2  C4  UNL     1      -8.328  39.132  20.101  1.00  0.00    -0.006 C 
HETATM    3  C3  UNL     1      -8.377  38.748  21.329  1.00  0.00    -0.010 C 
BRANCH   3   4
HETATM    4  C2  UNL     1      -8.284  39.817  22.416  1.00  0.00     0.149 C 
BRANCH   4   5
HETATM    5  N3  UNL     1      -7.265  39.359  23.320  1.00  0.00    -0.361 N 
HETATM    6  C1  UNL     1      -7.455  39.479  24.711  1.00  0.00     0.181 C 
HETATM    7  N1  UNL     1      -8.487  38.905  25.244  1.00  0.00    -0.374 N 
HETATM    8  N2  UNL     1      -6.569  40.196  25.535  1.00  0.00    -0.064 NA
ATOM      9  H12 UNL     1      -8.624  38.992  26.251  1.00  0.00     0.158 HD
ATOM     10  H11 UNL     1      -9.129  38.385  24.647  1.00  0.00     0.158 HD
ATOM     11  H3  UNL     1      -6.405  38.949  22.955  1.00  0.00     0.162 HD
ENDBRANCH   4   5
ENDBRANCH   3   4
ENDBRANCH   1   2
BRANCH   1  12
HETATM   12  C6  UNL     1      -9.854  38.175  18.594  1.00  0.00     0.235 C 
HETATM   13  O1  UNL     1     -10.170  37.000  18.411  1.00  0.00    -0.272 OA
HETATM   14  N4  UNL     1     -10.748  39.267  18.609  1.00  0.00    -0.351 N 
ATOM     15  H4  UNL     1     -10.356  40.194  18.771  1.00  0.00     0.163 HD
BRANCH  14  16
HETATM   16  C7  UNL     1     -12.161  39.172  18.415  1.00  0.00     0.034 C 
HETATM   17  C8  UNL     1     -12.754  40.566  18.517  1.00  0.00     0.035 C 
HETATM   18  C9  UNL     1     -14.276  40.507  18.504  1.00  0.00    -0.012 C 
HETATM   19  C10 UNL     1     -14.651  39.878  17.160  1.00  0.00     0.009 C 
HETATM   20  C14 UNL     1     -14.818  39.674  19.624  1.00  0.00     0.009 C 
HETATM   21  C11 UNL     1     -14.072  38.489  17.073  1.00  0.00    -0.012 C 
HETATM   22  C12 UNL     1     -14.644  37.633  18.176  1.00  0.00     0.009 C 
HETATM   23  C16 UNL     1     -12.558  38.500  17.126  1.00  0.00     0.035 C 
HETATM   24  C13 UNL     1     -14.255  38.281  19.489  1.00  0.00    -0.012 C 
HETATM   25  C15 UNL     1     -12.760  38.360  19.539  1.00  0.00     0.035 C 
ENDBRANCH  14  16
ENDBRANCH   1  12
BRANCH   1  26
HETATM   26  C17 UNL     1      -7.802  39.176  17.699  1.00  0.00     0.236 C 
HETATM   27  O2  UNL     1      -8.054  40.368  17.406  1.00  0.00    -0.272 OA
HETATM   28  N5  UNL     1      -6.857  38.551  16.814  1.00  0.00    -0.351 N 
HETATM   29  C18 UNL     1      -6.226  39.154  15.685  1.00  0.00     0.126 C 
HETATM   30  C21 UNL     1      -6.403  37.190  16.965  1.00  0.00     0.126 C 
HETATM   31  C19 UNL     1      -5.605  38.013  14.921  1.00  0.00     0.021 C 
HETATM   32  C20 UNL     1      -5.223  37.047  16.020  1.00  0.00     0.021 C 
ENDBRANCH   1  26
TORSDOF 6
ENDMDL
MODEL 2
REMARK VINA RESULT: -7.757987588      0.469      1.340
REMARK  6 active torsions:
REMARK  status: ('A' for Active; 'I' for Inactive)
REMARK       I    between atoms: C1_4  and  N3_6 
REMARK    1  A    between atoms: N3_6  and  C2_8 
REMARK    2  A    between atoms: C2_8  and  C3_9 
REMARK    3  A    between atoms: C4_10  and  C5_11 
REMARK    4  A    between atoms: C5_11  and  C6_12 
REMARK    5  A    between atoms: C5_11  and  C17_26 
REMARK       I    between atoms: C6_12  and  N4_14 
REMARK    6  A    between atoms: N4_14  and  C7_16 
REMARK       I    between atoms: C17_26  and  N5_28 
ROOT
HETATM    1  C5  UNL     1      -8.482  38.529  18.806  1.00  0.00     0.192 C 
ENDROOT
BRANCH   1   2
HETATM    2  C4  UNL     1      -8.381  39.197  20.101  1.00  0.00    -0.006 C 
HETATM    3  C3  UNL     1      -8.390  38.793  21.324  1.00  0.00    -0.010 C 
BRANCH   3   4
HETATM    4  C2  UNL     1      -8.255  39.844  22.424  1.00  0.00     0.149 C 
BRANCH   4   5
HETATM    5  N3  UNL     1      -7.254  39.336  23.321  1.00  0.00    -0.361 N 
HETATM    6  C1  UNL     1      -7.447  39.430  24.714  1.00  0.00     0.181 C 
HETATM    7  N1  UNL     1      -8.497  38.876  25.230  1.00  0.00    -0.374 N 
HETATM    8  N2  UNL     1      -6.543  40.102  25.556  1.00  0.00    -0.064 NA
ATOM      9  H12 UNL     1      -8.636  38.945  26.238  1.00  0.00     0.158 HD
ATOM     10  H11 UNL     1      -9.152  38.388  24.619  1.00  0.00     0.158 HD
ATOM     11  H3  UNL     1      -6.405  38.908  22.949  1.00  0.00     0.162 HD
ENDBRANCH   4   5
ENDBRANCH   3   4
ENDBRANCH   1   2
BRANCH   1  12
HETATM   12  C6  UNL     1      -9.969  38.402  18.563  1.00  0.00     0.235 C 
HETATM   13  O1  UNL     1     -10.384  37.271  18.312  1.00  0.00    -0.272 OA
HETATM   14  N4  UNL     1     -10.765  39.565  18.637  1.00  0.00    -0.351 N 
ATOM     15  H4  UNL     1     -10.296  40.444  18.854  1.00  0.00     0.163 HD
BRANCH  14  16
HETATM   16  C7  UNL     1     -12.180  39.605  18.432  1.00  0.00     0.034 C 
HETATM   17  C8  UNL     1     -12.453  39.479  16.944  1.00  0.00     0.035 C 
HETATM   18  C9  UNL     1     -13.930  39.701  16.646  1.00  0.00    -0.012 C 
HETATM   19  C10 UNL     1     -14.672  38.599  17.407  1.00  0.00     0.009 C 
HETATM   20  C14 UNL     1     -14.403  41.045  17.108  1.00  0.00     0.009 C 
HETATM   21  C11 UNL     1     -14.408  38.740  18.885  1.00  0.00    -0.012 C 
HETATM   22  C12 UNL     1     -14.918  40.076  19.364  1.00  0.00     0.009 C 
HETATM   23  C16 UNL     1     -12.940  38.569  19.219  1.00  0.00     0.035 C 
HETATM   24  C13 UNL     1     -14.165  41.142  18.594  1.00  0.00    -0.012 C 
HETATM   25  C15 UNL     1     -12.703  40.956  18.859  1.00  0.00     0.035 C 
ENDBRANCH  14  16
ENDBRANCH   1  12
BRANCH   1  26
HETATM   26  C17 UNL     1      -7.820  39.215  17.706  1.00  0.00     0.236 C 
HETATM   27  O2  UNL     1      -8.000  40.412  17.387  1.00  0.00    -0.272 OA
HETATM   28  N5  UNL     1      -6.871  38.530  16.871  1.00  0.00    -0.351 N 
HETATM   29  C18 UNL     1      -6.164  39.084  15.761  1.00  0.00     0.126 C 
HETATM   30  C21 UNL     1      -6.491  37.151  17.060  1.00  0.00     0.126 C 
HETATM   31  C19 UNL     1      -5.569  37.902  15.041  1.00  0.00     0.021 C 
HETATM   32  C20 UNL     1      -5.281  36.937  16.168  1.00  0.00     0.021 C 
ENDBRANCH   1  26
TORSDOF 6
ENDMDL
MODEL 3
REMARK VINA RESULT: -7.730822860      1.214      1.592
REMARK  6 active torsions:
REMARK  status: ('A' for Active; 'I' for Inactive)
REMARK       I    between atoms: C1_4  and  N3_6 
REMARK    1  A    between atoms: N3_6  and  C2_8 
REMARK    2  A    between atoms: C2_8  and  C3_9 
REMARK    3  A    between atoms: C4_10  and  C5_11 
REMARK    4  A    between atoms: C5_11  and  C6_12 
REMARK    5  A    between atoms: C5_11  and  C17_26 
REMARK       I    between atoms: C6_12  and  N4_14 
REMARK    6  A    between atoms: N4_14  and  C7_16 
REMARK       I    between atoms: C17_26  and  N5_28 
ROOT
HETATM    1  C5  UNL     1      -8.417  38.250  18.654  1.00  0.00     0.192 C 
ENDROOT
BRANCH   1   2
HETATM    2  C4  UNL     1      -8.106  38.622  20.032  1.00  0.00    -0.006 C 
HETATM    3  C3  UNL     1      -8.458  39.592  20.802  1.00  0.00    -0.010 C 
BRANCH   3   4
HETATM    4  C2  UNL     1      -7.891  39.619  22.220  1.00  0.00     0.149 C 
BRANCH   4   5
HETATM    5  N3  UNL     1      -8.951  40.126  23.048  1.00  0.00    -0.361 N 
HETATM    6  C1  UNL     1      -9.855  39.232  23.657  1.00  0.00     0.181 C 
HETATM    7  N1  UNL     1      -9.384  38.320  24.446  1.00  0.00    -0.374 N 
HETATM    8  N2  UNL     1     -11.243  39.296  23.435  1.00  0.00    -0.064 NA
ATOM      9  H12 UNL     1     -10.039  37.674  24.886  1.00  0.00     0.158 HD
ATOM     10  H11 UNL     1      -8.378  38.274  24.607  1.00  0.00     0.158 HD
ATOM     11  H3  UNL     1      -9.048  41.131  23.195  1.00  0.00     0.162 HD
ENDBRANCH   4   5
ENDBRANCH   3   4
ENDBRANCH   1   2
BRANCH   1  12
HETATM   12  C6  UNL     1      -9.917  38.413  18.550  1.00  0.00     0.235 C 
HETATM   13  O1  UNL     1     -10.597  37.497  19.010  1.00  0.00    -0.272 OA
HETATM   14  N4  UNL     1     -10.427  39.580  17.942  1.00  0.00    -0.351 N 
ATOM     15  H4  UNL     1      -9.753  40.266  17.599  1.00  0.00     0.163 HD
BRANCH  14  16
HETATM   16  C7  UNL     1     -11.815  39.875  17.770  1.00  0.00     0.034 C 
HETATM   17  C8  UNL     1     -11.937  41.229  17.092  1.00  0.00     0.035 C 
HETATM   18  C9  UNL     1     -13.391  41.681  17.049  1.00  0.00    -0.012 C 
HETATM   19  C10 UNL     1     -14.127  40.618  16.229  1.00  0.00     0.009 C 
HETATM   20  C14 UNL     1     -13.993  41.775  18.417  1.00  0.00     0.009 C 
HETATM   21  C11 UNL     1     -14.014  39.282  16.917  1.00  0.00    -0.012 C 
HETATM   22  C12 UNL     1     -14.654  39.359  18.280  1.00  0.00     0.009 C 
HETATM   23  C16 UNL     1     -12.576  38.815  17.018  1.00  0.00     0.035 C 
HETATM   24  C13 UNL     1     -13.903  40.415  19.065  1.00  0.00    -0.012 C 
HETATM   25  C15 UNL     1     -12.464  40.007  19.127  1.00  0.00     0.035 C 
ENDBRANCH  14  16
ENDBRANCH   1  12
BRANCH   1  26
HETATM   26  C17 UNL     1      -7.725  39.025  17.635  1.00  0.00     0.236 C 
HETATM   27  O2  UNL     1      -7.901  40.244  17.410  1.00  0.00    -0.272 OA
HETATM   28  N5  UNL     1      -6.749  38.413  16.775  1.00  0.00    -0.351 N 
HETATM   29  C18 UNL     1      -6.012  39.057  15.737  1.00  0.00     0.126 C 
HETATM   30  C21 UNL     1      -6.370  37.023  16.860  1.00  0.00     0.126 C 
HETATM   31  C19 UNL     1      -5.391  37.939  14.939  1.00  0.00     0.021 C 
HETATM   32  C20 UNL     1      -5.133  36.885  15.990  1.00  0.00     0.021 C 
ENDBRANCH   1  26
TORSDOF 6
ENDMDL
MODEL 4
REMARK VINA RESULT: -7.728783929      1.751      2.604
REMARK  6 active torsions:
REMARK  status: ('A' for Active; 'I' for Inactive)
REMARK       I    between atoms: C1_4  and  N3_6 
REMARK    1  A    between atoms: N3_6  and  C2_8 
REMARK    2  A    between atoms: C2_8  and  C3_9 
REMARK    3  A    between atoms: C4_10  and  C5_11 
REMARK    4  A    between atoms: C5_11  and  C6_12 
REMARK    5  A    between atoms: C5_11  and  C17_26 
REMARK       I    between atoms: C6_12  and  N4_14 
REMARK    6  A    between atoms: N4_14  and  C7_16 
REMARK       I    between atoms: C17_26  and  N5_28 
ROOT
HETATM    1  C5  UNL     1      -8.935  39.224  18.554  1.00  0.00     0.192 C 
ENDROOT
BRANCH   1   2
HETATM    2  C4  UNL     1      -8.405  39.446  19.896  1.00  0.00    -0.006 C 
HETATM    3  C3  UNL     1      -8.031  38.672  20.854  1.00  0.00    -0.010 C 
BRANCH   3   4
HETATM    4  C2  UNL     1      -7.521  39.321  22.140  1.00  0.00     0.149 C 
BRANCH   4   5
HETATM    5  N3  UNL     1      -8.655  40.000  22.703  1.00  0.00    -0.361 N 
HETATM    6  C1  UNL     1      -9.659  39.262  23.363  1.00  0.00     0.181 C 
HETATM    7  N1  UNL     1      -9.321  38.532  24.377  1.00  0.00    -0.374 N 
HETATM    8  N2  UNL     1     -11.005  39.292  22.958  1.00  0.00    -0.064 NA
ATOM      9  H12 UNL     1     -10.047  37.998  24.854  1.00  0.00     0.158 HD
ATOM     10  H11 UNL     1      -8.344  38.511  24.671  1.00  0.00     0.158 HD
ATOM     11  H3  UNL     1      -8.734  41.015  22.626  1.00  0.00     0.162 HD
ENDBRANCH   4   5
ENDBRANCH   3   4
ENDBRANCH   1   2
BRANCH   1  12
HETATM   12  C6  UNL     1     -10.273  39.929  18.556  1.00  0.00     0.235 C 
HETATM   13  O1  UNL     1     -10.669  40.340  19.646  1.00  0.00    -0.272 OA
HETATM   14  N4  UNL     1     -10.965  40.065  17.334  1.00  0.00    -0.351 N 
ATOM     15  H4  UNL     1     -10.525  39.678  16.498  1.00  0.00     0.163 HD
BRANCH  14  16
HETATM   16  C7  UNL     1     -12.235  40.703  17.177  1.00  0.00     0.034 C 
HETATM   17  C8  UNL     1     -12.615  40.660  15.707  1.00  0.00     0.035 C 
HETATM   18  C9  UNL     1     -13.869  41.486  15.451  1.00  0.00    -0.012 C 
HETATM   19  C10 UNL     1     -14.969  40.836  16.293  1.00  0.00     0.009 C 
HETATM   20  C14 UNL     1     -13.694  42.916  15.858  1.00  0.00     0.009 C 
HETATM   21  C11 UNL     1     -14.591  40.896  17.751  1.00  0.00    -0.012 C 
HETATM   22  C12 UNL     1     -14.452  42.336  18.178  1.00  0.00     0.009 C 
HETATM   23  C16 UNL     1     -13.322  40.121  18.042  1.00  0.00     0.035 C 
HETATM   24  C13 UNL     1     -13.358  42.949  17.328  1.00  0.00    -0.012 C 
HETATM   25  C15 UNL     1     -12.105  42.160  17.551  1.00  0.00     0.035 C 
ENDBRANCH  14  16
ENDBRANCH   1  12
BRANCH   1  26
HETATM   26  C17 UNL     1      -8.087  39.697  17.470  1.00  0.00     0.236 C 
HETATM   27  O2  UNL     1      -8.116  40.848  16.977  1.00  0.00    -0.272 OA
HETATM   28  N5  UNL     1      -7.112  38.832  16.861  1.00  0.00    -0.351 N 
HETATM   29  C18 UNL     1      -6.231  39.169  15.791  1.00  0.00     0.126 C 
HETATM   30  C21 UNL     1      -6.888  37.468  17.275  1.00  0.00     0.126 C 
HETATM   31  C19 UNL     1      -5.666  37.856  15.314  1.00  0.00     0.021 C 
HETATM   32  C20 UNL     1      -5.605  37.040  16.584  1.00  0.00     0.021 C 
ENDBRANCH   1  26
TORSDOF 6
ENDMDL
MODEL 5
REMARK VINA RESULT: -7.615141252      1.733      2.660
REMARK  6 active torsions:
REMARK  status: ('A' for Active; 'I' for Inactive)
REMARK       I    between atoms: C1_4  and  N3_6 
REMARK    1  A    between atoms: N3_6  and  C2_8 
REMARK    2  A    between atoms: C2_8  and  C3_9 
REMARK    3  A    between atoms: C4_10  and  C5_11 
REMARK    4  A    between atoms: C5_11  and  C6_12 
REMARK    5  A    between atoms: C5_11  and  C17_26 
REMARK       I    between atoms: C6_12  and  N4_14 
REMARK    6  A    between atoms: N4_14  and  C7_16 
REMARK       I    between atoms: C17_26  and  N5_28 
ROOT
HETATM    1  C5  UNL     1      -8.889  39.281  18.606  1.00  0.00     0.192 C 
ENDROOT
BRANCH   1   2
HETATM    2  C4  UNL     1      -8.361  39.448  19.957  1.00  0.00    -0.006 C 
HETATM    3  C3  UNL     1      -7.992  38.635  20.885  1.00  0.00    -0.010 C 
BRANCH   3   4
HETATM    4  C2  UNL     1      -7.483  39.232  22.196  1.00  0.00     0.149 C 
BRANCH   4   5
HETATM    5  N3  UNL     1      -8.600  39.945  22.754  1.00  0.00    -0.361 N 
HETATM    6  C1  UNL     1      -9.625  39.237  23.413  1.00  0.00     0.181 C 
HETATM    7  N1  UNL     1      -9.310  38.501  24.431  1.00  0.00    -0.374 N 
HETATM    8  N2  UNL     1     -10.969  39.302  23.004  1.00  0.00    -0.064 NA
ATOM      9  H12 UNL     1     -10.053  37.990  24.908  1.00  0.00     0.158 HD
ATOM     10  H11 UNL     1      -8.336  38.455  24.728  1.00  0.00     0.158 HD
ATOM     11  H3  UNL     1      -8.650  40.960  22.672  1.00  0.00     0.162 HD
ENDBRANCH   4   5
ENDBRANCH   3   4
ENDBRANCH   1   2
BRANCH   1  12
HETATM   12  C6  UNL     1     -10.188  40.055  18.611  1.00  0.00     0.235 C 
HETATM   13  O1  UNL     1     -10.532  40.532  19.691  1.00  0.00    -0.272 OA
HETATM   14  N4  UNL     1     -10.905  40.175  17.401  1.00  0.00    -0.351 N 
ATOM     15  H4  UNL     1     -10.509  39.730  16.573  1.00  0.00     0.163 HD
BRANCH  14  16
HETATM   16  C7  UNL     1     -12.144  40.872  17.248  1.00  0.00     0.034 C 
HETATM   17  C8  UNL     1     -13.191  40.183  18.105  1.00  0.00     0.035 C 
HETATM   18  C9  UNL     1     -14.573  40.768  17.840  1.00  0.00    -0.012 C 
HETATM   19  C10 UNL     1     -14.474  42.245  18.225  1.00  0.00     0.009 C 
HETATM   20  C14 UNL     1     -14.973  40.641  16.403  1.00  0.00     0.009 C 
HETATM   21  C11 UNL     1     -13.444  42.925  17.359  1.00  0.00    -0.012 C 
HETATM   22  C12 UNL     1     -13.861  42.836  15.913  1.00  0.00     0.009 C 
HETATM   23  C16 UNL     1     -12.060  42.343  17.561  1.00  0.00     0.035 C 
HETATM   24  C13 UNL     1     -13.947  41.364  15.564  1.00  0.00    -0.012 C 
HETATM   25  C15 UNL     1     -12.604  40.751  15.815  1.00  0.00     0.035 C 
ENDBRANCH  14  16
ENDBRANCH   1  12
BRANCH   1  26
HETATM   26  C17 UNL     1      -8.006  39.729  17.539  1.00  0.00     0.236 C 
HETATM   27  O2  UNL     1      -7.959  40.894  17.081  1.00  0.00    -0.272 OA
HETATM   28  N5  UNL     1      -7.086  38.822  16.909  1.00  0.00    -0.351 N 
HETATM   29  C18 UNL     1      -6.179  39.133  15.852  1.00  0.00     0.126 C 
HETATM   30  C21 UNL     1      -6.951  37.435  17.283  1.00  0.00     0.126 C 
HETATM   31  C19 UNL     1      -5.697  37.801  15.338  1.00  0.00     0.021 C 
HETATM   32  C20 UNL     1      -5.695  36.945  16.584  1.00  0.00     0.021 C 
ENDBRANCH   1  26
TORSDOF 6
ENDMDL
