MODEL 1
REMARK VINA RESULT: -5.548354652      0.000      0.000
REMARK  5 active torsions:
REMARK  status: ('A' for Active; 'I' for Inactive)
REMARK    1  A    between atoms: C4_9  and  N3_10 
REMARK    2  A    between atoms: N3_10  and  C5_12 
REMARK    3  A    between atoms: C5_12  and  N4_14 
REMARK    4  A    between atoms: C7_18  and  N5_19 
REMARK    5  A    between atoms: N6_21  and  N7_23 
ROOT
HETATM    1  C1  UNL     1      28.565  30.947  45.723  1.00  0.00     0.071 C 
HETATM    2  C2  UNL     1      29.368  32.204  45.621  1.00  0.00     0.041 A 
HETATM    3  N1  UNL     1      29.664  32.760  44.433  1.00  0.00    -0.310 N 
ATOM      4  H1  UNL     1      29.328  32.308  43.583  1.00  0.00     0.170 HD
HETATM    5  C3  UNL     1      30.386  33.888  44.325  1.00  0.00     0.326 A 
HETATM    6  O1  UNL     1      30.629  34.360  43.169  1.00  0.00    -0.247 OA
HETATM    7  N2  UNL     1      30.823  34.478  45.447  1.00  0.00    -0.293 N 
ATOM      8  H2  UNL     1      31.370  35.335  45.367  1.00  0.00     0.172 HD
HETATM    9  C4  UNL     1      30.572  33.989  46.664  1.00  0.00     0.137 A 
HETATM   10  C7  UNL     1      29.819  32.812  46.753  1.00  0.00     0.115 A 
ENDROOT
BRANCH   9  11
HETATM   11  N3  UNL     1      30.995  34.558  47.759  1.00  0.00    -0.347 N 
ATOM     12  H3  UNL     1      31.680  34.093  48.355  1.00  0.00     0.163 HD
BRANCH  11  13
HETATM   13  C5  UNL     1      30.482  35.845  48.111  1.00  0.00     0.279 C 
HETATM   14  C6  UNL     1      29.888  35.877  49.517  1.00  0.00     0.063 C 
BRANCH  13  15
HETATM   15  N4  UNL     1      31.601  36.801  48.068  1.00  0.00    -0.059 N 
ATOM     16  H43 UNL     1      31.909  37.092  48.996  1.00  0.00     0.276 HD
ATOM     17  H42 UNL     1      32.477  36.373  47.764  1.00  0.00     0.276 HD
ATOM     18  H41 UNL     1      31.318  37.584  47.481  1.00  0.00     0.276 HD
ENDBRANCH  13  15
ENDBRANCH  11  13
ENDBRANCH   9  11
BRANCH  10  19
HETATM   19  N5  UNL     1      29.539  32.275  48.032  1.00  0.00    -0.281 N 
HETATM   20  N6  UNL     1      28.516  32.623  48.707  1.00  0.00    -0.245 N 
ATOM     21  H6  UNL     1      27.870  33.312  48.321  1.00  0.00     0.208 HD
ATOM     22  H5  UNL     1      30.179  31.585  48.428  1.00  0.00     0.188 HD
BRANCH  20  23
HETATM   23  N7  UNL     1      28.266  32.084  49.947  1.00  0.00    -0.322 N 
HETATM   24  C8  UNL     1      27.248  32.690  50.780  1.00  0.00     0.172 C 
HETATM   25  C9  UNL     1      28.982  30.936  50.450  1.00  0.00     0.172 C 
ENDBRANCH  20  23
ENDBRANCH  10  19
TORSDOF 5
ENDMDL
MODEL 2
REMARK VINA RESULT: -5.514008619      1.642      1.918
REMARK  5 active torsions:
REMARK  status: ('A' for Active; 'I' for Inactive)
REMARK    1  A    between atoms: C4_9  and  N3_10 
REMARK    2  A    between atoms: N3_10  and  C5_12 
REMARK    3  A    between atoms: C5_12  and  N4_14 
REMARK    4  A    between atoms: C7_18  and  N5_19 
REMARK    5  A    between atoms: N6_21  and  N7_23 
ROOT
HETATM    1  C1  UNL     1      28.488  30.268  46.984  1.00  0.00     0.071 C 
HETATM    2  C2  UNL     1      29.609  31.173  46.585  1.00  0.00     0.041 A 
HETATM    3  N1  UNL     1      30.368  30.926  45.503  1.00  0.00    -0.310 N 
ATOM      4  H1  UNL     1      30.168  30.098  44.943  1.00  0.00     0.170 HD
HETATM    5  C3  UNL     1      31.379  31.729  45.132  1.00  0.00     0.326 A 
HETATM    6  O1  UNL     1      32.056  31.435  44.097  1.00  0.00    -0.247 OA
HETATM    7  N2  UNL     1      31.635  32.817  45.873  1.00  0.00    -0.293 N 
ATOM      8  H2  UNL     1      32.402  33.430  45.593  1.00  0.00     0.172 HD
HETATM    9  C4  UNL     1      30.929  33.133  46.961  1.00  0.00     0.137 A 
HETATM   10  C7  UNL     1      29.880  32.281  47.329  1.00  0.00     0.115 A 
ENDROOT
BRANCH   9  11
HETATM   11  N3  UNL     1      31.174  34.190  47.686  1.00  0.00    -0.347 N 
ATOM     12  H3  UNL     1      31.675  34.108  48.571  1.00  0.00     0.163 HD
BRANCH  11  13
HETATM   13  C5  UNL     1      30.729  35.466  47.218  1.00  0.00     0.279 C 
HETATM   14  C6  UNL     1      30.014  36.272  48.300  1.00  0.00     0.063 C 
BRANCH  13  15
HETATM   15  N4  UNL     1      31.916  36.226  46.794  1.00  0.00    -0.059 N 
ATOM     16  H43 UNL     1      32.751  35.646  46.715  1.00  0.00     0.276 HD
ATOM     17  H42 UNL     1      31.868  36.526  45.820  1.00  0.00     0.276 HD
ATOM     18  H41 UNL     1      32.034  37.004  47.443  1.00  0.00     0.276 HD
ENDBRANCH  13  15
ENDBRANCH  11  13
ENDBRANCH   9  11
BRANCH  10  19
HETATM   19  N5  UNL     1      29.117  32.595  48.479  1.00  0.00    -0.281 N 
HETATM   20  N6  UNL     1      28.027  33.252  48.412  1.00  0.00    -0.245 N 
ATOM     21  H6  UNL     1      27.685  33.568  47.504  1.00  0.00     0.208 HD
ATOM     22  H5  UNL     1      29.450  32.284  49.391  1.00  0.00     0.188 HD
BRANCH  20  23
HETATM   23  N7  UNL     1      27.303  33.542  49.545  1.00  0.00    -0.322 N 
HETATM   24  C8  UNL     1      27.303  32.592  50.637  1.00  0.00     0.172 C 
HETATM   25  C9  UNL     1      26.542  34.761  49.686  1.00  0.00     0.172 C 
ENDBRANCH  20  23
ENDBRANCH  10  19
TORSDOF 5
ENDMDL
MODEL 3
REMARK VINA RESULT: -5.496540669      1.842      3.726
REMARK  5 active torsions:
REMARK  status: ('A' for Active; 'I' for Inactive)
REMARK    1  A    between atoms: C4_9  and  N3_10 
REMARK    2  A    between atoms: N3_10  and  C5_12 
REMARK    3  A    between atoms: C5_12  and  N4_14 
REMARK    4  A    between atoms: C7_18  and  N5_19 
REMARK    5  A    between atoms: N6_21  and  N7_23 
ROOT
HETATM    1  C1  UNL     1      29.647  35.778  49.707  1.00  0.00     0.071 C 
HETATM    2  C2  UNL     1      30.241  35.534  48.356  1.00  0.00     0.041 A 
HETATM    3  N1  UNL     1      30.926  36.488  47.702  1.00  0.00    -0.310 N 
ATOM      4  H1  UNL     1      31.041  37.401  48.144  1.00  0.00     0.170 HD
HETATM    5  C3  UNL     1      31.465  36.286  46.488  1.00  0.00     0.326 A 
HETATM    6  O1  UNL     1      32.101  37.233  45.926  1.00  0.00    -0.247 OA
HETATM    7  N2  UNL     1      31.312  35.084  45.914  1.00  0.00    -0.293 N 
ATOM      8  H2  UNL     1      31.722  34.926  44.992  1.00  0.00     0.172 HD
HETATM    9  C4  UNL     1      30.647  34.084  46.497  1.00  0.00     0.137 A 
HETATM   10  C7  UNL     1      30.093  34.318  47.762  1.00  0.00     0.115 A 
ENDROOT
BRANCH   9  11
HETATM   11  N3  UNL     1      30.494  32.913  45.943  1.00  0.00    -0.347 N 
ATOM     12  H3  UNL     1      29.605  32.651  45.518  1.00  0.00     0.163 HD
BRANCH  11  13
HETATM   13  C5  UNL     1      31.596  32.001  45.942  1.00  0.00     0.279 C 
HETATM   14  C6  UNL     1      31.203  30.605  46.418  1.00  0.00     0.063 C 
BRANCH  13  15
HETATM   15  N4  UNL     1      32.083  31.890  44.557  1.00  0.00    -0.059 N 
ATOM     16  H43 UNL     1      32.007  32.764  44.038  1.00  0.00     0.276 HD
ATOM     17  H42 UNL     1      33.096  31.787  44.499  1.00  0.00     0.276 HD
ATOM     18  H41 UNL     1      31.581  31.121  44.113  1.00  0.00     0.276 HD
ENDBRANCH  13  15
ENDBRANCH  11  13
ENDBRANCH   9  11
BRANCH  10  19
HETATM   19  N5  UNL     1      29.383  33.274  48.401  1.00  0.00    -0.281 N 
HETATM   20  N6  UNL     1      28.141  33.071  48.196  1.00  0.00    -0.245 N 
ATOM     21  H6  UNL     1      27.633  33.677  47.552  1.00  0.00     0.208 HD
ATOM     22  H5  UNL     1      29.882  32.663  49.048  1.00  0.00     0.188 HD
BRANCH  20  23
HETATM   23  N7  UNL     1      27.475  32.049  48.829  1.00  0.00    -0.322 N 
HETATM   24  C8  UNL     1      27.236  32.147  50.254  1.00  0.00     0.172 C 
HETATM   25  C9  UNL     1      27.005  30.879  48.125  1.00  0.00     0.172 C 
ENDBRANCH  20  23
ENDBRANCH  10  19
TORSDOF 5
ENDMDL
MODEL 4
REMARK VINA RESULT: -5.481849561      1.838      3.682
REMARK  5 active torsions:
REMARK  status: ('A' for Active; 'I' for Inactive)
REMARK    1  A    between atoms: C4_9  and  N3_10 
REMARK    2  A    between atoms: N3_10  and  C5_12 
REMARK    3  A    between atoms: C5_12  and  N4_14 
REMARK    4  A    between atoms: C7_18  and  N5_19 
REMARK    5  A    between atoms: N6_21  and  N7_23 
ROOT
HETATM    1  C1  UNL     1      29.128  35.556  49.620  1.00  0.00     0.071 C 
HETATM    2  C2  UNL     1      29.863  35.350  48.334  1.00  0.00     0.041 A 
HETATM    3  N1  UNL     1      30.580  36.335  47.763  1.00  0.00    -0.310 N 
ATOM      4  H1  UNL     1      30.621  37.243  48.226  1.00  0.00     0.170 HD
HETATM    5  C3  UNL     1      31.246  36.167  46.608  1.00  0.00     0.326 A 
HETATM    6  O1  UNL     1      31.904  37.142  46.125  1.00  0.00    -0.247 OA
HETATM    7  N2  UNL     1      31.190  34.970  46.007  1.00  0.00    -0.293 N 
ATOM      8  H2  UNL     1      31.695  34.839  45.131  1.00  0.00     0.172 HD
HETATM    9  C4  UNL     1      30.501  33.942  46.508  1.00  0.00     0.137 A 
HETATM   10  C7  UNL     1      29.814  34.140  47.712  1.00  0.00     0.115 A 
ENDROOT
BRANCH   9  11
HETATM   11  N3  UNL     1      30.442  32.775  45.927  1.00  0.00    -0.347 N 
ATOM     12  H3  UNL     1      29.584  32.464  45.472  1.00  0.00     0.163 HD
BRANCH  11  13
HETATM   13  C5  UNL     1      31.602  31.938  45.940  1.00  0.00     0.279 C 
HETATM   14  C6  UNL     1      31.290  30.508  46.375  1.00  0.00     0.063 C 
BRANCH  13  15
HETATM   15  N4  UNL     1      32.135  31.891  44.569  1.00  0.00    -0.059 N 
ATOM     16  H43 UNL     1      31.637  31.230  43.973  1.00  0.00     0.276 HD
ATOM     17  H42 UNL     1      31.930  32.735  44.033  1.00  0.00     0.276 HD
ATOM     18  H41 UNL     1      33.133  31.694  44.631  1.00  0.00     0.276 HD
ENDBRANCH  13  15
ENDBRANCH  11  13
ENDBRANCH   9  11
BRANCH  10  19
HETATM   19  N5  UNL     1      29.077  33.065  48.264  1.00  0.00    -0.281 N 
HETATM   20  N6  UNL     1      29.603  32.214  49.054  1.00  0.00    -0.245 N 
ATOM     21  H6  UNL     1      30.588  32.302  49.303  1.00  0.00     0.208 HD
ATOM     22  H5  UNL     1      28.091  32.968  48.020  1.00  0.00     0.188 HD
BRANCH  20  23
HETATM   23  N7  UNL     1      28.864  31.180  49.577  1.00  0.00    -0.322 N 
HETATM   24  C8  UNL     1      27.914  30.498  48.723  1.00  0.00     0.172 C 
HETATM   25  C9  UNL     1      28.999  30.747  50.948  1.00  0.00     0.172 C 
ENDBRANCH  20  23
ENDBRANCH  10  19
TORSDOF 5
ENDMDL
MODEL 5
REMARK VINA RESULT: -5.379167354      2.133      4.229
REMARK  5 active torsions:
REMARK  status: ('A' for Active; 'I' for Inactive)
REMARK    1  A    between atoms: C4_9  and  N3_10 
REMARK    2  A    between atoms: N3_10  and  C5_12 
REMARK    3  A    between atoms: C5_12  and  N4_14 
REMARK    4  A    between atoms: C7_18  and  N5_19 
REMARK    5  A    between atoms: N6_21  and  N7_23 
ROOT
HETATM    1  C1  UNL     1      30.758  34.304  45.693  1.00  0.00     0.071 C 
HETATM    2  C2  UNL     1      29.916  33.071  45.611  1.00  0.00     0.041 A 
HETATM    3  N1  UNL     1      29.986  32.234  44.561  1.00  0.00    -0.310 N 
ATOM      4  H1  UNL     1      30.634  32.451  43.803  1.00  0.00     0.170 HD
HETATM    5  C3  UNL     1      29.236  31.123  44.471  1.00  0.00     0.326 A 
HETATM    6  O1  UNL     1      29.354  30.375  43.449  1.00  0.00    -0.247 OA
HETATM    7  N2  UNL     1      28.388  30.843  45.471  1.00  0.00    -0.293 N 
ATOM      8  H2  UNL     1      27.818  29.999  45.407  1.00  0.00     0.172 HD
HETATM    9  C4  UNL     1      28.258  31.622  46.548  1.00  0.00     0.137 A 
HETATM   10  C7  UNL     1      29.050  32.776  46.619  1.00  0.00     0.115 A 
ENDROOT
BRANCH   9  11
HETATM   11  N3  UNL     1      27.434  31.356  47.524  1.00  0.00    -0.347 N 
ATOM     12  H3  UNL     1      26.587  31.908  47.653  1.00  0.00     0.163 HD
BRANCH  11  13
HETATM   13  C5  UNL     1      27.739  30.275  48.409  1.00  0.00     0.279 C 
HETATM   14  C6  UNL     1      28.396  30.744  49.705  1.00  0.00     0.063 C 
BRANCH  13  15
HETATM   15  N4  UNL     1      26.472  29.610  48.756  1.00  0.00    -0.059 N 
ATOM     16  H43 UNL     1      25.670  30.238  48.716  1.00  0.00     0.276 HD
ATOM     17  H42 UNL     1      26.162  28.950  48.042  1.00  0.00     0.276 HD
ATOM     18  H41 UNL     1      26.591  29.176  49.671  1.00  0.00     0.276 HD
ENDBRANCH  13  15
ENDBRANCH  11  13
ENDBRANCH   9  11
BRANCH  10  19
HETATM   19  N5  UNL     1      28.931  33.618  47.750  1.00  0.00    -0.281 N 
HETATM   20  N6  UNL     1      27.981  34.459  47.875  1.00  0.00    -0.245 N 
ATOM     21  H6  UNL     1      27.279  34.535  47.139  1.00  0.00     0.208 HD
ATOM     22  H5  UNL     1      29.629  33.549  48.491  1.00  0.00     0.188 HD
BRANCH  20  23
HETATM   23  N7  UNL     1      27.888  35.264  48.985  1.00  0.00    -0.322 N 
HETATM   24  C8  UNL     1      29.104  35.776  49.581  1.00  0.00     0.172 C 
HETATM   25  C9  UNL     1      26.621  35.619  49.579  1.00  0.00     0.172 C 
ENDBRANCH  20  23
ENDBRANCH  10  19
TORSDOF 5
ENDMDL
