MODEL 1
REMARK VINA RESULT: -6.016414477      0.000      0.000
REMARK  4 active torsions:
REMARK  status: ('A' for Active; 'I' for Inactive)
REMARK    1  A    between atoms: C2_2  and  C3_3 
REMARK    2  A    between atoms: C3_3  and  N1_4 
REMARK    3  A    between atoms: N1_4  and  C4_6 
REMARK    4  A    between atoms: C7_11  and  N3_12 
ROOT
HETATM    1  C4  UNL     1      30.955  35.295  47.392  1.00  0.00     0.681 A 
HETATM    2  N2  UNL     1      31.501  34.414  46.567  1.00  0.00    -0.174 N 
ATOM      3  H2  UNL     1      32.439  34.564  46.195  1.00  0.00     0.186 HD
HETATM    4  C5  UNL     1      30.800  33.321  46.227  1.00  0.00     0.150 A 
HETATM    5  C6  UNL     1      29.516  33.072  46.710  1.00  0.00     0.121 A 
HETATM    6  C7  UNL     1      28.956  33.997  47.569  1.00  0.00     0.145 A 
HETATM    7  N4  UNL     1      29.723  35.077  47.867  1.00  0.00    -0.175 N 
ATOM      8  H4  UNL     1      29.331  35.774  48.499  1.00  0.00     0.186 HD
HETATM    9  N5  UNL     1      29.032  31.835  46.200  1.00  0.00    -0.363 N 
HETATM   10  C8  UNL     1      28.024  30.966  46.763  1.00  0.00     0.152 C 
HETATM   11  C9  UNL     1      29.798  31.615  44.961  1.00  0.00     0.250 C 
HETATM   12  N6  UNL     1      31.074  32.197  45.368  1.00  0.00    -0.353 N 
HETATM   13  C10 UNL     1      32.381  31.730  44.974  1.00  0.00     0.153 C 
ENDROOT
BRANCH   1  14
HETATM   14  N1  UNL     1      31.531  36.377  47.787  1.00  0.00    -0.226 N 
ATOM     15  H1  UNL     1      32.284  36.273  48.466  1.00  0.00     0.177 HD
BRANCH  14  16
HETATM   16  C3  UNL     1      31.223  37.694  47.374  1.00  0.00     0.137 C 
BRANCH  16  17
HETATM   17  C2  UNL     1      32.507  38.445  47.035  1.00  0.00     0.016 C 
HETATM   18  C1  UNL     1      32.293  39.940  47.086  1.00  0.00     0.006 C 
ENDBRANCH  16  17
ENDBRANCH  14  16
ENDBRANCH   1  14
BRANCH   6  19
HETATM   19  N3  UNL     1      27.780  33.865  48.053  1.00  0.00    -0.383 N 
ATOM     20  H32 UNL     1      27.634  33.542  49.008  1.00  0.00     0.157 HD
ATOM     21  H31 UNL     1      26.938  34.083  47.520  1.00  0.00     0.157 HD
ENDBRANCH   6  19
TORSDOF 4
ENDMDL
MODEL 2
REMARK VINA RESULT: -6.002729571      1.144      1.161
REMARK  4 active torsions:
REMARK  status: ('A' for Active; 'I' for Inactive)
REMARK    1  A    between atoms: C2_2  and  C3_3 
REMARK    2  A    between atoms: C3_3  and  N1_4 
REMARK    3  A    between atoms: N1_4  and  C4_6 
REMARK    4  A    between atoms: C7_11  and  N3_12 
ROOT
HETATM    1  C4  UNL     1      31.044  34.570  46.931  1.00  0.00     0.681 A 
HETATM    2  N2  UNL     1      31.345  33.346  46.523  1.00  0.00    -0.174 N 
ATOM      3  H2  UNL     1      32.266  33.141  46.134  1.00  0.00     0.186 HD
HETATM    4  C5  UNL     1      30.419  32.380  46.628  1.00  0.00     0.150 A 
HETATM    5  C6  UNL     1      29.148  32.611  47.153  1.00  0.00     0.121 A 
HETATM    6  C7  UNL     1      28.844  33.891  47.574  1.00  0.00     0.145 A 
HETATM    7  N4  UNL     1      29.830  34.815  47.437  1.00  0.00    -0.175 N 
ATOM      8  H4  UNL     1      29.629  35.767  47.742  1.00  0.00     0.186 HD
HETATM    9  N5  UNL     1      28.394  31.405  47.160  1.00  0.00    -0.363 N 
HETATM   10  C8  UNL     1      27.275  31.052  48.004  1.00  0.00     0.152 C 
HETATM   11  C9  UNL     1      29.012  30.571  46.116  1.00  0.00     0.250 C 
HETATM   12  N6  UNL     1      30.403  30.981  46.280  1.00  0.00    -0.353 N 
HETATM   13  C10 UNL     1      31.561  30.135  46.117  1.00  0.00     0.153 C 
ENDROOT
BRANCH   1  14
HETATM   14  N1  UNL     1      31.849  35.573  46.879  1.00  0.00    -0.226 N 
ATOM     15  H1  UNL     1      32.836  35.362  46.730  1.00  0.00     0.177 HD
BRANCH  14  16
HETATM   16  C3  UNL     1      31.504  36.939  47.009  1.00  0.00     0.137 C 
BRANCH  16  17
HETATM   17  C2  UNL     1      32.661  37.814  46.538  1.00  0.00     0.016 C 
HETATM   18  C1  UNL     1      32.487  39.241  47.002  1.00  0.00     0.006 C 
ENDBRANCH  16  17
ENDBRANCH  14  16
ENDBRANCH   1  14
BRANCH   6  19
HETATM   19  N3  UNL     1      27.702  34.206  48.056  1.00  0.00    -0.383 N 
ATOM     20  H32 UNL     1      26.843  33.794  47.692  1.00  0.00     0.157 HD
ATOM     21  H31 UNL     1      27.593  34.868  48.824  1.00  0.00     0.157 HD
ENDBRANCH   6  19
TORSDOF 4
ENDMDL
MODEL 3
REMARK VINA RESULT: -5.894441134      1.546      2.437
REMARK  4 active torsions:
REMARK  status: ('A' for Active; 'I' for Inactive)
REMARK    1  A    between atoms: C2_2  and  C3_3 
REMARK    2  A    between atoms: C3_3  and  N1_4 
REMARK    3  A    between atoms: N1_4  and  C4_6 
REMARK    4  A    between atoms: C7_11  and  N3_12 
ROOT
HETATM    1  C4  UNL     1      31.115  35.389  47.481  1.00  0.00     0.681 A 
HETATM    2  N2  UNL     1      30.974  34.302  48.226  1.00  0.00    -0.174 N 
ATOM      3  H2  UNL     1      31.065  34.354  49.241  1.00  0.00     0.186 HD
HETATM    4  C5  UNL     1      30.709  33.132  47.623  1.00  0.00     0.150 A 
HETATM    5  C6  UNL     1      30.575  33.013  46.240  1.00  0.00     0.121 A 
HETATM    6  C7  UNL     1      30.726  34.152  45.474  1.00  0.00     0.145 A 
HETATM    7  N4  UNL     1      30.992  35.298  46.152  1.00  0.00    -0.175 N 
ATOM      8  H4  UNL     1      31.107  36.152  45.608  1.00  0.00     0.186 HD
HETATM    9  N5  UNL     1      30.276  31.666  45.892  1.00  0.00    -0.363 N 
HETATM   10  C8  UNL     1      29.606  31.174  44.710  1.00  0.00     0.152 C 
HETATM   11  C9  UNL     1      30.791  30.865  47.015  1.00  0.00     0.250 C 
HETATM   12  N6  UNL     1      30.513  31.790  48.110  1.00  0.00    -0.353 N 
HETATM   13  C10 UNL     1      30.115  31.424  49.448  1.00  0.00     0.153 C 
ENDROOT
BRANCH   1  14
HETATM   14  N1  UNL     1      31.370  36.563  47.947  1.00  0.00    -0.226 N 
ATOM     15  H1  UNL     1      31.708  36.611  48.908  1.00  0.00     0.177 HD
BRANCH  14  16
HETATM   16  C3  UNL     1      31.227  37.791  47.261  1.00  0.00     0.137 C 
BRANCH  16  17
HETATM   17  C2  UNL     1      32.587  38.465  47.114  1.00  0.00     0.016 C 
HETATM   18  C1  UNL     1      33.216  38.136  45.779  1.00  0.00     0.006 C 
ENDBRANCH  16  17
ENDBRANCH  14  16
ENDBRANCH   1  14
BRANCH   6  19
HETATM   19  N3  UNL     1      30.636  34.142  44.198  1.00  0.00    -0.383 N 
ATOM     20  H32 UNL     1      30.270  34.945  43.688  1.00  0.00     0.157 HD
ATOM     21  H31 UNL     1      30.929  33.346  43.632  1.00  0.00     0.157 HD
ENDBRANCH   6  19
TORSDOF 4
ENDMDL
MODEL 4
REMARK VINA RESULT: -5.882781952      1.383      5.219
REMARK  4 active torsions:
REMARK  status: ('A' for Active; 'I' for Inactive)
REMARK    1  A    between atoms: C2_2  and  C3_3 
REMARK    2  A    between atoms: C3_3  and  N1_4 
REMARK    3  A    between atoms: N1_4  and  C4_6 
REMARK    4  A    between atoms: C7_11  and  N3_12 
ROOT
HETATM    1  C4  UNL     1      30.919  32.787  45.578  1.00  0.00     0.681 A 
HETATM    2  N2  UNL     1      31.346  33.978  45.973  1.00  0.00    -0.174 N 
ATOM      3  H2  UNL     1      32.211  34.369  45.597  1.00  0.00     0.186 HD
HETATM    4  C5  UNL     1      30.623  34.661  46.874  1.00  0.00     0.150 A 
HETATM    5  C6  UNL     1      29.436  34.169  47.414  1.00  0.00     0.121 A 
HETATM    6  C7  UNL     1      29.001  32.926  46.997  1.00  0.00     0.145 A 
HETATM    7  N4  UNL     1      29.783  32.294  46.085  1.00  0.00    -0.175 N 
ATOM      8  H4  UNL     1      29.482  31.375  45.762  1.00  0.00     0.186 HD
HETATM    9  N5  UNL     1      28.881  35.115  48.321  1.00  0.00    -0.363 N 
HETATM   10  C8  UNL     1      27.503  35.265  48.727  1.00  0.00     0.152 C 
HETATM   11  C9  UNL     1      30.026  35.932  48.756  1.00  0.00     0.250 C 
HETATM   12  N6  UNL     1      30.794  35.941  47.514  1.00  0.00    -0.353 N 
HETATM   13  C10 UNL     1      31.589  37.038  47.018  1.00  0.00     0.153 C 
ENDROOT
BRANCH   1  14
HETATM   14  N1  UNL     1      31.528  32.042  44.722  1.00  0.00    -0.226 N 
ATOM     15  H1  UNL     1      31.214  32.107  43.754  1.00  0.00     0.177 HD
BRANCH  14  16
HETATM   16  C3  UNL     1      32.587  31.144  44.988  1.00  0.00     0.137 C 
BRANCH  16  17
HETATM   17  C2  UNL     1      32.228  29.752  44.479  1.00  0.00     0.016 C 
HETATM   18  C1  UNL     1      31.415  28.991  45.502  1.00  0.00     0.006 C 
ENDBRANCH  16  17
ENDBRANCH  14  16
ENDBRANCH   1  14
BRANCH   6  19
HETATM   19  N3  UNL     1      27.933  32.384  47.445  1.00  0.00    -0.383 N 
ATOM     20  H32 UNL     1      27.121  32.945  47.701  1.00  0.00     0.157 HD
ATOM     21  H31 UNL     1      27.835  31.375  47.558  1.00  0.00     0.157 HD
ENDBRANCH   6  19
TORSDOF 4
ENDMDL
MODEL 5
REMARK VINA RESULT: -5.837103326      1.349      3.144
REMARK  4 active torsions:
REMARK  status: ('A' for Active; 'I' for Inactive)
REMARK    1  A    between atoms: C2_2  and  C3_3 
REMARK    2  A    between atoms: C3_3  and  N1_4 
REMARK    3  A    between atoms: N1_4  and  C4_6 
REMARK    4  A    between atoms: C7_11  and  N3_12 
ROOT
HETATM    1  C4  UNL     1      31.121  36.266  47.591  1.00  0.00     0.681 A 
HETATM    2  N2  UNL     1      29.980  36.114  48.248  1.00  0.00    -0.174 N 
ATOM      3  H2  UNL     1      29.644  36.843  48.878  1.00  0.00     0.186 HD
HETATM    4  C5  UNL     1      29.276  34.985  48.073  1.00  0.00     0.150 A 
HETATM    5  C6  UNL     1      29.695  33.961  47.224  1.00  0.00     0.121 A 
HETATM    6  C7  UNL     1      30.885  34.130  46.544  1.00  0.00     0.145 A 
HETATM    7  N4  UNL     1      31.543  35.296  46.771  1.00  0.00    -0.175 N 
ATOM      8  H4  UNL     1      32.424  35.444  46.280  1.00  0.00     0.186 HD
HETATM    9  N5  UNL     1      28.742  32.905  47.223  1.00  0.00    -0.363 N 
HETATM   10  C8  UNL     1      28.502  31.916  46.197  1.00  0.00     0.152 C 
HETATM   11  C9  UNL     1      28.030  33.041  48.505  1.00  0.00     0.250 C 
HETATM   12  N6  UNL     1      28.037  34.496  48.623  1.00  0.00    -0.353 N 
HETATM   13  C10 UNL     1      26.987  35.304  49.195  1.00  0.00     0.153 C 
ENDROOT
BRANCH   1  14
HETATM   14  N1  UNL     1      31.879  37.303  47.679  1.00  0.00    -0.226 N 
ATOM     15  H1  UNL     1      32.023  37.688  48.612  1.00  0.00     0.177 HD
BRANCH  14  16
HETATM   16  C3  UNL     1      32.532  37.963  46.611  1.00  0.00     0.137 C 
BRANCH  16  17
HETATM   17  C2  UNL     1      32.630  39.456  46.907  1.00  0.00     0.016 C 
HETATM   18  C1  UNL     1      31.274  40.036  47.236  1.00  0.00     0.006 C 
ENDBRANCH  16  17
ENDBRANCH  14  16
ENDBRANCH   1  14
BRANCH   6  19
HETATM   19  N3  UNL     1      31.360  33.244  45.755  1.00  0.00    -0.383 N 
ATOM     20  H32 UNL     1      32.320  32.913  45.847  1.00  0.00     0.157 HD
ATOM     21  H31 UNL     1      30.810  32.820  45.009  1.00  0.00     0.157 HD
ENDBRANCH   6  19
TORSDOF 4
ENDMDL
