MODEL 1
REMARK VINA RESULT: -6.870492088      0.000      0.000
REMARK  4 active torsions:
REMARK  status: ('A' for Active; 'I' for Inactive)
REMARK    1  A    between atoms: C5_5  and  N1_6 
REMARK    2  A    between atoms: N1_6  and  C6_8 
REMARK    3  A    between atoms: C6_8  and  C7_9 
REMARK    4  A    between atoms: C11_18  and  N5_19 
ROOT
HETATM    1  C1  UNL     1      28.752  31.555  43.784  1.00  0.00     0.019 C 
HETATM    2  C2  UNL     1      29.324  32.091  44.700  1.00  0.00    -0.059 C 
HETATM    3  C3  UNL     1      29.983  32.714  45.798  1.00  0.00     0.105 A 
HETATM    4  C4  UNL     1      30.488  34.013  45.728  1.00  0.00     0.088 A 
HETATM    5  C5  UNL     1      31.119  34.572  46.819  1.00  0.00     0.119 A 
HETATM    6  N4  UNL     1      31.228  33.834  47.931  1.00  0.00    -0.177 N 
ATOM      7  H4  UNL     1      31.692  34.233  48.747  1.00  0.00     0.185 HD
HETATM    8  C11 UNL     1      30.744  32.582  48.004  1.00  0.00     0.678 A 
HETATM    9  N6  UNL     1      30.129  32.036  46.943  1.00  0.00    -0.184 N 
ATOM     10  H6  UNL     1      29.766  31.085  47.011  1.00  0.00     0.185 HD
ENDROOT
BRANCH   5  11
HETATM   11  N1  UNL     1      31.600  35.756  46.811  1.00  0.00    -0.370 N 
ATOM     12  H1  UNL     1      32.453  35.974  46.296  1.00  0.00     0.161 HD
BRANCH  11  13
HETATM   13  C6  UNL     1      30.901  36.775  47.551  1.00  0.00     0.179 C 
BRANCH  13  14
HETATM   14  C7  UNL     1      31.389  38.139  47.322  1.00  0.00     0.045 A 
HETATM   15  C8  UNL     1      32.675  38.460  46.881  1.00  0.00     0.115 A 
HETATM   16  N2  UNL     1      32.766  39.794  46.783  1.00  0.00    -0.360 N 
HETATM   17  C9  UNL     1      31.576  40.307  47.150  1.00  0.00     0.182 A 
ATOM     18  H2  UNL     1      33.586  40.323  46.486  1.00  0.00     0.166 HD
HETATM   19  N3  UNL     1      30.736  39.288  47.478  1.00  0.00    -0.348 N 
HETATM   20  C10 UNL     1      29.376  39.486  47.916  1.00  0.00     0.157 C 
ENDBRANCH  13  14
ENDBRANCH  11  13
ENDBRANCH   5  11
BRANCH   8  21
HETATM   21  N5  UNL     1      30.890  31.925  49.128  1.00  0.00    -0.234 N 
ATOM     22  H52 UNL     1      30.101  31.748  49.752  1.00  0.00     0.174 HD
ATOM     23  H51 UNL     1      31.821  31.588  49.374  1.00  0.00     0.174 HD
ENDBRANCH   8  21
TORSDOF 4
ENDMDL
MODEL 2
REMARK VINA RESULT: -6.558448999      1.482      1.711
REMARK  4 active torsions:
REMARK  status: ('A' for Active; 'I' for Inactive)
REMARK    1  A    between atoms: C5_5  and  N1_6 
REMARK    2  A    between atoms: N1_6  and  C6_8 
REMARK    3  A    between atoms: C6_8  and  C7_9 
REMARK    4  A    between atoms: C11_18  and  N5_19 
ROOT
HETATM    1  C1  UNL     1      31.921  29.776  45.789  1.00  0.00     0.019 C 
HETATM    2  C2  UNL     1      31.435  30.816  46.158  1.00  0.00    -0.059 C 
HETATM    3  C3  UNL     1      30.840  32.039  46.583  1.00  0.00     0.105 A 
HETATM    4  C4  UNL     1      31.515  33.258  46.528  1.00  0.00     0.088 A 
HETATM    5  C5  UNL     1      30.896  34.415  46.953  1.00  0.00     0.119 A 
HETATM    6  N4  UNL     1      29.641  34.325  47.412  1.00  0.00    -0.177 N 
ATOM      7  H4  UNL     1      29.168  35.172  47.730  1.00  0.00     0.185 HD
HETATM    8  C11 UNL     1      28.986  33.153  47.467  1.00  0.00     0.678 A 
HETATM    9  N6  UNL     1      29.587  32.026  47.055  1.00  0.00    -0.184 N 
ATOM     10  H6  UNL     1      29.079  31.142  47.101  1.00  0.00     0.185 HD
ENDROOT
BRANCH   5  11
HETATM   11  N1  UNL     1      31.466  35.558  46.925  1.00  0.00    -0.370 N 
ATOM     12  H1  UNL     1      32.338  35.698  46.414  1.00  0.00     0.161 HD
BRANCH  11  13
HETATM   13  C6  UNL     1      30.842  36.644  47.635  1.00  0.00     0.179 C 
BRANCH  13  14
HETATM   14  C7  UNL     1      31.389  37.969  47.328  1.00  0.00     0.045 A 
HETATM   15  C8  UNL     1      32.677  38.204  46.841  1.00  0.00     0.115 A 
HETATM   16  N2  UNL     1      32.831  39.526  46.676  1.00  0.00    -0.360 N 
HETATM   17  C9  UNL     1      31.677  40.114  47.047  1.00  0.00     0.182 A 
ATOM     18  H2  UNL     1      33.667  39.999  46.332  1.00  0.00     0.166 HD
HETATM   19  N3  UNL     1      30.798  39.155  47.445  1.00  0.00    -0.348 N 
HETATM   20  C10 UNL     1      29.462  39.442  47.907  1.00  0.00     0.157 C 
ENDBRANCH  13  14
ENDBRANCH  11  13
ENDBRANCH   5  11
BRANCH   8  21
HETATM   21  N5  UNL     1      27.759  33.149  47.930  1.00  0.00    -0.234 N 
ATOM     22  H52 UNL     1      27.488  33.716  48.733  1.00  0.00     0.174 HD
ATOM     23  H51 UNL     1      27.069  32.559  47.464  1.00  0.00     0.174 HD
ENDBRANCH   8  21
TORSDOF 4
ENDMDL
MODEL 3
REMARK VINA RESULT: -6.512552116      2.081      6.623
REMARK  4 active torsions:
REMARK  status: ('A' for Active; 'I' for Inactive)
REMARK    1  A    between atoms: C5_5  and  N1_6 
REMARK    2  A    between atoms: N1_6  and  C6_8 
REMARK    3  A    between atoms: C6_8  and  C7_9 
REMARK    4  A    between atoms: C11_18  and  N5_19 
ROOT
HETATM    1  C1  UNL     1      32.666  39.566  46.902  1.00  0.00     0.019 C 
HETATM    2  C2  UNL     1      32.079  38.522  47.041  1.00  0.00    -0.059 C 
HETATM    3  C3  UNL     1      31.383  37.294  47.228  1.00  0.00     0.105 A 
HETATM    4  C4  UNL     1      31.796  36.101  46.634  1.00  0.00     0.088 A 
HETATM    5  C5  UNL     1      31.087  34.937  46.845  1.00  0.00     0.119 A 
HETATM    6  N4  UNL     1      30.004  34.994  47.631  1.00  0.00    -0.177 N 
ATOM      7  H4  UNL     1      29.468  34.141  47.798  1.00  0.00     0.185 HD
HETATM    8  C11 UNL     1      29.602  36.140  48.207  1.00  0.00     0.678 A 
HETATM    9  N6  UNL     1      30.290  37.274  48.002  1.00  0.00    -0.184 N 
ATOM     10  H6  UNL     1      29.974  38.137  48.444  1.00  0.00     0.185 HD
ENDROOT
BRANCH   5  11
HETATM   11  N1  UNL     1      31.420  33.818  46.327  1.00  0.00    -0.370 N 
ATOM     12  H1  UNL     1      32.328  33.397  46.524  1.00  0.00     0.161 HD
BRANCH  11  13
HETATM   13  C6  UNL     1      30.475  33.167  45.457  1.00  0.00     0.179 C 
BRANCH  13  14
HETATM   14  C7  UNL     1      30.961  31.923  44.850  1.00  0.00     0.045 A 
HETATM   15  C8  UNL     1      32.291  31.497  44.866  1.00  0.00     0.115 A 
HETATM   16  N2  UNL     1      32.365  30.324  44.221  1.00  0.00    -0.360 N 
HETATM   17  C9  UNL     1      31.122  30.013  43.807  1.00  0.00     0.182 A 
ATOM     18  H2  UNL     1      33.208  29.769  44.071  1.00  0.00     0.166 HD
HETATM   19  N3  UNL     1      30.265  30.996  44.196  1.00  0.00    -0.348 N 
HETATM   20  C10 UNL     1      28.851  30.978  43.914  1.00  0.00     0.157 C 
ENDBRANCH  13  14
ENDBRANCH  11  13
ENDBRANCH   5  11
BRANCH   8  21
HETATM   21  N5  UNL     1      28.531  36.112  48.963  1.00  0.00    -0.234 N 
ATOM     22  H52 UNL     1      28.560  35.758  49.919  1.00  0.00     0.174 HD
ATOM     23  H51 UNL     1      27.654  36.457  48.572  1.00  0.00     0.174 HD
ENDBRANCH   8  21
TORSDOF 4
ENDMDL
MODEL 4
REMARK VINA RESULT: -6.423247642      2.552      6.846
REMARK  4 active torsions:
REMARK  status: ('A' for Active; 'I' for Inactive)
REMARK    1  A    between atoms: C5_5  and  N1_6 
REMARK    2  A    between atoms: N1_6  and  C6_8 
REMARK    3  A    between atoms: C6_8  and  C7_9 
REMARK    4  A    between atoms: C11_18  and  N5_19 
ROOT
HETATM    1  C1  UNL     1      27.923  36.144  50.595  1.00  0.00     0.019 C 
HETATM    2  C2  UNL     1      28.756  35.863  49.770  1.00  0.00    -0.059 C 
HETATM    3  C3  UNL     1      29.732  35.550  48.781  1.00  0.00     0.105 A 
HETATM    4  C4  UNL     1      30.070  34.237  48.454  1.00  0.00     0.088 A 
HETATM    5  C5  UNL     1      31.023  33.984  47.490  1.00  0.00     0.119 A 
HETATM    6  N4  UNL     1      31.602  35.032  46.887  1.00  0.00    -0.177 N 
ATOM      7  H4  UNL     1      32.308  34.862  46.170  1.00  0.00     0.185 HD
HETATM    8  C11 UNL     1      31.279  36.299  47.198  1.00  0.00     0.678 A 
HETATM    9  N6  UNL     1      30.352  36.546  48.137  1.00  0.00    -0.184 N 
ATOM     10  H6  UNL     1      30.116  37.512  48.364  1.00  0.00     0.185 HD
ENDROOT
BRANCH   5  11
HETATM   11  N1  UNL     1      31.372  32.803  47.151  1.00  0.00    -0.370 N 
ATOM     12  H1  UNL     1      31.739  32.146  47.839  1.00  0.00     0.161 HD
BRANCH  11  13
HETATM   13  C6  UNL     1      31.232  32.426  45.768  1.00  0.00     0.179 C 
BRANCH  13  14
HETATM   14  C7  UNL     1      31.409  30.995  45.504  1.00  0.00     0.045 A 
HETATM   15  C8  UNL     1      32.547  30.428  44.924  1.00  0.00     0.115 A 
HETATM   16  N2  UNL     1      32.360  29.103  44.838  1.00  0.00    -0.360 N 
HETATM   17  C9  UNL     1      31.142  28.834  45.347  1.00  0.00     0.182 A 
ATOM     18  H2  UNL     1      33.018  28.423  44.458  1.00  0.00     0.166 HD
HETATM   19  N3  UNL     1      30.565  29.997  45.755  1.00  0.00    -0.348 N 
HETATM   20  C10 UNL     1      29.253  30.070  46.349  1.00  0.00     0.157 C 
ENDBRANCH  13  14
ENDBRANCH  11  13
ENDBRANCH   5  11
BRANCH   8  21
HETATM   21  N5  UNL     1      31.890  37.268  46.562  1.00  0.00    -0.234 N 
ATOM     22  H52 UNL     1      31.798  37.389  45.553  1.00  0.00     0.174 HD
ATOM     23  H51 UNL     1      32.469  37.911  47.103  1.00  0.00     0.174 HD
ENDBRANCH   8  21
TORSDOF 4
ENDMDL
MODEL 5
REMARK VINA RESULT: -6.389028829      1.400      1.430
REMARK  4 active torsions:
REMARK  status: ('A' for Active; 'I' for Inactive)
REMARK    1  A    between atoms: C5_5  and  N1_6 
REMARK    2  A    between atoms: N1_6  and  C6_8 
REMARK    3  A    between atoms: C6_8  and  C7_9 
REMARK    4  A    between atoms: C11_18  and  N5_19 
ROOT
HETATM    1  C1  UNL     1      29.085  31.124  43.892  1.00  0.00     0.019 C 
HETATM    2  C2  UNL     1      29.175  31.901  44.809  1.00  0.00    -0.059 C 
HETATM    3  C3  UNL     1      29.256  32.823  45.892  1.00  0.00     0.105 A 
HETATM    4  C4  UNL     1      30.270  33.777  45.988  1.00  0.00     0.088 A 
HETATM    5  C5  UNL     1      30.307  34.647  47.057  1.00  0.00     0.119 A 
HETATM    6  N4  UNL     1      29.346  34.545  47.986  1.00  0.00    -0.177 N 
ATOM      7  H4  UNL     1      29.358  35.182  48.782  1.00  0.00     0.185 HD
HETATM    8  C11 UNL     1      28.367  33.628  47.898  1.00  0.00     0.678 A 
HETATM    9  N6  UNL     1      28.330  32.780  46.858  1.00  0.00    -0.184 N 
ATOM     10  H6  UNL     1      27.582  32.089  46.803  1.00  0.00     0.185 HD
ENDROOT
BRANCH   5  11
HETATM   11  N1  UNL     1      31.210  35.539  47.195  1.00  0.00    -0.370 N 
ATOM     12  H1  UNL     1      32.177  35.353  46.929  1.00  0.00     0.161 HD
BRANCH  11  13
HETATM   13  C6  UNL     1      30.824  36.816  47.738  1.00  0.00     0.179 C 
BRANCH  13  14
HETATM   14  C7  UNL     1      31.568  37.959  47.197  1.00  0.00     0.045 A 
HETATM   15  C8  UNL     1      32.792  37.867  46.531  1.00  0.00     0.115 A 
HETATM   16  N2  UNL     1      33.173  39.104  46.179  1.00  0.00    -0.360 N 
HETATM   17  C9  UNL     1      32.222  39.956  46.608  1.00  0.00     0.182 A 
ATOM     18  H2  UNL     1      34.026  39.354  45.678  1.00  0.00     0.166 HD
HETATM   19  N3  UNL     1      31.240  39.248  47.230  1.00  0.00    -0.348 N 
HETATM   20  C10 UNL     1      30.067  39.854  47.809  1.00  0.00     0.157 C 
ENDBRANCH  13  14
ENDBRANCH  11  13
ENDBRANCH   5  11
BRANCH   8  21
HETATM   21  N5  UNL     1      27.464  33.592  48.847  1.00  0.00    -0.234 N 
ATOM     22  H52 UNL     1      26.941  34.425  49.120  1.00  0.00     0.174 HD
ATOM     23  H51 UNL     1      27.291  32.703  49.316  1.00  0.00     0.174 HD
ENDBRANCH   8  21
TORSDOF 4
ENDMDL
