MODEL 1
REMARK VINA RESULT: -6.587392486      0.000      0.000
REMARK  4 active torsions:
REMARK  status: ('A' for Active; 'I' for Inactive)
REMARK    1  A    between atoms: C2_2  and  N1_3 
REMARK    2  A    between atoms: C2_2  and  C8_21 
REMARK    3  A    between atoms: N1_3  and  C3_5 
REMARK    4  A    between atoms: C5_13  and  O2_14 
ROOT
HETATM    1  C3  UNL     1     -11.585  -9.681  -5.771  1.00  0.00     0.186 A 
HETATM    2  N2  UNL     1     -12.441  -8.654  -5.672  1.00  0.00    -0.269 N 
ATOM      3  H2  UNL     1     -12.071  -7.732  -5.439  1.00  0.00     0.189 HD
HETATM    4  N3  UNL     1     -13.746  -8.785  -5.864  1.00  0.00    -0.182 N 
HETATM    5  C4  UNL     1     -14.792  -7.928  -5.825  1.00  0.00     0.349 A 
HETATM    6  O1  UNL     1     -14.724  -6.688  -5.565  1.00  0.00    -0.244 OA
HETATM    7  N4  UNL     1     -15.925  -8.586  -6.102  1.00  0.00    -0.284 N 
ATOM      8  H4  UNL     1     -16.861  -8.183  -6.140  1.00  0.00     0.172 HD
HETATM    9  C5  UNL     1     -15.606  -9.872  -6.323  1.00  0.00     0.191 A 
HETATM   10  C6  UNL     1     -14.255 -10.010  -6.178  1.00  0.00     0.186 A 
HETATM   11  N5  UNL     1     -13.453 -11.081  -6.292  1.00  0.00    -0.301 N 
ATOM     12  H5  UNL     1     -13.831 -11.999  -6.526  1.00  0.00     0.171 HD
HETATM   13  C7  UNL     1     -12.138 -10.904  -6.089  1.00  0.00     0.292 A 
HETATM   14  O3  UNL     1     -11.375 -11.901  -6.193  1.00  0.00    -0.264 OA
ENDROOT
BRANCH   1  15
HETATM   15  N1  UNL     1     -10.165  -9.548  -5.566  1.00  0.00    -0.358 N 
ATOM     16  H1  UNL     1      -9.541  -9.739  -6.350  1.00  0.00     0.162 HD
BRANCH  15  17
HETATM   17  C2  UNL     1      -9.588  -9.163  -4.322  1.00  0.00     0.168 C 
HETATM   18  C1  UNL     1      -8.464  -8.165  -4.620  1.00  0.00     0.042 C 
BRANCH  17  19
HETATM   19  C8  UNL     1      -8.952 -10.280  -3.584  1.00  0.00     0.253 C 
HETATM   20  N6  UNL     1      -7.966  -9.983  -2.612  1.00  0.00    -0.060 NA
HETATM   21  O4  UNL     1      -9.299 -11.456  -3.835  1.00  0.00    -0.275 OA
ENDBRANCH  17  19
ENDBRANCH  15  17
ENDBRANCH   1  15
BRANCH   9  22
HETATM   22  O2  UNL     1     -16.520 -10.887  -6.645  1.00  0.00    -0.343 OA
ATOM     23  H2  UNL     1     -16.291 -11.738  -7.001  1.00  0.00     0.219 HD
ENDBRANCH   9  22
TORSDOF 4
ENDMDL
MODEL 2
REMARK VINA RESULT: -6.425432232      1.775      2.065
REMARK  4 active torsions:
REMARK  status: ('A' for Active; 'I' for Inactive)
REMARK    1  A    between atoms: C2_2  and  N1_3 
REMARK    2  A    between atoms: C2_2  and  C8_21 
REMARK    3  A    between atoms: N1_3  and  C3_5 
REMARK    4  A    between atoms: C5_13  and  O2_14 
ROOT
HETATM    1  C3  UNL     1     -10.126  -9.578  -5.463  1.00  0.00     0.186 A 
HETATM    2  N2  UNL     1     -11.049  -8.837  -6.093  1.00  0.00    -0.269 N 
ATOM      3  H2  UNL     1     -10.850  -7.851  -6.263  1.00  0.00     0.189 HD
HETATM    4  N3  UNL     1     -12.208  -9.329  -6.505  1.00  0.00    -0.182 N 
HETATM    5  C4  UNL     1     -13.277  -8.806  -7.147  1.00  0.00     0.349 A 
HETATM    6  O1  UNL     1     -13.398  -7.600  -7.524  1.00  0.00    -0.244 OA
HETATM    7  N4  UNL     1     -14.205  -9.755  -7.329  1.00  0.00    -0.284 N 
ATOM      8  H4  UNL     1     -15.109  -9.633  -7.785  1.00  0.00     0.172 HD
HETATM    9  C5  UNL     1     -13.730 -10.896  -6.803  1.00  0.00     0.191 A 
HETATM   10  C6  UNL     1     -12.490 -10.646  -6.287  1.00  0.00     0.186 A 
HETATM   11  N5  UNL     1     -11.610 -11.445  -5.661  1.00  0.00    -0.301 N 
ATOM     12  H5  UNL     1     -11.817 -12.429  -5.495  1.00  0.00     0.171 HD
HETATM   13  C7  UNL     1     -10.448 -10.903  -5.260  1.00  0.00     0.292 A 
HETATM   14  O3  UNL     1      -9.613 -11.642  -4.672  1.00  0.00    -0.264 OA
ENDROOT
BRANCH   1  15
HETATM   15  N1  UNL     1      -8.863  -9.051  -5.014  1.00  0.00    -0.358 N 
ATOM     16  H1  UNL     1      -8.015  -9.348  -5.496  1.00  0.00     0.162 HD
BRANCH  15  17
HETATM   17  C2  UNL     1      -8.740  -8.136  -3.929  1.00  0.00     0.168 C 
HETATM   18  C1  UNL     1      -7.507  -7.264  -4.196  1.00  0.00     0.042 C 
BRANCH  17  19
HETATM   19  C8  UNL     1      -8.499  -8.786  -2.619  1.00  0.00     0.253 C 
HETATM   20  N6  UNL     1      -7.762  -9.994  -2.581  1.00  0.00    -0.060 NA
HETATM   21  O4  UNL     1      -8.950  -8.253  -1.580  1.00  0.00    -0.275 OA
ENDBRANCH  17  19
ENDBRANCH  15  17
ENDBRANCH   1  15
BRANCH   9  22
HETATM   22  O2  UNL     1     -14.407 -12.124  -6.792  1.00  0.00    -0.343 OA
ATOM     23  H2  UNL     1     -14.116 -12.906  -6.337  1.00  0.00     0.219 HD
ENDBRANCH   9  22
TORSDOF 4
ENDMDL
MODEL 3
REMARK VINA RESULT: -6.319392993      3.431      5.303
REMARK  4 active torsions:
REMARK  status: ('A' for Active; 'I' for Inactive)
REMARK    1  A    between atoms: C2_2  and  N1_3 
REMARK    2  A    between atoms: C2_2  and  C8_21 
REMARK    3  A    between atoms: N1_3  and  C3_5 
REMARK    4  A    between atoms: C5_13  and  O2_14 
ROOT
HETATM    1  C3  UNL     1     -15.597  -8.495  -5.993  1.00  0.00     0.186 A 
HETATM    2  N2  UNL     1     -14.946  -7.619  -6.772  1.00  0.00    -0.269 N 
ATOM      3  H2  UNL     1     -14.583  -7.940  -7.669  1.00  0.00     0.189 HD
HETATM    4  N3  UNL     1     -14.755  -6.353  -6.427  1.00  0.00    -0.182 N 
HETATM    5  C4  UNL     1     -14.149  -5.299  -7.019  1.00  0.00     0.349 A 
HETATM    6  O1  UNL     1     -13.575  -5.314  -8.150  1.00  0.00    -0.244 OA
HETATM    7  N4  UNL     1     -14.240  -4.223  -6.227  1.00  0.00    -0.284 N 
ATOM      8  H4  UNL     1     -13.868  -3.294  -6.428  1.00  0.00     0.172 HD
HETATM    9  C5  UNL     1     -14.910  -4.585  -5.121  1.00  0.00     0.191 A 
HETATM   10  C6  UNL     1     -15.236  -5.907  -5.231  1.00  0.00     0.186 A 
HETATM   11  N5  UNL     1     -15.897  -6.732  -4.403  1.00  0.00    -0.301 N 
ATOM     12  H5  UNL     1     -16.258  -6.402  -3.508  1.00  0.00     0.171 HD
HETATM   13  C7  UNL     1     -16.068  -8.006  -4.792  1.00  0.00     0.292 A 
HETATM   14  O3  UNL     1     -16.687  -8.790  -4.025  1.00  0.00    -0.264 OA
ENDROOT
BRANCH   1  15
HETATM   15  N1  UNL     1     -15.811  -9.871  -6.361  1.00  0.00    -0.358 N 
ATOM     16  H1  UNL     1     -16.690 -10.314  -6.091  1.00  0.00     0.162 HD
BRANCH  15  17
HETATM   17  C2  UNL     1     -14.857 -10.644  -7.082  1.00  0.00     0.168 C 
HETATM   18  C1  UNL     1     -15.195 -12.123  -6.862  1.00  0.00     0.042 C 
BRANCH  17  19
HETATM   19  C8  UNL     1     -13.464 -10.473  -6.608  1.00  0.00     0.253 C 
HETATM   20  N6  UNL     1     -13.003 -11.276  -5.535  1.00  0.00    -0.060 NA
HETATM   21  O4  UNL     1     -12.727  -9.628  -7.163  1.00  0.00    -0.275 OA
ENDBRANCH  17  19
ENDBRANCH  15  17
ENDBRANCH   1  15
BRANCH   9  22
HETATM   22  O2  UNL     1     -15.213  -3.737  -4.045  1.00  0.00    -0.343 OA
ATOM     23  H2  UNL     1     -16.053  -3.692  -3.602  1.00  0.00     0.219 HD
ENDBRANCH   9  22
TORSDOF 4
ENDMDL
MODEL 4
REMARK VINA RESULT: -6.214774452      1.700      2.672
REMARK  4 active torsions:
REMARK  status: ('A' for Active; 'I' for Inactive)
REMARK    1  A    between atoms: C2_2  and  N1_3 
REMARK    2  A    between atoms: C2_2  and  C8_21 
REMARK    3  A    between atoms: N1_3  and  C3_5 
REMARK    4  A    between atoms: C5_13  and  O2_14 
ROOT
HETATM    1  C3  UNL     1     -11.543  -9.784  -6.143  1.00  0.00     0.186 A 
HETATM    2  N2  UNL     1     -12.479 -10.743  -6.168  1.00  0.00    -0.269 N 
ATOM      3  H2  UNL     1     -12.178 -11.718  -6.169  1.00  0.00     0.189 HD
HETATM    4  N3  UNL     1     -13.778 -10.480  -6.192  1.00  0.00    -0.182 N 
HETATM    5  C4  UNL     1     -14.892 -11.247  -6.218  1.00  0.00     0.349 A 
HETATM    6  O1  UNL     1     -14.918 -12.515  -6.229  1.00  0.00    -0.244 OA
HETATM    7  N4  UNL     1     -15.979 -10.464  -6.234  1.00  0.00    -0.284 N 
ATOM      8  H4  UNL     1     -16.948 -10.781  -6.256  1.00  0.00     0.172 HD
HETATM    9  C5  UNL     1     -15.562  -9.187  -6.216  1.00  0.00     0.191 A 
HETATM   10  C6  UNL     1     -14.196  -9.182  -6.190  1.00  0.00     0.186 A 
HETATM   11  N5  UNL     1     -13.311  -8.172  -6.165  1.00  0.00    -0.301 N 
ATOM     12  H5  UNL     1     -13.620  -7.201  -6.164  1.00  0.00     0.171 HD
HETATM   13  C7  UNL     1     -12.006  -8.485  -6.142  1.00  0.00     0.292 A 
HETATM   14  O3  UNL     1     -11.165  -7.547  -6.119  1.00  0.00    -0.264 OA
ENDROOT
BRANCH   1  15
HETATM   15  N1  UNL     1     -10.129 -10.061  -6.114  1.00  0.00    -0.358 N 
ATOM     16  H1  UNL     1      -9.581  -9.871  -6.953  1.00  0.00     0.162 HD
BRANCH  15  17
HETATM   17  C2  UNL     1      -9.459 -10.587  -4.973  1.00  0.00     0.168 C 
HETATM   18  C1  UNL     1     -10.332 -11.709  -4.398  1.00  0.00     0.042 C 
BRANCH  17  19
HETATM   19  C8  UNL     1      -9.286  -9.607  -3.875  1.00  0.00     0.253 C 
HETATM   20  N6  UNL     1      -8.563  -8.416  -4.129  1.00  0.00    -0.060 NA
HETATM   21  O4  UNL     1      -9.781  -9.852  -2.752  1.00  0.00    -0.275 OA
ENDBRANCH  17  19
ENDBRANCH  15  17
ENDBRANCH   1  15
BRANCH   9  22
HETATM   22  O2  UNL     1     -16.402  -8.063  -6.224  1.00  0.00    -0.343 OA
ATOM     23  H2  UNL     1     -16.879  -7.741  -6.980  1.00  0.00     0.219 HD
ENDBRANCH   9  22
TORSDOF 4
ENDMDL
MODEL 5
REMARK VINA RESULT: -6.173398073      2.898      5.928
REMARK  4 active torsions:
REMARK  status: ('A' for Active; 'I' for Inactive)
REMARK    1  A    between atoms: C2_2  and  N1_3 
REMARK    2  A    between atoms: C2_2  and  C8_21 
REMARK    3  A    between atoms: N1_3  and  C3_5 
REMARK    4  A    between atoms: C5_13  and  O2_14 
ROOT
HETATM    1  C3  UNL     1     -15.030  -7.408  -5.993  1.00  0.00     0.186 A 
HETATM    2  N2  UNL     1     -15.650  -8.577  -6.205  1.00  0.00    -0.269 N 
ATOM      3  H2  UNL     1     -16.668  -8.584  -6.273  1.00  0.00     0.189 HD
HETATM    4  N3  UNL     1     -14.998  -9.724  -6.332  1.00  0.00    -0.182 N 
HETATM    5  C4  UNL     1     -15.380 -11.004  -6.546  1.00  0.00     0.349 A 
HETATM    6  O1  UNL     1     -16.575 -11.408  -6.681  1.00  0.00    -0.244 OA
HETATM    7  N4  UNL     1     -14.301 -11.796  -6.593  1.00  0.00    -0.284 N 
ATOM      8  H4  UNL     1     -14.301 -12.805  -6.741  1.00  0.00     0.172 HD
HETATM    9  C5  UNL     1     -13.219 -11.022  -6.410  1.00  0.00     0.191 A 
HETATM   10  C6  UNL     1     -13.637  -9.732  -6.246  1.00  0.00     0.186 A 
HETATM   11  N5  UNL     1     -12.953  -8.595  -6.035  1.00  0.00    -0.301 N 
ATOM     12  H5  UNL     1     -11.936  -8.597  -5.969  1.00  0.00     0.171 HD
HETATM   13  C7  UNL     1     -13.654  -7.457  -5.912  1.00  0.00     0.292 A 
HETATM   14  O3  UNL     1     -13.025  -6.383  -5.714  1.00  0.00    -0.264 OA
ENDROOT
BRANCH   1  15
HETATM   15  N1  UNL     1     -15.730  -6.156  -5.857  1.00  0.00    -0.358 N 
ATOM     16  H1  UNL     1     -15.243  -5.297  -6.113  1.00  0.00     0.162 HD
BRANCH  15  17
HETATM   17  C2  UNL     1     -17.069  -6.059  -5.381  1.00  0.00     0.168 C 
HETATM   18  C1  UNL     1     -17.424  -4.570  -5.296  1.00  0.00     0.042 C 
BRANCH  17  19
HETATM   19  C8  UNL     1     -17.262  -6.599  -4.015  1.00  0.00     0.253 C 
HETATM   20  N6  UNL     1     -16.931  -5.785  -2.905  1.00  0.00    -0.060 NA
HETATM   21  O4  UNL     1     -17.713  -7.758  -3.874  1.00  0.00    -0.275 OA
ENDBRANCH  17  19
ENDBRANCH  15  17
ENDBRANCH   1  15
BRANCH   9  22
HETATM   22  O2  UNL     1     -11.892 -11.479  -6.392  1.00  0.00    -0.343 OA
ATOM     23  H2  UNL     1     -11.122 -10.926  -6.457  1.00  0.00     0.219 HD
ENDBRANCH   9  22
TORSDOF 4
ENDMDL
