MODEL 1
REMARK VINA RESULT: -6.751455687      0.000      0.000
REMARK  4 active torsions:
REMARK  status: ('A' for Active; 'I' for Inactive)
REMARK       I    between atoms: N1_1  and  C1_4 
REMARK    1  A    between atoms: N3_6  and  N4_8 
REMARK       I    between atoms: N4_8  and  C2_9 
REMARK    2  A    between atoms: C2_9  and  C3_11 
REMARK    3  A    between atoms: C3_11  and  N5_12 
REMARK    4  A    between atoms: C7_21  and  N8_22 
ROOT
HETATM    1  N5  UNL     1     -14.523  -9.225  -6.102  1.00  0.00    -0.317 N 
HETATM    2  C4  UNL     1     -15.543  -9.965  -5.704  1.00  0.00     0.185 A 
HETATM    3  N6  UNL     1     -16.490  -9.219  -5.122  1.00  0.00    -0.345 N 
ATOM      4  H6  UNL     1     -17.382  -9.556  -4.757  1.00  0.00     0.167 HD
HETATM    5  C5  UNL     1     -16.037  -7.889  -5.103  1.00  0.00     0.147 A 
HETATM    6  C6  UNL     1     -16.561  -6.738  -4.610  1.00  0.00     0.290 A 
HETATM    7  O2  UNL     1     -17.682  -6.721  -4.087  1.00  0.00    -0.265 OA
HETATM    8  N7  UNL     1     -15.782  -5.648  -4.735  1.00  0.00    -0.154 N 
ATOM      9  H7  UNL     1     -16.134  -4.755  -4.391  1.00  0.00     0.187 HD
HETATM   10  C7  UNL     1     -14.537  -5.688  -5.307  1.00  0.00     0.680 A 
HETATM   11  N9  UNL     1     -14.049  -6.812  -5.796  1.00  0.00    -0.174 N 
ATOM     12  H9  UNL     1     -13.127  -6.817  -6.232  1.00  0.00     0.186 HD
HETATM   13  C8  UNL     1     -14.777  -7.983  -5.723  1.00  0.00     0.157 A 
ENDROOT
BRANCH   1  14
HETATM   14  C3  UNL     1     -13.543  -9.578  -7.066  1.00  0.00     0.252 C 
BRANCH  14  15
HETATM   15  C2  UNL     1     -12.945 -10.930  -6.360  1.00  0.00     0.330 C 
HETATM   16  N4  UNL     1     -11.964 -10.505  -5.572  1.00  0.00    -0.283 NA
HETATM   17  O1  UNL     1     -13.414 -11.987  -6.598  1.00  0.00    -0.253 OA
BRANCH  16  18
HETATM   18  N3  UNL     1     -10.976 -10.085  -4.776  1.00  0.00    -0.203 N 
HETATM   19  C1  UNL     1      -9.756 -10.045  -4.400  1.00  0.00     0.211 C 
HETATM   20  N1  UNL     1      -8.946  -8.995  -4.474  1.00  0.00    -0.372 N 
HETATM   21  N2  UNL     1      -9.166 -11.203  -3.700  1.00  0.00    -0.062 NA
ATOM     22  H12 UNL     1      -7.972  -8.963  -4.174  1.00  0.00     0.158 HD
ATOM     23  H11 UNL     1      -9.354  -8.195  -4.957  1.00  0.00     0.158 HD
ATOM     24  H3  UNL     1     -11.448  -9.466  -4.117  1.00  0.00     0.205 HD
ENDBRANCH  16  18
ENDBRANCH  14  15
ENDBRANCH   1  14
BRANCH  10  25
HETATM   25  N8  UNL     1     -13.768  -4.662  -5.220  1.00  0.00    -0.234 N 
ATOM     26  H82 UNL     1     -13.937  -3.865  -5.833  1.00  0.00     0.174 HD
ATOM     27  H81 UNL     1     -12.930  -4.710  -4.640  1.00  0.00     0.174 HD
ENDBRANCH  10  25
TORSDOF 4
ENDMDL
MODEL 2
REMARK VINA RESULT: -6.739665188      1.370      1.727
REMARK  4 active torsions:
REMARK  status: ('A' for Active; 'I' for Inactive)
REMARK       I    between atoms: N1_1  and  C1_4 
REMARK    1  A    between atoms: N3_6  and  N4_8 
REMARK       I    between atoms: N4_8  and  C2_9 
REMARK    2  A    between atoms: C2_9  and  C3_11 
REMARK    3  A    between atoms: C3_11  and  N5_12 
REMARK    4  A    between atoms: C7_21  and  N8_22 
ROOT
HETATM    1  N5  UNL     1     -14.485  -9.613  -6.161  1.00  0.00    -0.317 N 
HETATM    2  C4  UNL     1     -15.571 -10.241  -5.748  1.00  0.00     0.185 A 
HETATM    3  N6  UNL     1     -16.471  -9.385  -5.248  1.00  0.00    -0.345 N 
ATOM      4  H6  UNL     1     -17.396  -9.624  -4.891  1.00  0.00     0.167 HD
HETATM    5  C5  UNL     1     -15.913  -8.096  -5.304  1.00  0.00     0.147 A 
HETATM    6  C6  UNL     1     -16.356  -6.877  -4.907  1.00  0.00     0.290 A 
HETATM    7  O2  UNL     1     -17.486  -6.736  -4.424  1.00  0.00    -0.265 OA
HETATM    8  N7  UNL     1     -15.489  -5.862  -5.080  1.00  0.00    -0.154 N 
ATOM      9  H7  UNL     1     -15.777  -4.922  -4.808  1.00  0.00     0.187 HD
HETATM   10  C7  UNL     1     -14.236  -6.039  -5.607  1.00  0.00     0.680 A 
HETATM   11  N9  UNL     1     -13.827  -7.230  -6.003  1.00  0.00    -0.174 N 
ATOM     12  H9  UNL     1     -12.896  -7.336  -6.407  1.00  0.00     0.186 HD
HETATM   13  C8  UNL     1     -14.648  -8.332  -5.875  1.00  0.00     0.157 A 
ENDROOT
BRANCH   1  14
HETATM   14  C3  UNL     1     -13.510 -10.108  -7.067  1.00  0.00     0.252 C 
BRANCH  14  15
HETATM   15  C2  UNL     1     -12.333 -10.511  -6.001  1.00  0.00     0.330 C 
HETATM   16  N4  UNL     1     -11.433  -9.538  -6.092  1.00  0.00    -0.283 NA
HETATM   17  O1  UNL     1     -12.426 -11.492  -5.351  1.00  0.00    -0.253 OA
BRANCH  16  18
HETATM   18  N3  UNL     1     -10.525  -8.563  -6.178  1.00  0.00    -0.203 N 
HETATM   19  C1  UNL     1      -9.985  -7.473  -5.789  1.00  0.00     0.211 C 
HETATM   20  N1  UNL     1      -8.774  -7.342  -5.259  1.00  0.00    -0.372 N 
HETATM   21  N2  UNL     1     -10.669  -6.187  -6.034  1.00  0.00    -0.062 NA
ATOM     22  H12 UNL     1      -8.343  -6.472  -4.948  1.00  0.00     0.158 HD
ATOM     23  H11 UNL     1      -8.302  -8.230  -5.090  1.00  0.00     0.158 HD
ATOM     24  H3  UNL     1      -9.961  -8.833  -6.984  1.00  0.00     0.205 HD
ENDBRANCH  16  18
ENDBRANCH  14  15
ENDBRANCH   1  14
BRANCH  10  25
HETATM   25  N8  UNL     1     -13.389  -5.073  -5.564  1.00  0.00    -0.234 N 
ATOM     26  H82 UNL     1     -12.947  -4.844  -4.673  1.00  0.00     0.174 HD
ATOM     27  H81 UNL     1     -13.270  -4.472  -6.379  1.00  0.00     0.174 HD
ENDBRANCH  10  25
TORSDOF 4
ENDMDL
MODEL 3
REMARK VINA RESULT: -6.569018942      1.826      3.352
REMARK  4 active torsions:
REMARK  status: ('A' for Active; 'I' for Inactive)
REMARK       I    between atoms: N1_1  and  C1_4 
REMARK    1  A    between atoms: N3_6  and  N4_8 
REMARK       I    between atoms: N4_8  and  C2_9 
REMARK    2  A    between atoms: C2_9  and  C3_11 
REMARK    3  A    between atoms: C3_11  and  N5_12 
REMARK    4  A    between atoms: C7_21  and  N8_22 
ROOT
HETATM    1  N5  UNL     1     -12.101  -8.786  -6.458  1.00  0.00    -0.317 N 
HETATM    2  C4  UNL     1     -12.146  -7.542  -6.012  1.00  0.00     0.185 A 
HETATM    3  N6  UNL     1     -13.393  -7.188  -5.677  1.00  0.00    -0.345 N 
ATOM      4  H6  UNL     1     -13.679  -6.291  -5.284  1.00  0.00     0.167 HD
HETATM    5  C5  UNL     1     -14.239  -8.274  -5.963  1.00  0.00     0.147 A 
HETATM    6  C6  UNL     1     -15.579  -8.457  -5.860  1.00  0.00     0.290 A 
HETATM    7  O2  UNL     1     -16.308  -7.575  -5.390  1.00  0.00    -0.265 OA
HETATM    8  N7  UNL     1     -16.036  -9.644  -6.299  1.00  0.00    -0.154 N 
ATOM      9  H7  UNL     1     -17.036  -9.837  -6.234  1.00  0.00     0.187 HD
HETATM   10  C7  UNL     1     -15.215 -10.605  -6.828  1.00  0.00     0.680 A 
HETATM   11  N9  UNL     1     -13.911 -10.418  -6.906  1.00  0.00    -0.174 N 
ATOM     12  H9  UNL     1     -13.315 -11.152  -7.288  1.00  0.00     0.186 HD
HETATM   13  C8  UNL     1     -13.346  -9.235  -6.472  1.00  0.00     0.157 A 
ENDROOT
BRANCH   1  14
HETATM   14  C3  UNL     1     -10.954  -9.617  -6.541  1.00  0.00     0.252 C 
BRANCH  14  15
HETATM   15  C2  UNL     1     -11.162 -10.500  -5.177  1.00  0.00     0.330 C 
HETATM   16  N4  UNL     1     -10.309  -9.987  -4.297  1.00  0.00    -0.283 NA
HETATM   17  O1  UNL     1     -11.959 -11.370  -5.144  1.00  0.00    -0.253 OA
BRANCH  16  18
HETATM   18  N3  UNL     1      -9.455  -9.475  -3.408  1.00  0.00    -0.203 N 
HETATM   19  C1  UNL     1      -8.281  -9.232  -2.965  1.00  0.00     0.211 C 
HETATM   20  N1  UNL     1      -7.709  -8.037  -2.873  1.00  0.00    -0.372 N 
HETATM   21  N2  UNL     1      -7.480 -10.323  -2.373  1.00  0.00    -0.062 NA
ATOM     22  H12 UNL     1      -6.772  -7.843  -2.520  1.00  0.00     0.158 HD
ATOM     23  H11 UNL     1      -8.262  -7.284  -3.282  1.00  0.00     0.158 HD
ATOM     24  H3  UNL     1     -10.065  -9.053  -2.707  1.00  0.00     0.205 HD
ENDBRANCH  16  18
ENDBRANCH  14  15
ENDBRANCH   1  14
BRANCH  10  25
HETATM   25  N8  UNL     1     -15.731 -11.630  -7.407  1.00  0.00    -0.234 N 
ATOM     26  H82 UNL     1     -16.739 -11.653  -7.564  1.00  0.00     0.174 HD
ATOM     27  H81 UNL     1     -15.154 -12.453  -7.580  1.00  0.00     0.174 HD
ENDBRANCH  10  25
TORSDOF 4
ENDMDL
MODEL 4
REMARK VINA RESULT: -6.567049843      2.243      6.024
REMARK  4 active torsions:
REMARK  status: ('A' for Active; 'I' for Inactive)
REMARK       I    between atoms: N1_1  and  C1_4 
REMARK    1  A    between atoms: N3_6  and  N4_8 
REMARK       I    between atoms: N4_8  and  C2_9 
REMARK    2  A    between atoms: C2_9  and  C3_11 
REMARK    3  A    between atoms: C3_11  and  N5_12 
REMARK    4  A    between atoms: C7_21  and  N8_22 
ROOT
HETATM    1  N5  UNL     1     -13.261  -7.396  -6.687  1.00  0.00    -0.317 N 
HETATM    2  C4  UNL     1     -11.966  -7.437  -6.429  1.00  0.00     0.185 A 
HETATM    3  N6  UNL     1     -11.530  -8.698  -6.314  1.00  0.00    -0.345 N 
ATOM      4  H6  UNL     1     -10.568  -8.989  -6.143  1.00  0.00     0.167 HD
HETATM    5  C5  UNL     1     -12.638  -9.550  -6.471  1.00  0.00     0.147 A 
HETATM    6  C6  UNL     1     -12.785 -10.897  -6.413  1.00  0.00     0.290 A 
HETATM    7  O2  UNL     1     -11.811 -11.638  -6.237  1.00  0.00    -0.265 OA
HETATM    8  N7  UNL     1     -14.044 -11.347  -6.561  1.00  0.00    -0.154 N 
ATOM      9  H7  UNL     1     -14.209 -12.354  -6.537  1.00  0.00     0.187 HD
HETATM   10  C7  UNL     1     -15.115 -10.511  -6.744  1.00  0.00     0.680 A 
HETATM   11  N9  UNL     1     -14.951  -9.203  -6.813  1.00  0.00    -0.174 N 
ATOM     12  H9  UNL     1     -15.759  -8.599  -6.965  1.00  0.00     0.186 HD
HETATM   13  C8  UNL     1     -13.695  -8.646  -6.682  1.00  0.00     0.157 A 
ENDROOT
BRANCH   1  14
HETATM   14  C3  UNL     1     -13.983  -6.305  -7.238  1.00  0.00     0.252 C 
BRANCH  14  15
HETATM   15  C2  UNL     1     -14.201  -5.414  -5.881  1.00  0.00     0.330 C 
HETATM   16  N4  UNL     1     -15.055  -6.112  -5.140  1.00  0.00    -0.283 NA
HETATM   17  O1  UNL     1     -13.631  -4.390  -5.739  1.00  0.00    -0.253 OA
BRANCH  16  18
HETATM   18  N3  UNL     1     -15.912  -6.809  -4.390  1.00  0.00    -0.203 N 
HETATM   19  C1  UNL     1     -17.051  -7.337  -4.154  1.00  0.00     0.211 C 
HETATM   20  N1  UNL     1     -17.317  -8.636  -4.090  1.00  0.00    -0.372 N 
HETATM   21  N2  UNL     1     -18.197  -6.477  -3.792  1.00  0.00    -0.062 NA
ATOM     22  H12 UNL     1     -18.227  -9.057  -3.902  1.00  0.00     0.158 HD
ATOM     23  H11 UNL     1     -16.526  -9.230  -4.340  1.00  0.00     0.158 HD
ATOM     24  H3  UNL     1     -15.364  -7.049  -3.563  1.00  0.00     0.205 HD
ENDBRANCH  16  18
ENDBRANCH  14  15
ENDBRANCH   1  14
BRANCH  10  25
HETATM   25  N8  UNL     1     -16.308 -10.986  -6.681  1.00  0.00    -0.234 N 
ATOM     26  H82 UNL     1     -17.021 -10.462  -6.173  1.00  0.00     0.174 HD
ATOM     27  H81 UNL     1     -16.492 -11.929  -7.021  1.00  0.00     0.174 HD
ENDBRANCH  10  25
TORSDOF 4
ENDMDL
MODEL 5
REMARK VINA RESULT: -6.389284833      3.272      5.175
REMARK  4 active torsions:
REMARK  status: ('A' for Active; 'I' for Inactive)
REMARK       I    between atoms: N1_1  and  C1_4 
REMARK    1  A    between atoms: N3_6  and  N4_8 
REMARK       I    between atoms: N4_8  and  C2_9 
REMARK    2  A    between atoms: C2_9  and  C3_11 
REMARK    3  A    between atoms: C3_11  and  N5_12 
REMARK    4  A    between atoms: C7_21  and  N8_22 
ROOT
HETATM    1  N5  UNL     1     -10.413 -10.310  -5.427  1.00  0.00    -0.317 N 
HETATM    2  C4  UNL     1      -9.839  -9.159  -5.733  1.00  0.00     0.185 A 
HETATM    3  N6  UNL     1     -10.676  -8.358  -6.404  1.00  0.00    -0.345 N 
ATOM      4  H6  UNL     1     -10.474  -7.412  -6.726  1.00  0.00     0.167 HD
HETATM    5  C5  UNL     1     -11.883  -9.056  -6.587  1.00  0.00     0.147 A 
HETATM    6  C6  UNL     1     -13.043  -8.749  -7.219  1.00  0.00     0.290 A 
HETATM    7  O2  UNL     1     -13.210  -7.641  -7.742  1.00  0.00    -0.265 OA
HETATM    8  N7  UNL     1     -13.971  -9.723  -7.228  1.00  0.00    -0.154 N 
ATOM      9  H7  UNL     1     -14.867  -9.540  -7.681  1.00  0.00     0.187 HD
HETATM   10  C7  UNL     1     -13.764 -10.950  -6.653  1.00  0.00     0.680 A 
HETATM   11  N9  UNL     1     -12.635 -11.226  -6.028  1.00  0.00    -0.174 N 
ATOM     12  H9  UNL     1     -12.508 -12.140  -5.593  1.00  0.00     0.186 HD
HETATM   13  C8  UNL     1     -11.626 -10.288  -5.957  1.00  0.00     0.157 A 
ENDROOT
BRANCH   1  14
HETATM   14  C3  UNL     1     -10.000 -11.226  -4.425  1.00  0.00     0.252 C 
BRANCH  14  15
HETATM   15  C2  UNL     1      -9.136 -10.211  -3.472  1.00  0.00     0.330 C 
HETATM   16  N4  UNL     1      -8.136 -10.946  -2.998  1.00  0.00    -0.283 NA
HETATM   17  O1  UNL     1      -9.462  -9.082  -3.350  1.00  0.00    -0.253 OA
BRANCH  16  18
HETATM   18  N3  UNL     1      -7.128 -11.678  -2.518  1.00  0.00    -0.203 N 
HETATM   19  C1  UNL     1      -6.389 -12.720  -2.492  1.00  0.00     0.211 C 
HETATM   20  N1  UNL     1      -5.104 -12.779  -2.820  1.00  0.00    -0.372 N 
HETATM   21  N2  UNL     1      -6.921 -13.983  -1.940  1.00  0.00    -0.062 NA
ATOM     22  H12 UNL     1      -4.514 -13.611  -2.800  1.00  0.00     0.158 HD
ATOM     23  H11 UNL     1      -4.737 -11.907  -3.201  1.00  0.00     0.158 HD
ATOM     24  H3  UNL     1      -6.741 -11.094  -1.777  1.00  0.00     0.205 HD
ENDBRANCH  16  18
ENDBRANCH  14  15
ENDBRANCH   1  14
BRANCH  10  25
HETATM   25  N8  UNL     1     -14.606 -11.898  -6.865  1.00  0.00    -0.234 N 
ATOM     26  H82 UNL     1     -14.443 -12.808  -6.433  1.00  0.00     0.174 HD
ATOM     27  H81 UNL     1     -15.343 -11.771  -7.559  1.00  0.00     0.174 HD
ENDBRANCH  10  25
TORSDOF 4
ENDMDL
