MODEL 1
REMARK VINA RESULT: -6.128962652      0.000      0.000
REMARK  6 active torsions:
REMARK  status: ('A' for Active; 'I' for Inactive)
REMARK    1  A    between atoms: C2_2  and  C3_3 
REMARK    2  A    between atoms: C3_3  and  C4_4 
REMARK    3  A    between atoms: C4_4  and  C5_5 
REMARK    4  A    between atoms: C5_5  and  N1_6 
REMARK    5  A    between atoms: N1_6  and  C6_9 
REMARK    6  A    between atoms: C6_9  and  C7_10 
ROOT
HETATM    1  N1  UNL     1      19.102  93.174  33.945  1.00  0.00    -0.074 N 
ATOM      2  H11 UNL     1      18.785  92.957  33.000  1.00  0.00     0.277 HD
ATOM      3  H12 UNL     1      20.058  93.424  33.689  1.00  0.00     0.277 HD
ENDROOT
BRANCH   1   4
HETATM    4  C5  UNL     1      19.007  92.032  34.894  1.00  0.00     0.243 C 
BRANCH   4   5
HETATM    5  C4  UNL     1      17.635  91.464  34.635  1.00  0.00     0.112 C 
BRANCH   5   6
HETATM    6  C3  UNL     1      17.162  91.106  33.530  1.00  0.00    -0.155 C 
BRANCH   6   7
HETATM    7  C2  UNL     1      16.634  90.734  32.337  1.00  0.00     0.040 C 
HETATM    8  C1  UNL     1      17.054  89.711  31.604  1.00  0.00     0.020 C 
ENDBRANCH   6   7
ENDBRANCH   5   6
ENDBRANCH   4   5
ENDBRANCH   1   4
BRANCH   1   9
HETATM    9  C6  UNL     1      18.346  94.269  34.599  1.00  0.00     0.237 C 
BRANCH   9  10
HETATM   10  C7  UNL     1      17.897  95.153  33.488  1.00  0.00     0.011 A 
HETATM   11  C8  UNL     1      17.171  96.419  33.541  1.00  0.00     0.007 A 
HETATM   12  C9  UNL     1      16.347  95.175  33.461  1.00  0.00     0.007 A 
ENDBRANCH   9  10
ENDBRANCH   1   9
TORSDOF 6
ENDMDL
MODEL 2
REMARK VINA RESULT: -5.914804647      0.968      1.030
REMARK  6 active torsions:
REMARK  status: ('A' for Active; 'I' for Inactive)
REMARK    1  A    between atoms: C2_2  and  C3_3 
REMARK    2  A    between atoms: C3_3  and  C4_4 
REMARK    3  A    between atoms: C4_4  and  C5_5 
REMARK    4  A    between atoms: C5_5  and  N1_6 
REMARK    5  A    between atoms: N1_6  and  C6_9 
REMARK    6  A    between atoms: C6_9  and  C7_10 
ROOT
HETATM    1  N1  UNL     1      17.998  93.537  33.945  1.00  0.00    -0.074 N 
ATOM      2  H11 UNL     1      18.217  93.191  33.011  1.00  0.00     0.277 HD
ATOM      3  H12 UNL     1      18.901  93.980  34.118  1.00  0.00     0.277 HD
ENDROOT
BRANCH   1   4
HETATM    4  C5  UNL     1      17.651  92.469  34.921  1.00  0.00     0.243 C 
BRANCH   4   5
HETATM    5  C4  UNL     1      17.907  91.192  34.162  1.00  0.00     0.112 C 
BRANCH   5   6
HETATM    6  C3  UNL     1      17.335  90.809  33.113  1.00  0.00    -0.155 C 
BRANCH   6   7
HETATM    7  C2  UNL     1      16.706  90.416  31.977  1.00  0.00     0.040 C 
HETATM    8  C1  UNL     1      17.001  89.325  31.283  1.00  0.00     0.020 C 
ENDBRANCH   6   7
ENDBRANCH   5   6
ENDBRANCH   4   5
ENDBRANCH   1   4
BRANCH   1   9
HETATM    9  C6  UNL     1      16.848  94.472  33.989  1.00  0.00     0.237 C 
BRANCH   9  10
HETATM   10  C7  UNL     1      17.313  95.698  33.283  1.00  0.00     0.011 A 
HETATM   11  C8  UNL     1      17.139  97.102  33.644  1.00  0.00     0.007 A 
HETATM   12  C9  UNL     1      16.076  96.491  32.789  1.00  0.00     0.007 A 
ENDBRANCH   9  10
ENDBRANCH   1   9
TORSDOF 6
ENDMDL
MODEL 3
REMARK VINA RESULT: -5.883936371      1.019      4.429
REMARK  6 active torsions:
REMARK  status: ('A' for Active; 'I' for Inactive)
REMARK    1  A    between atoms: C2_2  and  C3_3 
REMARK    2  A    between atoms: C3_3  and  C4_4 
REMARK    3  A    between atoms: C4_4  and  C5_5 
REMARK    4  A    between atoms: C5_5  and  N1_6 
REMARK    5  A    between atoms: N1_6  and  C6_9 
REMARK    6  A    between atoms: C6_9  and  C7_10 
ROOT
HETATM    1  N1  UNL     1      17.249  92.577  35.241  1.00  0.00    -0.074 N 
ATOM      2  H11 UNL     1      16.518  93.238  34.976  1.00  0.00     0.277 HD
ATOM      3  H12 UNL     1      17.084  92.620  36.247  1.00  0.00     0.277 HD
ENDROOT
BRANCH   1   4
HETATM    4  C5  UNL     1      18.619  92.992  34.834  1.00  0.00     0.243 C 
BRANCH   4   5
HETATM    5  C4  UNL     1      18.459  94.446  34.465  1.00  0.00     0.112 C 
BRANCH   5   6
HETATM    6  C3  UNL     1      17.481  94.974  33.885  1.00  0.00    -0.155 C 
BRANCH   6   7
HETATM    7  C2  UNL     1      16.409  95.530  33.266  1.00  0.00     0.040 C 
HETATM    8  C1  UNL     1      16.253  96.826  33.032  1.00  0.00     0.020 C 
ENDBRANCH   6   7
ENDBRANCH   5   6
ENDBRANCH   4   5
ENDBRANCH   1   4
BRANCH   1   9
HETATM    9  C6  UNL     1      17.080  91.224  34.658  1.00  0.00     0.237 C 
BRANCH   9  10
HETATM   10  C7  UNL     1      17.054  91.433  33.184  1.00  0.00     0.011 A 
HETATM   11  C8  UNL     1      16.217  90.800  32.169  1.00  0.00     0.007 A 
HETATM   12  C9  UNL     1      17.513  90.129  32.485  1.00  0.00     0.007 A 
ENDBRANCH   9  10
ENDBRANCH   1   9
TORSDOF 6
ENDMDL
MODEL 4
REMARK VINA RESULT: -5.687625546      0.903      4.487
REMARK  6 active torsions:
REMARK  status: ('A' for Active; 'I' for Inactive)
REMARK    1  A    between atoms: C2_2  and  C3_3 
REMARK    2  A    between atoms: C3_3  and  C4_4 
REMARK    3  A    between atoms: C4_4  and  C5_5 
REMARK    4  A    between atoms: C5_5  and  N1_6 
REMARK    5  A    between atoms: N1_6  and  C6_9 
REMARK    6  A    between atoms: C6_9  and  C7_10 
ROOT
HETATM    1  N1  UNL     1      19.070  92.160  34.530  1.00  0.00    -0.074 N 
ATOM      2  H11 UNL     1      19.506  92.131  35.452  1.00  0.00     0.277 HD
ATOM      3  H12 UNL     1      19.584  91.372  34.135  1.00  0.00     0.277 HD
ENDROOT
BRANCH   1   4
HETATM    4  C5  UNL     1      19.273  93.442  33.803  1.00  0.00     0.243 C 
BRANCH   4   5
HETATM    5  C4  UNL     1      18.149  94.317  34.297  1.00  0.00     0.112 C 
BRANCH   5   6
HETATM    6  C3  UNL     1      17.715  95.364  33.760  1.00  0.00    -0.155 C 
BRANCH   6   7
HETATM    7  C2  UNL     1      17.245  96.507  33.199  1.00  0.00     0.040 C 
HETATM    8  C1  UNL     1      15.967  96.859  33.146  1.00  0.00     0.020 C 
ENDBRANCH   6   7
ENDBRANCH   5   6
ENDBRANCH   4   5
ENDBRANCH   1   4
BRANCH   1   9
HETATM    9  C6  UNL     1      17.599  91.973  34.552  1.00  0.00     0.237 C 
BRANCH   9  10
HETATM   10  C7  UNL     1      17.350  90.738  33.758  1.00  0.00     0.011 A 
HETATM   11  C8  UNL     1      17.672  90.447  32.363  1.00  0.00     0.007 A 
HETATM   12  C9  UNL     1      16.337  91.063  32.631  1.00  0.00     0.007 A 
ENDBRANCH   9  10
ENDBRANCH   1   9
TORSDOF 6
ENDMDL
MODEL 5
REMARK VINA RESULT: -5.650389731      1.201      1.582
REMARK  6 active torsions:
REMARK  status: ('A' for Active; 'I' for Inactive)
REMARK    1  A    between atoms: C2_2  and  C3_3 
REMARK    2  A    between atoms: C3_3  and  C4_4 
REMARK    3  A    between atoms: C4_4  and  C5_5 
REMARK    4  A    between atoms: C5_5  and  N1_6 
REMARK    5  A    between atoms: N1_6  and  C6_9 
REMARK    6  A    between atoms: C6_9  and  C7_10 
ROOT
HETATM    1  N1  UNL     1      16.973  92.731  35.135  1.00  0.00    -0.074 N 
ATOM      2  H11 UNL     1      17.448  93.005  35.995  1.00  0.00     0.277 HD
ATOM      3  H12 UNL     1      16.026  92.931  35.459  1.00  0.00     0.277 HD
ENDROOT
BRANCH   1   4
HETATM    4  C5  UNL     1      17.194  91.313  34.744  1.00  0.00     0.243 C 
BRANCH   4   5
HETATM    5  C4  UNL     1      17.357  91.374  33.246  1.00  0.00     0.112 C 
BRANCH   5   6
HETATM    6  C3  UNL     1      17.016  90.501  32.413  1.00  0.00    -0.155 C 
BRANCH   6   7
HETATM    7  C2  UNL     1      16.628  89.552  31.524  1.00  0.00     0.040 C 
HETATM    8  C1  UNL     1      17.451  88.810  30.796  1.00  0.00     0.020 C 
ENDBRANCH   6   7
ENDBRANCH   5   6
ENDBRANCH   4   5
ENDBRANCH   1   4
BRANCH   1   9
HETATM    9  C6  UNL     1      17.381  93.515  33.944  1.00  0.00     0.237 C 
BRANCH   9  10
HETATM   10  C7  UNL     1      16.649  94.807  34.055  1.00  0.00     0.011 A 
HETATM   11  C8  UNL     1      16.236  95.736  33.007  1.00  0.00     0.007 A 
HETATM   12  C9  UNL     1      17.587  95.955  33.606  1.00  0.00     0.007 A 
ENDBRANCH   9  10
ENDBRANCH   1   9
TORSDOF 6
ENDMDL
