MODEL 1
REMARK VINA RESULT: -5.898136233      0.000      0.000
REMARK  5 active torsions:
REMARK  status: ('A' for Active; 'I' for Inactive)
REMARK    1  A    between atoms: C2_2  and  C3_3 
REMARK    2  A    between atoms: C3_3  and  N1_4 
REMARK    3  A    between atoms: N1_4  and  C4_6 
REMARK    4  A    between atoms: C4_6  and  C5_7 
REMARK    5  A    between atoms: C8_10  and  C9_11 
ROOT
HETATM    1  C5  UNL     1      17.597  92.669  34.148  1.00  0.00     0.010 C 
HETATM    2  C6  UNL     1      18.009  91.653  35.255  1.00  0.00     0.007 C 
HETATM    3  C7  UNL     1      16.660  90.988  35.010  1.00  0.00     0.009 C 
HETATM    4  C8  UNL     1      16.830  91.530  33.562  1.00  0.00     0.013 C 
ENDROOT
BRANCH   1   5
HETATM    5  C4  UNL     1      18.815  93.189  33.519  1.00  0.00     0.119 C 
BRANCH   5   6
HETATM    6  N1  UNL     1      18.869  94.619  33.480  1.00  0.00    -0.418 N 
ATOM      7  H1  UNL     1      19.666  95.119  33.085  1.00  0.00     0.153 HD
BRANCH   6   8
HETATM    8  C3  UNL     1      17.750  95.298  34.023  1.00  0.00     0.140 C 
BRANCH   8   9
HETATM    9  C2  UNL     1      17.330  96.426  33.141  1.00  0.00    -0.018 C 
HETATM   10  C1  UNL     1      16.071  96.793  33.140  1.00  0.00     0.008 C 
ENDBRANCH   8   9
ENDBRANCH   6   8
ENDBRANCH   5   6
ENDBRANCH   1   5
BRANCH   4  11
HETATM   11  C9  UNL     1      17.510  90.511  32.775  1.00  0.00    -0.032 C 
HETATM   12  C10 UNL     1      16.924  90.046  31.681  1.00  0.00     0.007 C 
ENDBRANCH   4  11
TORSDOF 5
ENDMDL
MODEL 2
REMARK VINA RESULT: -5.819724098      0.996      1.372
REMARK  5 active torsions:
REMARK  status: ('A' for Active; 'I' for Inactive)
REMARK    1  A    between atoms: C2_2  and  C3_3 
REMARK    2  A    between atoms: C3_3  and  N1_4 
REMARK    3  A    between atoms: N1_4  and  C4_6 
REMARK    4  A    between atoms: C4_6  and  C5_7 
REMARK    5  A    between atoms: C8_10  and  C9_11 
ROOT
HETATM    1  C5  UNL     1      17.094  93.151  34.885  1.00  0.00     0.010 C 
HETATM    2  C6  UNL     1      18.619  93.044  35.186  1.00  0.00     0.007 C 
HETATM    3  C7  UNL     1      18.342  91.595  35.568  1.00  0.00     0.009 C 
HETATM    4  C8  UNL     1      17.188  91.704  34.531  1.00  0.00     0.013 C 
ENDROOT
BRANCH   1   5
HETATM    5  C4  UNL     1      16.895  94.188  33.867  1.00  0.00     0.119 C 
BRANCH   5   6
HETATM    6  N1  UNL     1      17.865  95.239  33.928  1.00  0.00    -0.418 N 
ATOM      7  H1  UNL     1      18.721  95.153  34.476  1.00  0.00     0.153 HD
BRANCH   6   8
HETATM    8  C3  UNL     1      17.564  96.405  33.181  1.00  0.00     0.140 C 
BRANCH   8   9
HETATM    9  C2  UNL     1      16.092  96.554  32.991  1.00  0.00    -0.018 C 
HETATM   10  C1  UNL     1      15.459  97.487  33.660  1.00  0.00     0.008 C 
ENDBRANCH   8   9
ENDBRANCH   6   8
ENDBRANCH   5   6
ENDBRANCH   1   5
BRANCH   4  11
HETATM   11  C9  UNL     1      17.706  91.295  33.234  1.00  0.00    -0.032 C 
HETATM   12  C10 UNL     1      16.997  90.456  32.493  1.00  0.00     0.007 C 
ENDBRANCH   4  11
TORSDOF 5
ENDMDL
MODEL 3
REMARK VINA RESULT: -5.782578601      1.240      1.846
REMARK  5 active torsions:
REMARK  status: ('A' for Active; 'I' for Inactive)
REMARK    1  A    between atoms: C2_2  and  C3_3 
REMARK    2  A    between atoms: C3_3  and  N1_4 
REMARK    3  A    between atoms: N1_4  and  C4_6 
REMARK    4  A    between atoms: C4_6  and  C5_7 
REMARK    5  A    between atoms: C8_10  and  C9_11 
ROOT
HETATM    1  C5  UNL     1      18.037  92.587  35.272  1.00  0.00     0.010 C 
HETATM    2  C6  UNL     1      19.294  93.211  34.594  1.00  0.00     0.007 C 
HETATM    3  C7  UNL     1      19.856  91.795  34.558  1.00  0.00     0.009 C 
HETATM    4  C8  UNL     1      18.363  91.370  34.472  1.00  0.00     0.013 C 
ENDROOT
BRANCH   1   5
HETATM    5  C4  UNL     1      16.878  93.431  34.965  1.00  0.00     0.119 C 
BRANCH   5   6
HETATM    6  N1  UNL     1      17.208  94.590  34.193  1.00  0.00    -0.418 N 
ATOM      7  H1  UNL     1      18.085  95.095  34.324  1.00  0.00     0.153 HD
BRANCH   6   8
HETATM    8  C3  UNL     1      16.243  94.995  33.238  1.00  0.00     0.140 C 
BRANCH   8   9
HETATM    9  C2  UNL     1      16.205  96.482  33.113  1.00  0.00    -0.018 C 
HETATM   10  C1  UNL     1      17.337  97.141  33.066  1.00  0.00     0.008 C 
ENDBRANCH   8   9
ENDBRANCH   6   8
ENDBRANCH   5   6
ENDBRANCH   1   5
BRANCH   4  11
HETATM   11  C9  UNL     1      17.995  91.292  33.066  1.00  0.00    -0.032 C 
HETATM   12  C10 UNL     1      17.079  90.413  32.687  1.00  0.00     0.007 C 
ENDBRANCH   4  11
TORSDOF 5
ENDMDL
MODEL 4
REMARK VINA RESULT: -5.722933587      3.340      4.683
REMARK  5 active torsions:
REMARK  status: ('A' for Active; 'I' for Inactive)
REMARK    1  A    between atoms: C2_2  and  C3_3 
REMARK    2  A    between atoms: C3_3  and  N1_4 
REMARK    3  A    between atoms: N1_4  and  C4_6 
REMARK    4  A    between atoms: C4_6  and  C5_7 
REMARK    5  A    between atoms: C8_10  and  C9_11 
ROOT
HETATM    1  C5  UNL     1      19.812  93.022  34.287  1.00  0.00     0.010 C 
HETATM    2  C6  UNL     1      18.803  93.840  35.147  1.00  0.00     0.007 C 
HETATM    3  C7  UNL     1      17.993  94.001  33.866  1.00  0.00     0.009 C 
HETATM    4  C8  UNL     1      18.618  92.630  33.481  1.00  0.00     0.013 C 
ENDROOT
BRANCH   1   5
HETATM    5  C4  UNL     1      20.504  92.071  35.163  1.00  0.00     0.119 C 
BRANCH   5   6
HETATM    6  N1  UNL     1      21.098  92.685  36.311  1.00  0.00    -0.418 N 
ATOM      7  H1  UNL     1      20.538  93.139  37.033  1.00  0.00     0.153 HD
BRANCH   6   8
HETATM    8  C3  UNL     1      22.512  92.624  36.386  1.00  0.00     0.140 C 
BRANCH   8   9
HETATM    9  C2  UNL     1      23.022  93.427  37.536  1.00  0.00    -0.018 C 
HETATM   10  C1  UNL     1      22.706  93.057  38.754  1.00  0.00     0.008 C 
ENDBRANCH   8   9
ENDBRANCH   6   8
ENDBRANCH   5   6
ENDBRANCH   1   5
BRANCH   4  11
HETATM   11  C9  UNL     1      17.726  91.579  33.950  1.00  0.00    -0.032 C 
HETATM   12  C10 UNL     1      17.258  90.697  33.078  1.00  0.00     0.007 C 
ENDBRANCH   4  11
TORSDOF 5
ENDMDL
MODEL 5
REMARK VINA RESULT: -5.718957320      1.634      4.612
REMARK  5 active torsions:
REMARK  status: ('A' for Active; 'I' for Inactive)
REMARK    1  A    between atoms: C2_2  and  C3_3 
REMARK    2  A    between atoms: C3_3  and  N1_4 
REMARK    3  A    between atoms: N1_4  and  C4_6 
REMARK    4  A    between atoms: C4_6  and  C5_7 
REMARK    5  A    between atoms: C8_10  and  C9_11 
ROOT
HETATM    1  C5  UNL     1      17.144  93.465  34.941  1.00  0.00     0.010 C 
HETATM    2  C6  UNL     1      16.780  94.093  33.561  1.00  0.00     0.007 C 
HETATM    3  C7  UNL     1      17.779  95.190  33.908  1.00  0.00     0.009 C 
HETATM    4  C8  UNL     1      18.490  94.073  34.723  1.00  0.00     0.013 C 
ENDROOT
BRANCH   1   5
HETATM    5  C4  UNL     1      16.924  92.018  34.864  1.00  0.00     0.119 C 
BRANCH   5   6
HETATM    6  N1  UNL     1      16.574  91.564  33.552  1.00  0.00    -0.418 N 
ATOM      7  H1  UNL     1      15.823  91.997  33.013  1.00  0.00     0.153 HD
BRANCH   6   8
HETATM    8  C3  UNL     1      17.333  90.480  33.047  1.00  0.00     0.140 C 
BRANCH   8   9
HETATM    9  C2  UNL     1      17.004  90.218  31.616  1.00  0.00    -0.018 C 
HETATM   10  C1  UNL     1      16.744  88.988  31.242  1.00  0.00     0.008 C 
ENDBRANCH   8   9
ENDBRANCH   6   8
ENDBRANCH   5   6
ENDBRANCH   1   5
BRANCH   4  11
HETATM   11  C9  UNL     1      19.459  93.424  33.852  1.00  0.00    -0.032 C 
HETATM   12  C10 UNL     1      20.414  92.681  34.392  1.00  0.00     0.007 C 
ENDBRANCH   4  11
TORSDOF 5
ENDMDL
