MODEL 1
REMARK VINA RESULT: -5.754779982      0.000      0.000
REMARK  4 active torsions:
REMARK  status: ('A' for Active; 'I' for Inactive)
REMARK    1  A    between atoms: N1_2  and  C2_4 
REMARK    2  A    between atoms: C2_4  and  C3_5 
REMARK    3  A    between atoms: C3_5  and  N2_6 
REMARK    4  A    between atoms: N2_6  and  C4_8 
ROOT
HETATM    1  N2  UNL     1      20.749  93.479  35.737  1.00  0.00    -0.388 N 
ATOM      2  H2  UNL     1      20.872  94.462  35.983  1.00  0.00     0.159 HD
ENDROOT
BRANCH   1   3
HETATM    3  C3  UNL     1      21.783  92.531  36.075  1.00  0.00     0.139 C 
BRANCH   3   4
HETATM    4  C2  UNL     1      22.794  93.111  37.036  1.00  0.00     0.137 C 
BRANCH   4   5
HETATM    5  N1  UNL     1      22.208  92.982  38.360  1.00  0.00    -0.406 N 
HETATM    6  C1  UNL     1      22.898  92.569  39.355  1.00  0.00     0.112 C 
ATOM      7  H1  UNL     1      21.226  93.225  38.498  1.00  0.00     0.158 HD
ENDBRANCH   4   5
ENDBRANCH   3   4
ENDBRANCH   1   3
BRANCH   1   8
HETATM    8  C4  UNL     1      19.565  93.073  35.071  1.00  0.00     0.028 A 
HETATM    9  C5  UNL     1      18.630  93.985  34.631  1.00  0.00     0.029 A 
HETATM   10  C6  UNL     1      17.479  93.542  33.981  1.00  0.00     0.002 A 
HETATM   11  C7  UNL     1      17.228  92.208  33.750  1.00  0.00     0.000 A 
HETATM   12  C8  UNL     1      18.165  91.305  34.191  1.00  0.00     0.002 A 
HETATM   13  C9  UNL     1      19.294  91.736  34.830  1.00  0.00     0.029 A 
ENDBRANCH   1   8
TORSDOF 4
ENDMDL
MODEL 2
REMARK VINA RESULT: -5.733261537      0.043      1.419
REMARK  4 active torsions:
REMARK  status: ('A' for Active; 'I' for Inactive)
REMARK    1  A    between atoms: N1_2  and  C2_4 
REMARK    2  A    between atoms: C2_4  and  C3_5 
REMARK    3  A    between atoms: C3_5  and  N2_6 
REMARK    4  A    between atoms: N2_6  and  C4_8 
ROOT
HETATM    1  N2  UNL     1      20.771  93.482  35.751  1.00  0.00    -0.388 N 
ATOM      2  H2  UNL     1      20.876  94.468  35.993  1.00  0.00     0.159 HD
ENDROOT
BRANCH   1   3
HETATM    3  C3  UNL     1      21.821  92.554  36.094  1.00  0.00     0.139 C 
BRANCH   3   4
HETATM    4  C2  UNL     1      22.810  93.150  37.069  1.00  0.00     0.137 C 
BRANCH   4   5
HETATM    5  N1  UNL     1      22.225  92.977  38.389  1.00  0.00    -0.406 N 
HETATM    6  C1  UNL     1      22.923  92.553  39.373  1.00  0.00     0.112 C 
ATOM      7  H1  UNL     1      21.239  93.199  38.532  1.00  0.00     0.158 HD
ENDBRANCH   4   5
ENDBRANCH   3   4
ENDBRANCH   1   3
BRANCH   1   8
HETATM    8  C4  UNL     1      19.596  93.053  35.083  1.00  0.00     0.028 A 
HETATM    9  C5  UNL     1      19.343  91.719  34.845  1.00  0.00     0.029 A 
HETATM   10  C6  UNL     1      18.174  91.341  34.184  1.00  0.00     0.002 A 
HETATM   11  C7  UNL     1      17.241  92.256  33.751  1.00  0.00     0.000 A 
HETATM   12  C8  UNL     1      17.501  93.584  33.992  1.00  0.00     0.002 A 
HETATM   13  C9  UNL     1      18.646  93.958  34.640  1.00  0.00     0.029 A 
ENDBRANCH   1   8
TORSDOF 4
ENDMDL
MODEL 3
REMARK VINA RESULT: -5.516341277      1.735      6.233
REMARK  4 active torsions:
REMARK  status: ('A' for Active; 'I' for Inactive)
REMARK    1  A    between atoms: N1_2  and  C2_4 
REMARK    2  A    between atoms: C2_4  and  C3_5 
REMARK    3  A    between atoms: C3_5  and  N2_6 
REMARK    4  A    between atoms: N2_6  and  C4_8 
ROOT
HETATM    1  N2  UNL     1      22.054  92.833  37.435  1.00  0.00    -0.388 N 
ATOM      2  H2  UNL     1      21.156  93.149  37.802  1.00  0.00     0.159 HD
ENDROOT
BRANCH   1   3
HETATM    3  C3  UNL     1      22.202  92.625  36.014  1.00  0.00     0.139 C 
BRANCH   3   4
HETATM    4  C2  UNL     1      20.881  92.339  35.339  1.00  0.00     0.137 C 
BRANCH   4   5
HETATM    5  N1  UNL     1      19.856  92.619  36.331  1.00  0.00    -0.406 N 
HETATM    6  C1  UNL     1      18.615  92.462  36.066  1.00  0.00     0.112 C 
ATOM      7  H1  UNL     1      20.132  92.948  37.258  1.00  0.00     0.158 HD
ENDBRANCH   4   5
ENDBRANCH   3   4
ENDBRANCH   1   3
BRANCH   1   8
HETATM    8  C4  UNL     1      23.129  92.607  38.330  1.00  0.00     0.028 A 
HETATM    9  C5  UNL     1      24.431  92.504  37.890  1.00  0.00     0.029 A 
HETATM   10  C6  UNL     1      25.458  92.281  38.805  1.00  0.00     0.002 A 
HETATM   11  C7  UNL     1      25.230  92.156  40.157  1.00  0.00     0.000 A 
HETATM   12  C8  UNL     1      23.929  92.259  40.589  1.00  0.00     0.002 A 
HETATM   13  C9  UNL     1      22.919  92.478  39.693  1.00  0.00     0.029 A 
ENDBRANCH   1   8
TORSDOF 4
ENDMDL
MODEL 4
REMARK VINA RESULT: -5.504767759      1.027      1.665
REMARK  4 active torsions:
REMARK  status: ('A' for Active; 'I' for Inactive)
REMARK    1  A    between atoms: N1_2  and  C2_4 
REMARK    2  A    between atoms: C2_4  and  C3_5 
REMARK    3  A    between atoms: C3_5  and  N2_6 
REMARK    4  A    between atoms: N2_6  and  C4_8 
ROOT
HETATM    1  N2  UNL     1      20.117  92.556  36.166  1.00  0.00    -0.388 N 
ATOM      2  H2  UNL     1      20.004  92.398  37.168  1.00  0.00     0.159 HD
ENDROOT
BRANCH   1   3
HETATM    3  C3  UNL     1      21.389  92.277  35.545  1.00  0.00     0.139 C 
BRANCH   3   4
HETATM    4  C2  UNL     1      22.552  92.647  36.438  1.00  0.00     0.137 C 
BRANCH   4   5
HETATM    5  N1  UNL     1      21.972  93.009  37.720  1.00  0.00    -0.406 N 
HETATM    6  C1  UNL     1      22.686  93.059  38.781  1.00  0.00     0.112 C 
ATOM      7  H1  UNL     1      20.977  93.227  37.776  1.00  0.00     0.158 HD
ENDBRANCH   4   5
ENDBRANCH   3   4
ENDBRANCH   1   3
BRANCH   1   8
HETATM    8  C4  UNL     1      19.020  93.047  35.413  1.00  0.00     0.028 A 
HETATM    9  C5  UNL     1      17.797  92.414  35.417  1.00  0.00     0.029 A 
HETATM   10  C6  UNL     1      16.745  92.931  34.661  1.00  0.00     0.002 A 
HETATM   11  C7  UNL     1      16.874  94.068  33.896  1.00  0.00     0.000 A 
HETATM   12  C8  UNL     1      18.097  94.693  33.897  1.00  0.00     0.002 A 
HETATM   13  C9  UNL     1      19.131  94.189  34.637  1.00  0.00     0.029 A 
ENDBRANCH   1   8
TORSDOF 4
ENDMDL
MODEL 5
REMARK VINA RESULT: -5.504382478      1.631      2.969
REMARK  4 active torsions:
REMARK  status: ('A' for Active; 'I' for Inactive)
REMARK    1  A    between atoms: N1_2  and  C2_4 
REMARK    2  A    between atoms: C2_4  and  C3_5 
REMARK    3  A    between atoms: C3_5  and  N2_6 
REMARK    4  A    between atoms: N2_6  and  C4_8 
ROOT
HETATM    1  N2  UNL     1      19.174  93.753  35.338  1.00  0.00    -0.388 N 
ATOM      2  H2  UNL     1      19.621  94.233  36.120  1.00  0.00     0.159 HD
ENDROOT
BRANCH   1   3
HETATM    3  C3  UNL     1      19.567  92.401  35.021  1.00  0.00     0.139 C 
BRANCH   3   4
HETATM    4  C2  UNL     1      21.049  92.179  35.213  1.00  0.00     0.137 C 
BRANCH   4   5
HETATM    5  N1  UNL     1      21.431  92.990  36.357  1.00  0.00    -0.406 N 
HETATM    6  C1  UNL     1      22.609  92.928  36.852  1.00  0.00     0.112 C 
ATOM      7  H1  UNL     1      20.745  93.622  36.774  1.00  0.00     0.158 HD
ENDBRANCH   4   5
ENDBRANCH   3   4
ENDBRANCH   1   3
BRANCH   1   8
HETATM    8  C4  UNL     1      18.180  94.429  34.586  1.00  0.00     0.028 A 
HETATM    9  C5  UNL     1      17.100  93.763  34.049  1.00  0.00     0.029 A 
HETATM   10  C6  UNL     1      16.146  94.467  33.314  1.00  0.00     0.002 A 
HETATM   11  C7  UNL     1      16.233  95.824  33.097  1.00  0.00     0.000 A 
HETATM   12  C8  UNL     1      17.314  96.480  33.635  1.00  0.00     0.002 A 
HETATM   13  C9  UNL     1      18.251  95.793  34.356  1.00  0.00     0.029 A 
ENDBRANCH   1   8
TORSDOF 4
ENDMDL
