MODEL 1
REMARK VINA RESULT: -6.413174394      0.000      0.000
REMARK  5 active torsions:
REMARK  status: ('A' for Active; 'I' for Inactive)
REMARK    1  A    between atoms: C2_2  and  C3_3 
REMARK    2  A    between atoms: C3_3  and  N1_4 
REMARK    3  A    between atoms: N1_4  and  C4_7 
REMARK    4  A    between atoms: C6_9  and  C7_10 
REMARK    5  A    between atoms: C7_10  and  C8_11 
ROOT
HETATM    1  C4  UNL     1      18.755  92.666  33.717  1.00  0.00     0.191 A 
HETATM    2  C5  UNL     1      19.517  93.434  34.774  1.00  0.00     0.040 A 
HETATM    3  C6  UNL     1      18.135  93.807  34.386  1.00  0.00     0.021 A 
ENDROOT
BRANCH   1   4
HETATM    4  N1  UNL     1      18.361  91.323  34.170  1.00  0.00    -0.068 N 
ATOM      5  H12 UNL     1      18.669  91.136  35.124  1.00  0.00     0.277 HD
ATOM      6  H11 UNL     1      18.889  90.590  33.697  1.00  0.00     0.277 HD
BRANCH   4   7
HETATM    7  C3  UNL     1      16.919  91.149  34.014  1.00  0.00     0.259 C 
BRANCH   7   8
HETATM    8  C2  UNL     1      16.642  90.993  32.567  1.00  0.00    -0.010 C 
HETATM    9  C1  UNL     1      17.043  89.931  31.895  1.00  0.00     0.008 C 
ENDBRANCH   7   8
ENDBRANCH   4   7
ENDBRANCH   1   4
BRANCH   3  10
HETATM   10  C7  UNL     1      18.029  95.170  33.728  1.00  0.00     0.033 C 
BRANCH  10  11
HETATM   11  C8  UNL     1      16.588  95.409  33.413  1.00  0.00    -0.036 C 
HETATM   12  C9  UNL     1      16.126  96.557  32.978  1.00  0.00     0.007 C 
ENDBRANCH  10  11
ENDBRANCH   3  10
TORSDOF 5
ENDMDL
MODEL 2
REMARK VINA RESULT: -6.082465789      1.374      4.529
REMARK  5 active torsions:
REMARK  status: ('A' for Active; 'I' for Inactive)
REMARK    1  A    between atoms: C2_2  and  C3_3 
REMARK    2  A    between atoms: C3_3  and  N1_4 
REMARK    3  A    between atoms: N1_4  and  C4_7 
REMARK    4  A    between atoms: C6_9  and  C7_10 
REMARK    5  A    between atoms: C7_10  and  C8_11 
ROOT
HETATM    1  C4  UNL     1      17.930  93.441  34.564  1.00  0.00     0.191 A 
HETATM    2  C5  UNL     1      19.330  93.015  34.180  1.00  0.00     0.040 A 
HETATM    3  C6  UNL     1      18.138  92.511  33.456  1.00  0.00     0.021 A 
ENDROOT
BRANCH   1   4
HETATM    4  N1  UNL     1      17.654  94.845  34.223  1.00  0.00    -0.068 N 
ATOM      5  H12 UNL     1      18.397  95.255  33.657  1.00  0.00     0.277 HD
ATOM      6  H11 UNL     1      17.730  95.458  35.035  1.00  0.00     0.277 HD
BRANCH   4   7
HETATM    7  C3  UNL     1      16.349  94.952  33.576  1.00  0.00     0.259 C 
BRANCH   7   8
HETATM    8  C2  UNL     1      16.201  96.346  33.096  1.00  0.00    -0.010 C 
HETATM    9  C1  UNL     1      17.234  97.164  33.013  1.00  0.00     0.008 C 
ENDBRANCH   7   8
ENDBRANCH   4   7
ENDBRANCH   1   4
BRANCH   3  10
HETATM   10  C7  UNL     1      17.916  91.017  33.604  1.00  0.00     0.033 C 
BRANCH  10  11
HETATM   11  C8  UNL     1      16.863  90.618  32.622  1.00  0.00    -0.036 C 
HETATM   12  C9  UNL     1      17.082  89.796  31.624  1.00  0.00     0.007 C 
ENDBRANCH  10  11
ENDBRANCH   3  10
TORSDOF 5
ENDMDL
MODEL 3
REMARK VINA RESULT: -6.018115110      1.281      4.375
REMARK  5 active torsions:
REMARK  status: ('A' for Active; 'I' for Inactive)
REMARK    1  A    between atoms: C2_2  and  C3_3 
REMARK    2  A    between atoms: C3_3  and  N1_4 
REMARK    3  A    between atoms: N1_4  and  C4_7 
REMARK    4  A    between atoms: C6_9  and  C7_10 
REMARK    5  A    between atoms: C7_10  and  C8_11 
ROOT
HETATM    1  C4  UNL     1      17.692  93.066  35.035  1.00  0.00     0.191 A 
HETATM    2  C5  UNL     1      18.563  91.969  35.604  1.00  0.00     0.040 A 
HETATM    3  C6  UNL     1      18.120  91.955  34.189  1.00  0.00     0.021 A 
ENDROOT
BRANCH   1   4
HETATM    4  N1  UNL     1      18.412  94.341  34.890  1.00  0.00    -0.068 N 
ATOM      5  H12 UNL     1      19.410  94.239  35.072  1.00  0.00     0.277 HD
ATOM      6  H11 UNL     1      18.189  94.994  35.640  1.00  0.00     0.277 HD
BRANCH   4   7
HETATM    7  C3  UNL     1      18.150  94.911  33.570  1.00  0.00     0.259 C 
BRANCH   7   8
HETATM    8  C2  UNL     1      16.725  95.313  33.532  1.00  0.00    -0.010 C 
HETATM    9  C1  UNL     1      16.350  96.499  33.089  1.00  0.00     0.008 C 
ENDBRANCH   7   8
ENDBRANCH   4   7
ENDBRANCH   1   4
BRANCH   3  10
HETATM   10  C7  UNL     1      17.198  90.799  33.847  1.00  0.00     0.033 C 
BRANCH  10  11
HETATM   11  C8  UNL     1      16.972  90.824  32.370  1.00  0.00    -0.036 C 
HETATM   12  C9  UNL     1      16.962  89.745  31.624  1.00  0.00     0.007 C 
ENDBRANCH  10  11
ENDBRANCH   3  10
TORSDOF 5
ENDMDL
MODEL 4
REMARK VINA RESULT: -5.632762292      1.434      2.926
REMARK  5 active torsions:
REMARK  status: ('A' for Active; 'I' for Inactive)
REMARK    1  A    between atoms: C2_2  and  C3_3 
REMARK    2  A    between atoms: C3_3  and  N1_4 
REMARK    3  A    between atoms: N1_4  and  C4_7 
REMARK    4  A    between atoms: C6_9  and  C7_10 
REMARK    5  A    between atoms: C7_10  and  C8_11 
ROOT
HETATM    1  C4  UNL     1      17.069  92.444  34.926  1.00  0.00     0.191 A 
HETATM    2  C5  UNL     1      16.977  92.142  33.447  1.00  0.00     0.040 A 
HETATM    3  C6  UNL     1      17.433  93.462  33.944  1.00  0.00     0.021 A 
ENDROOT
BRANCH   1   4
HETATM    4  N1  UNL     1      18.167  91.718  35.583  1.00  0.00    -0.068 N 
ATOM      5  H12 UNL     1      18.719  91.176  34.919  1.00  0.00     0.277 HD
ATOM      6  H11 UNL     1      17.826  90.947  36.158  1.00  0.00     0.277 HD
BRANCH   4   7
HETATM    7  C3  UNL     1      18.990  92.650  36.350  1.00  0.00     0.259 C 
BRANCH   7   8
HETATM    8  C2  UNL     1      20.302  92.750  35.669  1.00  0.00    -0.010 C 
HETATM    9  C1  UNL     1      20.750  91.790  34.881  1.00  0.00     0.008 C 
ENDBRANCH   7   8
ENDBRANCH   4   7
ENDBRANCH   1   4
BRANCH   3  10
HETATM   10  C7  UNL     1      16.504  94.607  33.586  1.00  0.00     0.033 C 
BRANCH  10  11
HETATM   11  C8  UNL     1      17.330  95.849  33.498  1.00  0.00    -0.036 C 
HETATM   12  C9  UNL     1      16.854  97.005  33.100  1.00  0.00     0.007 C 
ENDBRANCH  10  11
ENDBRANCH   3  10
TORSDOF 5
ENDMDL
MODEL 5
REMARK VINA RESULT: -5.621584563      1.944      3.462
REMARK  5 active torsions:
REMARK  status: ('A' for Active; 'I' for Inactive)
REMARK    1  A    between atoms: C2_2  and  C3_3 
REMARK    2  A    between atoms: C3_3  and  N1_4 
REMARK    3  A    between atoms: N1_4  and  C4_7 
REMARK    4  A    between atoms: C6_9  and  C7_10 
REMARK    5  A    between atoms: C7_10  and  C8_11 
ROOT
HETATM    1  C4  UNL     1      18.569  93.079  35.371  1.00  0.00     0.191 A 
HETATM    2  C5  UNL     1      17.138  93.018  34.885  1.00  0.00     0.040 A 
HETATM    3  C6  UNL     1      18.215  93.617  34.060  1.00  0.00     0.021 A 
ENDROOT
BRANCH   1   4
HETATM    4  N1  UNL     1      19.210  91.756  35.408  1.00  0.00    -0.068 N 
ATOM      5  H12 UNL     1      18.707  91.072  34.842  1.00  0.00     0.277 HD
ATOM      6  H11 UNL     1      19.104  91.304  36.316  1.00  0.00     0.277 HD
BRANCH   4   7
HETATM    7  C3  UNL     1      20.611  91.872  35.012  1.00  0.00     0.259 C 
BRANCH   7   8
HETATM    8  C2  UNL     1      21.272  92.788  35.970  1.00  0.00    -0.010 C 
HETATM    9  C1  UNL     1      22.499  92.571  36.404  1.00  0.00     0.008 C 
ENDBRANCH   7   8
ENDBRANCH   4   7
ENDBRANCH   1   4
BRANCH   3  10
HETATM   10  C7  UNL     1      18.046  95.105  33.815  1.00  0.00     0.033 C 
BRANCH  10  11
HETATM   11  C8  UNL     1      16.619  95.342  33.440  1.00  0.00    -0.036 C 
HETATM   12  C9  UNL     1      16.178  96.484  32.971  1.00  0.00     0.007 C 
ENDBRANCH  10  11
ENDBRANCH   3  10
TORSDOF 5
ENDMDL
