MODEL 1
REMARK VINA RESULT: -6.113466775      0.000      0.000
REMARK  4 active torsions:
REMARK  status: ('A' for Active; 'I' for Inactive)
REMARK    1  A    between atoms: C2_2  and  C3_3 
REMARK    2  A    between atoms: C3_3  and  N1_4 
REMARK    3  A    between atoms: N1_4  and  C4_7 
REMARK    4  A    between atoms: C4_7  and  C5_8 
ROOT
HETATM    1  C4  UNL     1      17.894  93.068  34.910  1.00  0.00     0.271 C 
ENDROOT
BRANCH   1   2
HETATM    2  N1  UNL     1      16.889  92.032  34.878  1.00  0.00    -0.068 N 
ATOM      3  H12 UNL     1      15.973  92.365  34.578  1.00  0.00     0.277 HD
ATOM      4  H11 UNL     1      16.609  91.712  35.806  1.00  0.00     0.277 HD
BRANCH   2   5
HETATM    5  C3  UNL     1      17.425  90.963  34.032  1.00  0.00     0.259 C 
BRANCH   5   6
HETATM    6  C2  UNL     1      16.708  90.862  32.743  1.00  0.00    -0.010 C 
HETATM    7  C1  UNL     1      17.035  90.011  31.798  1.00  0.00     0.008 C 
ENDBRANCH   5   6
ENDBRANCH   2   5
ENDBRANCH   1   2
BRANCH   1   8
HETATM    8  C5  UNL     1      17.447  94.329  34.302  1.00  0.00    -0.033 A 
HETATM    9  C6  UNL     1      16.327  94.411  33.501  1.00  0.00     0.009 A 
HETATM   10  C7  UNL     1      15.914  95.606  32.933  1.00  0.00     0.001 A 
HETATM   11  C8  UNL     1      16.639  96.753  33.171  1.00  0.00     0.000 A 
HETATM   12  C9  UNL     1      17.772  96.707  33.972  1.00  0.00     0.001 A 
HETATM   13  C10 UNL     1      18.152  95.492  34.522  1.00  0.00     0.009 A 
ENDBRANCH   1   8
TORSDOF 4
ENDMDL
MODEL 2
REMARK VINA RESULT: -6.011722888      0.662      1.427
REMARK  4 active torsions:
REMARK  status: ('A' for Active; 'I' for Inactive)
REMARK    1  A    between atoms: C2_2  and  C3_3 
REMARK    2  A    between atoms: C3_3  and  N1_4 
REMARK    3  A    between atoms: N1_4  and  C4_7 
REMARK    4  A    between atoms: C4_7  and  C5_8 
ROOT
HETATM    1  C4  UNL     1      17.971  92.674  35.130  1.00  0.00     0.271 C 
ENDROOT
BRANCH   1   2
HETATM    2  N1  UNL     1      17.075  91.571  34.872  1.00  0.00    -0.068 N 
ATOM      3  H12 UNL     1      16.115  91.863  34.693  1.00  0.00     0.277 HD
ATOM      4  H11 UNL     1      16.883  91.004  35.698  1.00  0.00     0.277 HD
BRANCH   2   5
HETATM    5  C3  UNL     1      17.667  90.809  33.770  1.00  0.00     0.259 C 
BRANCH   5   6
HETATM    6  C2  UNL     1      16.770  90.744  32.595  1.00  0.00    -0.010 C 
HETATM    7  C1  UNL     1      16.943  89.906  31.599  1.00  0.00     0.008 C 
ENDBRANCH   5   6
ENDBRANCH   2   5
ENDBRANCH   1   2
BRANCH   1   8
HETATM    8  C5  UNL     1      17.601  93.902  34.413  1.00  0.00    -0.033 A 
HETATM    9  C6  UNL     1      18.539  94.760  33.877  1.00  0.00     0.009 A 
HETATM   10  C7  UNL     1      18.179  95.916  33.202  1.00  0.00     0.001 A 
HETATM   11  C8  UNL     1      16.844  96.225  33.056  1.00  0.00     0.000 A 
HETATM   12  C9  UNL     1      15.873  95.383  33.583  1.00  0.00     0.001 A 
HETATM   13  C10 UNL     1      16.274  94.236  34.252  1.00  0.00     0.009 A 
ENDBRANCH   1   8
TORSDOF 4
ENDMDL
MODEL 3
REMARK VINA RESULT: -5.788509943      3.795      5.512
REMARK  4 active torsions:
REMARK  status: ('A' for Active; 'I' for Inactive)
REMARK    1  A    between atoms: C2_2  and  C3_3 
REMARK    2  A    between atoms: C3_3  and  N1_4 
REMARK    3  A    between atoms: N1_4  and  C4_7 
REMARK    4  A    between atoms: C4_7  and  C5_8 
ROOT
HETATM    1  C4  UNL     1      21.124  92.329  35.321  1.00  0.00     0.271 C 
ENDROOT
BRANCH   1   2
HETATM    2  N1  UNL     1      21.550  93.336  36.264  1.00  0.00    -0.068 N 
ATOM      3  H12 UNL     1      20.797  93.675  36.862  1.00  0.00     0.277 HD
ATOM      4  H11 UNL     1      21.776  94.230  35.827  1.00  0.00     0.277 HD
BRANCH   2   5
HETATM    5  C3  UNL     1      22.669  92.755  37.010  1.00  0.00     0.259 C 
BRANCH   5   6
HETATM    6  C2  UNL     1      22.672  93.179  38.427  1.00  0.00    -0.010 C 
HETATM    7  C1  UNL     1      23.058  92.402  39.413  1.00  0.00     0.008 C 
ENDBRANCH   5   6
ENDBRANCH   2   5
ENDBRANCH   1   2
BRANCH   1   8
HETATM    8  C5  UNL     1      19.763  92.548  34.813  1.00  0.00    -0.033 A 
HETATM    9  C6  UNL     1      19.292  93.797  34.465  1.00  0.00     0.009 A 
HETATM   10  C7  UNL     1      18.007  93.993  33.987  1.00  0.00     0.001 A 
HETATM   11  C8  UNL     1      17.164  92.911  33.851  1.00  0.00     0.000 A 
HETATM   12  C9  UNL     1      17.605  91.639  34.193  1.00  0.00     0.001 A 
HETATM   13  C10 UNL     1      18.899  91.485  34.667  1.00  0.00     0.009 A 
ENDBRANCH   1   8
TORSDOF 4
ENDMDL
MODEL 4
REMARK VINA RESULT: -5.787748936      3.791      5.406
REMARK  4 active torsions:
REMARK  status: ('A' for Active; 'I' for Inactive)
REMARK    1  A    between atoms: C2_2  and  C3_3 
REMARK    2  A    between atoms: C3_3  and  N1_4 
REMARK    3  A    between atoms: N1_4  and  C4_7 
REMARK    4  A    between atoms: C4_7  and  C5_8 
ROOT
HETATM    1  C4  UNL     1      21.124  92.304  35.309  1.00  0.00     0.271 C 
ENDROOT
BRANCH   1   2
HETATM    2  N1  UNL     1      21.535  93.316  36.255  1.00  0.00    -0.068 N 
ATOM      3  H12 UNL     1      20.778  93.634  36.861  1.00  0.00     0.277 HD
ATOM      4  H11 UNL     1      21.736  94.217  35.821  1.00  0.00     0.277 HD
BRANCH   2   5
HETATM    5  C3  UNL     1      22.672  92.757  36.989  1.00  0.00     0.259 C 
BRANCH   5   6
HETATM    6  C2  UNL     1      22.687  93.188  38.403  1.00  0.00    -0.010 C 
HETATM    7  C1  UNL     1      23.084  92.418  39.390  1.00  0.00     0.008 C 
ENDBRANCH   5   6
ENDBRANCH   2   5
ENDBRANCH   1   2
BRANCH   1   8
HETATM    8  C5  UNL     1      19.758  92.500  34.806  1.00  0.00    -0.033 A 
HETATM    9  C6  UNL     1      18.871  91.457  34.638  1.00  0.00     0.009 A 
HETATM   10  C7  UNL     1      17.585  91.653  34.163  1.00  0.00     0.001 A 
HETATM   11  C8  UNL     1      17.169  92.927  33.845  1.00  0.00     0.000 A 
HETATM   12  C9  UNL     1      18.035  94.001  34.002  1.00  0.00     0.001 A 
HETATM   13  C10 UNL     1      19.315  93.763  34.480  1.00  0.00     0.009 A 
ENDBRANCH   1   8
TORSDOF 4
ENDMDL
MODEL 5
REMARK VINA RESULT: -5.625757792      6.179      7.842
REMARK  4 active torsions:
REMARK  status: ('A' for Active; 'I' for Inactive)
REMARK    1  A    between atoms: C2_2  and  C3_3 
REMARK    2  A    between atoms: C3_3  and  N1_4 
REMARK    3  A    between atoms: N1_4  and  C4_7 
REMARK    4  A    between atoms: C4_7  and  C5_8 
ROOT
HETATM    1  C4  UNL     1      22.822  92.656  36.496  1.00  0.00     0.271 C 
ENDROOT
BRANCH   1   2
HETATM    2  N1  UNL     1      21.394  92.801  36.653  1.00  0.00    -0.068 N 
ATOM      3  H12 UNL     1      21.114  93.729  36.970  1.00  0.00     0.277 HD
ATOM      4  H11 UNL     1      21.019  92.278  37.446  1.00  0.00     0.277 HD
BRANCH   2   5
HETATM    5  C3  UNL     1      20.798  92.419  35.371  1.00  0.00     0.259 C 
BRANCH   5   6
HETATM    6  C2  UNL     1      19.693  93.322  34.981  1.00  0.00    -0.010 C 
HETATM    7  C1  UNL     1      19.326  93.519  33.735  1.00  0.00     0.008 C 
ENDBRANCH   5   6
ENDBRANCH   2   5
ENDBRANCH   1   2
BRANCH   1   8
HETATM    8  C5  UNL     1      23.534  92.506  37.773  1.00  0.00    -0.033 A 
HETATM    9  C6  UNL     1      24.899  92.320  37.845  1.00  0.00     0.009 A 
HETATM   10  C7  UNL     1      25.560  92.180  39.054  1.00  0.00     0.001 A 
HETATM   11  C8  UNL     1      24.840  92.227  40.228  1.00  0.00     0.000 A 
HETATM   12  C9  UNL     1      23.464  92.412  40.193  1.00  0.00     0.001 A 
HETATM   13  C10 UNL     1      22.839  92.548  38.962  1.00  0.00     0.009 A 
ENDBRANCH   1   8
TORSDOF 4
ENDMDL
