MODEL 1
REMARK VINA RESULT: -10.914091877      0.000      0.000
REMARK  11 active torsions:
REMARK  status: ('A' for Active; 'I' for Inactive)
REMARK    1  A    between atoms: C10_10  and  C12_12 
REMARK    2  A    between atoms: C13_13  and  C14_14 
REMARK    3  A    between atoms: C14_14  and  O1_15 
REMARK    4  A    between atoms: C15_17  and  C16_18 
REMARK    5  A    between atoms: C16_18  and  C19_21 
REMARK    6  A    between atoms: C19_21  and  C20_22 
REMARK    7  A    between atoms: C21_23  and  C23_25 
REMARK    8  A    between atoms: C23_25  and  C24_26 
REMARK    9  A    between atoms: C24_26  and  C25_27 
REMARK   10  A    between atoms: C30_34  and  C31_35 
REMARK   11  A    between atoms: C31_35  and  C32_36 
ROOT
HETATM    1  C12 UNL     1       3.484  61.498  68.872  1.00  0.00    -0.004 C 
HETATM    2  C13 UNL     1       3.318  61.962  67.721  1.00  0.00     0.034 C 
ENDROOT
BRANCH   1   3
HETATM    3  C10 UNL     1       3.682  61.756  70.279  1.00  0.00     0.065 C 
HETATM    4  C8  UNL     1       3.208  60.610  71.149  1.00  0.00     0.003 C 
HETATM    5  C7  UNL     1       1.742  60.400  71.212  1.00  0.00     0.009 C 
HETATM    6  C9  UNL     1       3.870  60.631  72.508  1.00  0.00     0.011 C 
HETATM    7  C6  UNL     1       1.087  61.266  72.277  1.00  0.00     0.040 C 
HETATM    8  C5  UNL     1       0.693  62.539  71.680  1.00  0.00     0.078 C 
HETATM    9  C4  UNL     1       0.304  63.552  72.770  1.00  0.00     0.043 C 
HETATM   10  O3  UNL     1       1.594  63.124  70.811  1.00  0.00    -0.308 OA
HETATM   11  C30 UNL     1      -0.656  62.495  70.909  1.00  0.00     0.049 C 
HETATM   12  C3  UNL     1      -0.484  64.604  72.006  1.00  0.00     0.037 C 
HETATM   13  C2  UNL     1      -0.829  63.937  70.715  1.00  0.00    -0.082 C 
HETATM   14  C1  UNL     1      -1.179  64.552  69.611  1.00  0.00     0.015 C 
HETATM   15  C29 UNL     1       2.928  63.032  70.574  1.00  0.00     0.272 C 
HETATM   16  O2  UNL     1       3.608  64.111  70.600  1.00  0.00    -0.264 OA
HETATM   17  C11 UNL     1       5.128  62.074  70.606  1.00  0.00     0.031 C 
BRANCH  11  18
HETATM   18  C31 UNL     1      -1.667  61.735  71.632  1.00  0.00     0.011 C 
BRANCH  18  19
HETATM   19  C32 UNL     1      -2.653  61.002  70.792  1.00  0.00    -0.004 C 
HETATM   20  C33 UNL     1      -2.590  61.109  69.326  1.00  0.00     0.005 C 
ENDBRANCH  18  19
ENDBRANCH  11  18
ENDBRANCH   1   3
BRANCH   2  21
HETATM   21  C14 UNL     1       3.214  63.258  67.070  1.00  0.00     0.066 C 
HETATM   22  C15 UNL     1       3.577  63.356  65.781  1.00  0.00     0.043 C 
BRANCH  21  23
HETATM   23  O1  UNL     1       2.771  64.344  67.745  1.00  0.00    -0.361 OA
ATOM     24  H1  UNL     1       3.379  64.983  68.099  1.00  0.00     0.217 HD
ENDBRANCH  21  23
BRANCH  22  25
HETATM   25  C16 UNL     1       3.565  64.459  64.914  1.00  0.00    -0.056 C 
HETATM   26  C17 UNL     1       4.190  64.335  63.703  1.00  0.00    -0.024 C 
HETATM   27  C18 UNL     1       4.856  63.064  63.338  1.00  0.00     0.036 C 
BRANCH  25  28
HETATM   28  C19 UNL     1       2.906  65.762  65.085  1.00  0.00     0.065 C 
BRANCH  28  29
HETATM   29  C20 UNL     1       3.227  66.749  64.021  1.00  0.00    -0.020 C 
HETATM   30  C21 UNL     1       4.213  67.640  64.079  1.00  0.00    -0.087 C 
HETATM   31  C22 UNL     1       4.356  68.550  62.863  1.00  0.00     0.043 C 
BRANCH  30  32
HETATM   32  C23 UNL     1       5.166  67.889  65.154  1.00  0.00     0.037 C 
BRANCH  32  33
HETATM   33  C24 UNL     1       4.704  68.981  66.109  1.00  0.00     0.031 C 
BRANCH  33  34
HETATM   34  C25 UNL     1       5.915  69.593  66.693  1.00  0.00    -0.024 C 
HETATM   35  C26 UNL     1       5.917  70.178  67.882  1.00  0.00    -0.091 C 
HETATM   36  C27 UNL     1       4.663  70.246  68.704  1.00  0.00     0.042 C 
HETATM   37  C28 UNL     1       7.172  70.785  68.409  1.00  0.00     0.042 C 
ENDBRANCH  33  34
ENDBRANCH  32  33
ENDBRANCH  30  32
ENDBRANCH  28  29
ENDBRANCH  25  28
ENDBRANCH  22  25
ENDBRANCH   2  21
TORSDOF 11
ENDMDL
MODEL 2
REMARK VINA RESULT: -10.814593216      2.340      4.090
REMARK  11 active torsions:
REMARK  status: ('A' for Active; 'I' for Inactive)
REMARK    1  A    between atoms: C10_10  and  C12_12 
REMARK    2  A    between atoms: C13_13  and  C14_14 
REMARK    3  A    between atoms: C14_14  and  O1_15 
REMARK    4  A    between atoms: C15_17  and  C16_18 
REMARK    5  A    between atoms: C16_18  and  C19_21 
REMARK    6  A    between atoms: C19_21  and  C20_22 
REMARK    7  A    between atoms: C21_23  and  C23_25 
REMARK    8  A    between atoms: C23_25  and  C24_26 
REMARK    9  A    between atoms: C24_26  and  C25_27 
REMARK   10  A    between atoms: C30_34  and  C31_35 
REMARK   11  A    between atoms: C31_35  and  C32_36 
ROOT
HETATM    1  C12 UNL     1       1.866  64.439  70.429  1.00  0.00    -0.004 C 
HETATM    2  C13 UNL     1       1.751  65.561  69.884  1.00  0.00     0.034 C 
ENDROOT
BRANCH   1   3
HETATM    3  C10 UNL     1       1.439  63.061  70.494  1.00  0.00     0.065 C 
HETATM    4  C8  UNL     1      -0.064  62.916  70.374  1.00  0.00     0.003 C 
HETATM    5  C7  UNL     1      -0.863  63.404  71.522  1.00  0.00     0.009 C 
HETATM    6  C9  UNL     1      -0.455  61.528  69.917  1.00  0.00     0.011 C 
HETATM    7  C6  UNL     1      -1.011  62.345  72.605  1.00  0.00     0.040 C 
HETATM    8  C5  UNL     1       0.093  62.475  73.553  1.00  0.00     0.078 C 
HETATM    9  C4  UNL     1       0.154  61.254  74.485  1.00  0.00     0.043 C 
HETATM   10  O3  UNL     1       1.346  62.710  73.021  1.00  0.00    -0.308 OA
HETATM   11  C30 UNL     1      -0.114  63.580  74.628  1.00  0.00     0.049 C 
HETATM   12  C3  UNL     1       1.010  61.740  75.645  1.00  0.00     0.037 C 
HETATM   13  C2  UNL     1       1.007  63.227  75.503  1.00  0.00    -0.082 C 
HETATM   14  C1  UNL     1       1.883  64.043  76.038  1.00  0.00     0.015 C 
HETATM   15  C29 UNL     1       1.948  62.534  71.817  1.00  0.00     0.272 C 
HETATM   16  O2  UNL     1       3.036  61.869  71.791  1.00  0.00    -0.264 OA
HETATM   17  C11 UNL     1       2.116  62.200  69.446  1.00  0.00     0.031 C 
BRANCH  11  18
HETATM   18  C31 UNL     1      -1.473  63.576  75.153  1.00  0.00     0.011 C 
BRANCH  18  19
HETATM   19  C32 UNL     1      -2.005  64.895  75.589  1.00  0.00    -0.004 C 
HETATM   20  C33 UNL     1      -1.981  66.038  74.662  1.00  0.00     0.005 C 
ENDBRANCH  18  19
ENDBRANCH  11  18
ENDBRANCH   1   3
BRANCH   2  21
HETATM   21  C14 UNL     1       0.980  66.185  68.821  1.00  0.00     0.066 C 
HETATM   22  C15 UNL     1       1.627  66.954  67.931  1.00  0.00     0.043 C 
BRANCH  21  23
HETATM   23  O1  UNL     1      -0.358  66.006  68.732  1.00  0.00    -0.361 OA
ATOM     24  H1  UNL     1      -0.724  65.301  68.211  1.00  0.00     0.217 HD
ENDBRANCH  21  23
BRANCH  22  25
HETATM   25  C16 UNL     1       1.147  67.654  66.814  1.00  0.00    -0.056 C 
HETATM   26  C17 UNL     1       0.821  68.973  66.969  1.00  0.00    -0.024 C 
HETATM   27  C18 UNL     1       0.977  69.626  68.288  1.00  0.00     0.036 C 
BRANCH  25  28
HETATM   28  C19 UNL     1       0.989  67.186  65.428  1.00  0.00     0.065 C 
BRANCH  28  29
HETATM   29  C20 UNL     1       2.136  66.385  64.924  1.00  0.00    -0.020 C 
HETATM   30  C21 UNL     1       3.292  66.890  64.503  1.00  0.00    -0.087 C 
HETATM   31  C22 UNL     1       4.326  65.873  64.034  1.00  0.00     0.043 C 
BRANCH  30  32
HETATM   32  C23 UNL     1       3.705  68.284  64.402  1.00  0.00     0.037 C 
BRANCH  32  33
HETATM   33  C24 UNL     1       4.952  68.591  65.219  1.00  0.00     0.031 C 
BRANCH  33  34
HETATM   34  C25 UNL     1       4.503  69.071  66.542  1.00  0.00    -0.024 C 
HETATM   35  C26 UNL     1       5.294  69.745  67.364  1.00  0.00    -0.091 C 
HETATM   36  C27 UNL     1       6.711  70.057  66.977  1.00  0.00     0.042 C 
HETATM   37  C28 UNL     1       4.780  70.192  68.689  1.00  0.00     0.042 C 
ENDBRANCH  33  34
ENDBRANCH  32  33
ENDBRANCH  30  32
ENDBRANCH  28  29
ENDBRANCH  25  28
ENDBRANCH  22  25
ENDBRANCH   2  21
TORSDOF 11
ENDMDL
MODEL 3
REMARK VINA RESULT: -10.782430104      2.582      4.453
REMARK  11 active torsions:
REMARK  status: ('A' for Active; 'I' for Inactive)
REMARK    1  A    between atoms: C10_10  and  C12_12 
REMARK    2  A    between atoms: C13_13  and  C14_14 
REMARK    3  A    between atoms: C14_14  and  O1_15 
REMARK    4  A    between atoms: C15_17  and  C16_18 
REMARK    5  A    between atoms: C16_18  and  C19_21 
REMARK    6  A    between atoms: C19_21  and  C20_22 
REMARK    7  A    between atoms: C21_23  and  C23_25 
REMARK    8  A    between atoms: C23_25  and  C24_26 
REMARK    9  A    between atoms: C24_26  and  C25_27 
REMARK   10  A    between atoms: C30_34  and  C31_35 
REMARK   11  A    between atoms: C31_35  and  C32_36 
ROOT
HETATM    1  C12 UNL     1       2.136  63.895  70.239  1.00  0.00    -0.004 C 
HETATM    2  C13 UNL     1       2.091  65.100  69.901  1.00  0.00     0.034 C 
ENDROOT
BRANCH   1   3
HETATM    3  C10 UNL     1       1.436  62.643  70.402  1.00  0.00     0.065 C 
HETATM    4  C8  UNL     1      -0.060  62.788  70.205  1.00  0.00     0.003 C 
HETATM    5  C7  UNL     1      -0.788  63.537  71.256  1.00  0.00     0.009 C 
HETATM    6  C9  UNL     1      -0.706  61.468  69.852  1.00  0.00     0.011 C 
HETATM    7  C6  UNL     1      -1.193  62.643  72.418  1.00  0.00     0.040 C 
HETATM    8  C5  UNL     1      -0.125  62.645  73.415  1.00  0.00     0.078 C 
HETATM    9  C4  UNL     1      -0.352  61.535  74.454  1.00  0.00     0.043 C 
HETATM   10  O3  UNL     1       1.170  62.572  72.939  1.00  0.00    -0.308 OA
HETATM   11  C30 UNL     1      -0.146  63.870  74.372  1.00  0.00     0.049 C 
HETATM   12  C3  UNL     1       0.537  61.954  75.615  1.00  0.00     0.037 C 
HETATM   13  C2  UNL     1       0.844  63.391  75.340  1.00  0.00    -0.082 C 
HETATM   14  C1  UNL     1       1.845  64.066  75.852  1.00  0.00     0.015 C 
HETATM   15  C29 UNL     1       1.772  62.160  71.794  1.00  0.00     0.272 C 
HETATM   16  O2  UNL     1       2.702  61.293  71.894  1.00  0.00    -0.264 OA
HETATM   17  C11 UNL     1       1.964  61.564  69.477  1.00  0.00     0.031 C 
BRANCH  11  18
HETATM   18  C31 UNL     1      -1.497  64.189  74.813  1.00  0.00     0.011 C 
BRANCH  18  19
HETATM   19  C32 UNL     1      -1.854  65.633  74.823  1.00  0.00    -0.004 C 
HETATM   20  C33 UNL     1      -2.610  66.194  75.954  1.00  0.00     0.005 C 
ENDBRANCH  18  19
ENDBRANCH  11  18
ENDBRANCH   1   3
BRANCH   2  21
HETATM   21  C14 UNL     1       1.122  66.056  69.392  1.00  0.00     0.066 C 
HETATM   22  C15 UNL     1       1.454  66.790  68.318  1.00  0.00     0.043 C 
BRANCH  21  23
HETATM   23  O1  UNL     1      -0.083  66.213  69.987  1.00  0.00    -0.361 OA
ATOM     24  H1  UNL     1      -0.171  66.709  70.792  1.00  0.00     0.217 HD
ENDBRANCH  21  23
BRANCH  22  25
HETATM   25  C16 UNL     1       0.720  67.760  67.617  1.00  0.00    -0.056 C 
HETATM   26  C17 UNL     1       1.090  69.070  67.749  1.00  0.00    -0.024 C 
HETATM   27  C18 UNL     1       2.235  69.434  68.615  1.00  0.00     0.036 C 
BRANCH  25  28
HETATM   28  C19 UNL     1      -0.393  67.573  66.674  1.00  0.00     0.065 C 
BRANCH  28  29
HETATM   29  C20 UNL     1      -0.164  68.181  65.336  1.00  0.00    -0.020 C 
HETATM   30  C21 UNL     1       0.756  67.780  64.464  1.00  0.00    -0.087 C 
HETATM   31  C22 UNL     1       0.804  68.553  63.150  1.00  0.00     0.043 C 
BRANCH  30  32
HETATM   32  C23 UNL     1       1.746  66.718  64.594  1.00  0.00     0.037 C 
BRANCH  32  33
HETATM   33  C24 UNL     1       3.149  67.169  64.208  1.00  0.00     0.031 C 
BRANCH  33  34
HETATM   34  C25 UNL     1       3.736  67.834  65.389  1.00  0.00    -0.024 C 
HETATM   35  C26 UNL     1       4.784  68.640  65.307  1.00  0.00    -0.091 C 
HETATM   36  C27 UNL     1       5.433  68.920  63.983  1.00  0.00     0.042 C 
HETATM   37  C28 UNL     1       5.334  69.271  66.540  1.00  0.00     0.042 C 
ENDBRANCH  33  34
ENDBRANCH  32  33
ENDBRANCH  30  32
ENDBRANCH  28  29
ENDBRANCH  25  28
ENDBRANCH  22  25
ENDBRANCH   2  21
TORSDOF 11
ENDMDL
MODEL 4
REMARK VINA RESULT: -10.545238555      2.011      4.677
REMARK  11 active torsions:
REMARK  status: ('A' for Active; 'I' for Inactive)
REMARK    1  A    between atoms: C10_10  and  C12_12 
REMARK    2  A    between atoms: C13_13  and  C14_14 
REMARK    3  A    between atoms: C14_14  and  O1_15 
REMARK    4  A    between atoms: C15_17  and  C16_18 
REMARK    5  A    between atoms: C16_18  and  C19_21 
REMARK    6  A    between atoms: C19_21  and  C20_22 
REMARK    7  A    between atoms: C21_23  and  C23_25 
REMARK    8  A    between atoms: C23_25  and  C24_26 
REMARK    9  A    between atoms: C24_26  and  C25_27 
REMARK   10  A    between atoms: C30_34  and  C31_35 
REMARK   11  A    between atoms: C31_35  and  C32_36 
ROOT
HETATM    1  C12 UNL     1       0.283  64.150  70.964  1.00  0.00    -0.004 C 
HETATM    2  C13 UNL     1       0.474  65.288  70.478  1.00  0.00     0.034 C 
ENDROOT
BRANCH   1   3
HETATM    3  C10 UNL     1      -0.252  62.820  70.791  1.00  0.00     0.065 C 
HETATM    4  C8  UNL     1      -0.880  62.280  72.061  1.00  0.00     0.003 C 
HETATM    5  C7  UNL     1       0.053  61.954  73.165  1.00  0.00     0.009 C 
HETATM    6  C9  UNL     1      -1.871  61.177  71.767  1.00  0.00     0.011 C 
HETATM    7  C6  UNL     1       0.616  60.546  73.038  1.00  0.00     0.040 C 
HETATM    8  C5  UNL     1       1.849  60.595  72.256  1.00  0.00     0.078 C 
HETATM    9  C4  UNL     1       2.290  59.179  71.851  1.00  0.00     0.043 C 
HETATM   10  O3  UNL     1       1.847  61.412  71.142  1.00  0.00    -0.308 OA
HETATM   11  C30 UNL     1       3.108  61.007  73.070  1.00  0.00     0.049 C 
HETATM   12  C3  UNL     1       3.751  59.360  71.471  1.00  0.00     0.037 C 
HETATM   13  C2  UNL     1       4.120  60.683  72.061  1.00  0.00    -0.082 C 
HETATM   14  C1  UNL     1       5.143  61.419  71.698  1.00  0.00     0.015 C 
HETATM   15  C29 UNL     1       0.907  61.965  70.334  1.00  0.00     0.272 C 
HETATM   16  O2  UNL     1       1.004  61.750  69.081  1.00  0.00    -0.264 OA
HETATM   17  C11 UNL     1      -1.259  62.749  69.660  1.00  0.00     0.031 C 
BRANCH  11  18
HETATM   18  C31 UNL     1       3.147  60.357  74.373  1.00  0.00     0.011 C 
BRANCH  18  19
HETATM   19  C32 UNL     1       2.400  61.040  75.463  1.00  0.00    -0.004 C 
HETATM   20  C33 UNL     1       1.870  60.258  76.591  1.00  0.00     0.005 C 
ENDBRANCH  18  19
ENDBRANCH  11  18
ENDBRANCH   1   3
BRANCH   2  21
HETATM   21  C14 UNL     1       0.210  66.007  69.242  1.00  0.00     0.066 C 
HETATM   22  C15 UNL     1       1.205  66.726  68.698  1.00  0.00     0.043 C 
BRANCH  21  23
HETATM   23  O1  UNL     1      -1.008  65.962  68.655  1.00  0.00    -0.361 OA
ATOM     24  H1  UNL     1      -1.722  66.505  68.966  1.00  0.00     0.217 HD
ENDBRANCH  21  23
BRANCH  22  25
HETATM   25  C16 UNL     1       1.236  67.492  67.522  1.00  0.00    -0.056 C 
HETATM   26  C17 UNL     1       1.605  68.805  67.617  1.00  0.00    -0.024 C 
HETATM   27  C18 UNL     1       1.958  69.384  68.933  1.00  0.00     0.036 C 
BRANCH  25  28
HETATM   28  C19 UNL     1       0.981  67.068  66.137  1.00  0.00     0.065 C 
BRANCH  28  29
HETATM   29  C20 UNL     1       2.072  66.253  65.541  1.00  0.00    -0.020 C 
HETATM   30  C21 UNL     1       3.136  66.745  64.912  1.00  0.00    -0.087 C 
HETATM   31  C22 UNL     1       4.129  65.714  64.386  1.00  0.00     0.043 C 
BRANCH  30  32
HETATM   32  C23 UNL     1       3.477  68.134  64.630  1.00  0.00     0.037 C 
BRANCH  32  33
HETATM   33  C24 UNL     1       4.862  68.514  65.135  1.00  0.00     0.031 C 
BRANCH  33  34
HETATM   34  C25 UNL     1       4.687  69.162  66.450  1.00  0.00    -0.024 C 
HETATM   35  C26 UNL     1       5.696  69.697  67.123  1.00  0.00    -0.091 C 
HETATM   36  C27 UNL     1       7.089  69.667  66.565  1.00  0.00     0.042 C 
HETATM   37  C28 UNL     1       5.452  70.325  68.452  1.00  0.00     0.042 C 
ENDBRANCH  33  34
ENDBRANCH  32  33
ENDBRANCH  30  32
ENDBRANCH  28  29
ENDBRANCH  25  28
ENDBRANCH  22  25
ENDBRANCH   2  21
TORSDOF 11
ENDMDL
MODEL 5
REMARK VINA RESULT: -10.466103731      1.252      1.954
REMARK  11 active torsions:
REMARK  status: ('A' for Active; 'I' for Inactive)
REMARK    1  A    between atoms: C10_10  and  C12_12 
REMARK    2  A    between atoms: C13_13  and  C14_14 
REMARK    3  A    between atoms: C14_14  and  O1_15 
REMARK    4  A    between atoms: C15_17  and  C16_18 
REMARK    5  A    between atoms: C16_18  and  C19_21 
REMARK    6  A    between atoms: C19_21  and  C20_22 
REMARK    7  A    between atoms: C21_23  and  C23_25 
REMARK    8  A    between atoms: C23_25  and  C24_26 
REMARK    9  A    between atoms: C24_26  and  C25_27 
REMARK   10  A    between atoms: C30_34  and  C31_35 
REMARK   11  A    between atoms: C31_35  and  C32_36 
ROOT
HETATM    1  C12 UNL     1       3.438  61.545  68.866  1.00  0.00    -0.004 C 
HETATM    2  C13 UNL     1       3.298  61.967  67.695  1.00  0.00     0.034 C 
ENDROOT
BRANCH   1   3
HETATM    3  C10 UNL     1       3.642  61.854  70.261  1.00  0.00     0.065 C 
HETATM    4  C8  UNL     1       3.204  60.726  71.173  1.00  0.00     0.003 C 
HETATM    5  C7  UNL     1       1.745  60.482  71.257  1.00  0.00     0.009 C 
HETATM    6  C9  UNL     1       3.877  60.808  72.524  1.00  0.00     0.011 C 
HETATM    7  C6  UNL     1       1.077  61.366  72.300  1.00  0.00     0.040 C 
HETATM    8  C5  UNL     1       0.647  62.609  71.666  1.00  0.00     0.078 C 
HETATM    9  C4  UNL     1       0.242  63.646  72.726  1.00  0.00     0.043 C 
HETATM   10  O3  UNL     1       1.525  63.187  70.769  1.00  0.00    -0.308 OA
HETATM   11  C30 UNL     1      -0.708  62.506  70.910  1.00  0.00     0.049 C 
HETATM   12  C3  UNL     1      -0.579  64.654  71.936  1.00  0.00     0.037 C 
HETATM   13  C2  UNL     1      -0.918  63.936  70.670  1.00  0.00    -0.082 C 
HETATM   14  C1  UNL     1      -1.293  64.506  69.550  1.00  0.00     0.015 C 
HETATM   15  C29 UNL     1       2.858  63.120  70.523  1.00  0.00     0.272 C 
HETATM   16  O2  UNL     1       3.512  64.215  70.507  1.00  0.00    -0.264 OA
HETATM   17  C11 UNL     1       5.082  62.218  70.564  1.00  0.00     0.031 C 
BRANCH  11  18
HETATM   18  C31 UNL     1      -1.693  61.745  71.666  1.00  0.00     0.011 C 
BRANCH  18  19
HETATM   19  C32 UNL     1      -2.673  60.968  70.860  1.00  0.00    -0.004 C 
HETATM   20  C33 UNL     1      -2.671  61.083  69.393  1.00  0.00     0.005 C 
ENDBRANCH  18  19
ENDBRANCH  11  18
ENDBRANCH   1   3
BRANCH   2  21
HETATM   21  C14 UNL     1       3.256  63.238  66.989  1.00  0.00     0.066 C 
HETATM   22  C15 UNL     1       3.623  63.262  65.698  1.00  0.00     0.043 C 
BRANCH  21  23
HETATM   23  O1  UNL     1       2.865  64.371  67.616  1.00  0.00    -0.361 OA
ATOM     24  H1  UNL     1       3.409  65.150  67.604  1.00  0.00     0.217 HD
ENDBRANCH  21  23
BRANCH  22  25
HETATM   25  C16 UNL     1       3.663  64.326  64.784  1.00  0.00    -0.056 C 
HETATM   26  C17 UNL     1       4.326  64.138  63.603  1.00  0.00    -0.024 C 
HETATM   27  C18 UNL     1       4.978  62.840  63.316  1.00  0.00     0.036 C 
BRANCH  25  28
HETATM   28  C19 UNL     1       3.026  65.649  64.876  1.00  0.00     0.065 C 
BRANCH  28  29
HETATM   29  C20 UNL     1       3.693  66.702  64.067  1.00  0.00    -0.020 C 
HETATM   30  C21 UNL     1       4.081  67.887  64.529  1.00  0.00    -0.087 C 
HETATM   31  C22 UNL     1       4.751  68.806  63.513  1.00  0.00     0.043 C 
BRANCH  30  32
HETATM   32  C23 UNL     1       3.936  68.446  65.867  1.00  0.00     0.037 C 
BRANCH  32  33
HETATM   33  C24 UNL     1       2.480  68.617  66.280  1.00  0.00     0.031 C 
BRANCH  33  34
HETATM   34  C25 UNL     1       2.353  68.106  67.660  1.00  0.00    -0.024 C 
HETATM   35  C26 UNL     1       1.284  67.445  68.081  1.00  0.00    -0.091 C 
HETATM   36  C27 UNL     1       0.133  67.181  67.154  1.00  0.00     0.042 C 
HETATM   37  C28 UNL     1       1.215  66.966  69.490  1.00  0.00     0.042 C 
ENDBRANCH  33  34
ENDBRANCH  32  33
ENDBRANCH  30  32
ENDBRANCH  28  29
ENDBRANCH  25  28
ENDBRANCH  22  25
ENDBRANCH   2  21
TORSDOF 11
ENDMDL
