MODEL 1
REMARK VINA RESULT: -10.772616665      0.000      0.000
REMARK  12 active torsions:
REMARK  status: ('A' for Active; 'I' for Inactive)
REMARK    1  A    between atoms: C4_4  and  C5_5 
REMARK    2  A    between atoms: C5_5  and  C6_6 
REMARK    3  A    between atoms: C7_7  and  C9_9 
REMARK    4  A    between atoms: C9_9  and  C10_10 
REMARK    5  A    between atoms: C10_10  and  C11_11 
REMARK    6  A    between atoms: C12_12  and  C14_14 
REMARK    7  A    between atoms: C14_14  and  C15_15 
REMARK    8  A    between atoms: C15_15  and  O2_17 
REMARK    9  A    between atoms: O2_17  and  C16_18 
REMARK   10  A    between atoms: C19_21  and  C21_23 
REMARK   11  A    between atoms: C21_23  and  O3_24 
REMARK   12  A    between atoms: C31_35  and  O4_37 
ROOT
HETATM    1  C16 UNL     1       1.577  63.472  70.014  1.00  0.00     0.132 C 
HETATM    2  C17 UNL     1       2.739  62.627  69.663  1.00  0.00     0.033 C 
HETATM    3  C18 UNL     1       3.709  62.258  70.703  1.00  0.00     0.014 C 
HETATM    4  C19 UNL     1       3.615  60.841  71.234  1.00  0.00    -0.023 C 
HETATM    5  C20 UNL     1       3.090  59.860  70.225  1.00  0.00     0.017 C 
HETATM    6  C22 UNL     1       2.970  60.754  72.567  1.00  0.00     0.012 C 
HETATM    7  C23 UNL     1       1.513  60.588  72.645  1.00  0.00     0.009 C 
HETATM    8  C24 UNL     1       0.628  61.645  72.116  1.00  0.00     0.024 C 
HETATM    9  C25 UNL     1       1.015  63.044  72.478  1.00  0.00     0.003 C 
HETATM   10  C26 UNL     1       1.411  63.942  71.392  1.00  0.00     0.038 C 
HETATM   11  C27 UNL     1      -0.083  63.553  73.384  1.00  0.00    -0.041 C 
HETATM   12  C28 UNL     1       0.230  63.284  74.863  1.00  0.00     0.015 C 
HETATM   13  C29 UNL     1      -0.391  64.999  73.268  1.00  0.00     0.015 C 
HETATM   14  C30 UNL     1      -1.314  62.758  73.061  1.00  0.00     0.046 C 
HETATM   15  C31 UNL     1      -0.785  61.431  72.593  1.00  0.00     0.059 C 
HETATM   16  C32 UNL     1      -0.931  60.414  73.673  1.00  0.00     0.046 C 
ENDROOT
BRANCH   1  17
HETATM   17  O2  UNL     1       1.615  64.667  69.196  1.00  0.00    -0.316 OA
BRANCH  17  18
HETATM   18  C15 UNL     1       0.796  65.743  69.396  1.00  0.00     0.263 C 
HETATM   19  O1  UNL     1      -0.430  65.594  69.288  1.00  0.00    -0.265 OA
BRANCH  18  20
HETATM   20  C14 UNL     1       1.334  67.074  69.736  1.00  0.00     0.144 C 
BRANCH  20  21
HETATM   21  C12 UNL     1       1.736  67.811  68.495  1.00  0.00    -0.078 C 
HETATM   22  C11 UNL     1       1.593  67.258  67.299  1.00  0.00    -0.024 C 
HETATM   23  C13 UNL     1       2.304  69.175  68.626  1.00  0.00     0.043 C 
BRANCH  22  24
HETATM   24  C10 UNL     1       1.995  67.978  66.069  1.00  0.00     0.031 C 
BRANCH  24  25
HETATM   25  C9  UNL     1       3.230  67.295  65.507  1.00  0.00     0.037 C 
BRANCH  25  26
HETATM   26  C7  UNL     1       4.279  68.315  65.107  1.00  0.00    -0.087 C 
HETATM   27  C6  UNL     1       4.945  68.917  66.040  1.00  0.00    -0.021 C 
HETATM   28  C8  UNL     1       4.458  68.546  63.656  1.00  0.00     0.043 C 
BRANCH  27  29
HETATM   29  C5  UNL     1       5.997  69.929  66.043  1.00  0.00     0.054 C 
BRANCH  29  30
HETATM   30  C4  UNL     1       6.972  69.871  67.127  1.00  0.00    -0.021 C 
HETATM   31  C2  UNL     1       6.742  70.498  68.274  1.00  0.00    -0.091 C 
HETATM   32  C1  UNL     1       5.481  71.257  68.437  1.00  0.00     0.042 C 
HETATM   33  C3  UNL     1       7.710  70.464  69.401  1.00  0.00     0.042 C 
ENDBRANCH  29  30
ENDBRANCH  27  29
ENDBRANCH  25  26
ENDBRANCH  24  25
ENDBRANCH  22  24
ENDBRANCH  20  21
ENDBRANCH  18  20
ENDBRANCH  17  18
ENDBRANCH   1  17
BRANCH   4  34
HETATM   34  C21 UNL     1       5.081  60.395  71.456  1.00  0.00     0.173 C 
BRANCH  34  35
HETATM   35  O3  UNL     1       5.757  61.411  72.150  1.00  0.00    -0.400 OA
ATOM     36  H3  UNL     1       5.911  61.119  73.041  1.00  0.00     0.209 HD
ENDBRANCH  34  35
ENDBRANCH   4  34
BRANCH  15  37
HETATM   37  O4  UNL     1      -1.648  61.021  71.548  1.00  0.00    -0.390 OA
ATOM     38  H4  UNL     1      -1.196  60.952  70.715  1.00  0.00     0.210 HD
ENDBRANCH  15  37
TORSDOF 12
ENDMDL
MODEL 2
REMARK VINA RESULT: -10.692740019      1.345      2.178
REMARK  12 active torsions:
REMARK  status: ('A' for Active; 'I' for Inactive)
REMARK    1  A    between atoms: C4_4  and  C5_5 
REMARK    2  A    between atoms: C5_5  and  C6_6 
REMARK    3  A    between atoms: C7_7  and  C9_9 
REMARK    4  A    between atoms: C9_9  and  C10_10 
REMARK    5  A    between atoms: C10_10  and  C11_11 
REMARK    6  A    between atoms: C12_12  and  C14_14 
REMARK    7  A    between atoms: C14_14  and  C15_15 
REMARK    8  A    between atoms: C15_15  and  O2_17 
REMARK    9  A    between atoms: O2_17  and  C16_18 
REMARK   10  A    between atoms: C19_21  and  C21_23 
REMARK   11  A    between atoms: C21_23  and  O3_24 
REMARK   12  A    between atoms: C31_35  and  O4_37 
ROOT
HETATM    1  C16 UNL     1       0.612  62.830  70.738  1.00  0.00     0.132 C 
HETATM    2  C17 UNL     1       1.756  62.159  70.081  1.00  0.00     0.033 C 
HETATM    3  C18 UNL     1       3.082  62.199  70.713  1.00  0.00     0.014 C 
HETATM    4  C19 UNL     1       3.529  60.932  71.413  1.00  0.00    -0.023 C 
HETATM    5  C20 UNL     1       2.952  59.683  70.812  1.00  0.00     0.017 C 
HETATM    6  C22 UNL     1       3.421  61.007  72.891  1.00  0.00     0.012 C 
HETATM    7  C23 UNL     1       2.168  60.595  73.537  1.00  0.00     0.009 C 
HETATM    8  C24 UNL     1       0.923  61.338  73.255  1.00  0.00     0.024 C 
HETATM    9  C25 UNL     1       1.051  62.828  73.264  1.00  0.00     0.003 C 
HETATM   10  C26 UNL     1       0.816  63.538  72.005  1.00  0.00     0.038 C 
HETATM   11  C27 UNL     1       0.239  63.304  74.446  1.00  0.00    -0.041 C 
HETATM   12  C28 UNL     1       1.094  63.411  75.718  1.00  0.00     0.015 C 
HETATM   13  C29 UNL     1      -0.439  64.612  74.275  1.00  0.00     0.015 C 
HETATM   14  C30 UNL     1      -0.791  62.246  74.718  1.00  0.00     0.046 C 
HETATM   15  C31 UNL     1      -0.143  60.972  74.256  1.00  0.00     0.059 C 
HETATM   16  C32 UNL     1       0.346  60.193  75.429  1.00  0.00     0.046 C 
ENDROOT
BRANCH   1  17
HETATM   17  O2  UNL     1       0.072  63.815  69.824  1.00  0.00    -0.316 OA
BRANCH  17  18
HETATM   18  C15 UNL     1       0.146  65.162  70.037  1.00  0.00     0.263 C 
HETATM   19  O1  UNL     1      -0.834  65.749  70.519  1.00  0.00    -0.265 OA
BRANCH  18  20
HETATM   20  C14 UNL     1       1.360  65.934  69.709  1.00  0.00     0.144 C 
BRANCH  20  21
HETATM   21  C12 UNL     1       1.018  67.110  68.847  1.00  0.00    -0.078 C 
HETATM   22  C11 UNL     1       0.011  67.054  67.987  1.00  0.00    -0.024 C 
HETATM   23  C13 UNL     1       1.831  68.345  68.967  1.00  0.00     0.043 C 
BRANCH  22  24
HETATM   24  C10 UNL     1      -0.328  68.210  67.126  1.00  0.00     0.031 C 
BRANCH  24  25
HETATM   25  C9  UNL     1      -0.525  67.700  65.709  1.00  0.00     0.037 C 
BRANCH  25  26
HETATM   26  C7  UNL     1       0.705  67.961  64.862  1.00  0.00    -0.087 C 
HETATM   27  C6  UNL     1       1.861  67.997  65.444  1.00  0.00    -0.021 C 
HETATM   28  C8  UNL     1       0.480  68.162  63.413  1.00  0.00     0.043 C 
BRANCH  27  29
HETATM   29  C5  UNL     1       3.226  68.219  64.974  1.00  0.00     0.054 C 
BRANCH  29  30
HETATM   30  C4  UNL     1       4.196  68.696  65.954  1.00  0.00    -0.021 C 
HETATM   31  C2  UNL     1       5.408  69.079  65.571  1.00  0.00    -0.091 C 
HETATM   32  C1  UNL     1       5.760  69.016  64.133  1.00  0.00     0.042 C 
HETATM   33  C3  UNL     1       6.425  69.569  66.538  1.00  0.00     0.042 C 
ENDBRANCH  29  30
ENDBRANCH  27  29
ENDBRANCH  25  26
ENDBRANCH  24  25
ENDBRANCH  22  24
ENDBRANCH  20  21
ENDBRANCH  18  20
ENDBRANCH  17  18
ENDBRANCH   1  17
BRANCH   4  34
HETATM   34  C21 UNL     1       5.045  60.820  71.117  1.00  0.00     0.173 C 
BRANCH  34  35
HETATM   35  O3  UNL     1       5.754  61.351  72.205  1.00  0.00    -0.400 OA
ATOM     36  H3  UNL     1       6.088  62.206  71.960  1.00  0.00     0.209 HD
ENDBRANCH  34  35
ENDBRANCH   4  34
BRANCH  15  37
HETATM   37  O4  UNL     1      -1.180  60.202  73.677  1.00  0.00    -0.390 OA
ATOM     38  H4  UNL     1      -1.402  60.497  72.801  1.00  0.00     0.210 HD
ENDBRANCH  15  37
TORSDOF 12
ENDMDL
MODEL 3
REMARK VINA RESULT: -10.655602513      0.870      2.742
REMARK  12 active torsions:
REMARK  status: ('A' for Active; 'I' for Inactive)
REMARK    1  A    between atoms: C4_4  and  C5_5 
REMARK    2  A    between atoms: C5_5  and  C6_6 
REMARK    3  A    between atoms: C7_7  and  C9_9 
REMARK    4  A    between atoms: C9_9  and  C10_10 
REMARK    5  A    between atoms: C10_10  and  C11_11 
REMARK    6  A    between atoms: C12_12  and  C14_14 
REMARK    7  A    between atoms: C14_14  and  C15_15 
REMARK    8  A    between atoms: C15_15  and  O2_17 
REMARK    9  A    between atoms: O2_17  and  C16_18 
REMARK   10  A    between atoms: C19_21  and  C21_23 
REMARK   11  A    between atoms: C21_23  and  O3_24 
REMARK   12  A    between atoms: C31_35  and  O4_37 
ROOT
HETATM    1  C16 UNL     1       1.366  63.262  70.173  1.00  0.00     0.132 C 
HETATM    2  C17 UNL     1       2.530  62.439  69.778  1.00  0.00     0.033 C 
HETATM    3  C18 UNL     1       3.584  62.152  70.761  1.00  0.00     0.014 C 
HETATM    4  C19 UNL     1       3.578  60.760  71.362  1.00  0.00    -0.023 C 
HETATM    5  C20 UNL     1       3.018  59.715  70.440  1.00  0.00     0.017 C 
HETATM    6  C22 UNL     1       3.033  60.717  72.741  1.00  0.00     0.012 C 
HETATM    7  C23 UNL     1       1.592  60.508  72.932  1.00  0.00     0.009 C 
HETATM    8  C24 UNL     1       0.635  61.509  72.420  1.00  0.00     0.024 C 
HETATM    9  C25 UNL     1       0.996  62.936  72.689  1.00  0.00     0.003 C 
HETATM   10  C26 UNL     1       1.282  63.793  71.537  1.00  0.00     0.038 C 
HETATM   11  C27 UNL     1      -0.052  63.452  73.647  1.00  0.00    -0.041 C 
HETATM   12  C28 UNL     1       0.374  63.266  75.111  1.00  0.00     0.015 C 
HETATM   13  C29 UNL     1      -0.419  64.881  73.488  1.00  0.00     0.015 C 
HETATM   14  C30 UNL     1      -1.274  62.603  73.452  1.00  0.00     0.046 C 
HETATM   15  C31 UNL     1      -0.733  61.273  73.008  1.00  0.00     0.059 C 
HETATM   16  C32 UNL     1      -0.766  60.306  74.142  1.00  0.00     0.046 C 
ENDROOT
BRANCH   1  17
HETATM   17  O2  UNL     1       1.303  64.417  69.301  1.00  0.00    -0.316 OA
BRANCH  17  18
HETATM   18  C15 UNL     1       0.462  65.473  69.509  1.00  0.00     0.263 C 
HETATM   19  O1  UNL     1      -0.757  65.311  69.349  1.00  0.00    -0.265 OA
BRANCH  18  20
HETATM   20  C14 UNL     1       0.967  66.798  69.917  1.00  0.00     0.144 C 
BRANCH  20  21
HETATM   21  C12 UNL     1       1.546  67.524  68.741  1.00  0.00    -0.078 C 
HETATM   22  C11 UNL     1       2.354  68.561  68.912  1.00  0.00    -0.024 C 
HETATM   23  C13 UNL     1       1.195  67.066  67.375  1.00  0.00     0.043 C 
BRANCH  22  24
HETATM   24  C10 UNL     1       2.924  69.287  67.754  1.00  0.00     0.031 C 
BRANCH  24  25
HETATM   25  C9  UNL     1       4.351  69.677  68.100  1.00  0.00     0.037 C 
BRANCH  25  26
HETATM   26  C7  UNL     1       5.275  69.464  66.916  1.00  0.00    -0.087 C 
HETATM   27  C6  UNL     1       4.831  68.798  65.897  1.00  0.00    -0.021 C 
HETATM   28  C8  UNL     1       6.633  70.039  67.025  1.00  0.00     0.043 C 
BRANCH  27  29
HETATM   29  C5  UNL     1       5.411  68.401  64.617  1.00  0.00     0.054 C 
BRANCH  29  30
HETATM   30  C4  UNL     1       4.684  68.786  63.411  1.00  0.00    -0.021 C 
HETATM   31  C2  UNL     1       4.140  67.861  62.629  1.00  0.00    -0.091 C 
HETATM   32  C1  UNL     1       4.282  66.434  62.998  1.00  0.00     0.042 C 
HETATM   33  C3  UNL     1       3.394  68.212  61.393  1.00  0.00     0.042 C 
ENDBRANCH  29  30
ENDBRANCH  27  29
ENDBRANCH  25  26
ENDBRANCH  24  25
ENDBRANCH  22  24
ENDBRANCH  20  21
ENDBRANCH  18  20
ENDBRANCH  17  18
ENDBRANCH   1  17
BRANCH   4  34
HETATM   34  C21 UNL     1       5.072  60.373  71.497  1.00  0.00     0.173 C 
BRANCH  34  35
HETATM   35  O3  UNL     1       5.728  61.373  72.232  1.00  0.00    -0.400 OA
ATOM     36  H3  UNL     1       6.662  61.205  72.204  1.00  0.00     0.209 HD
ENDBRANCH  34  35
ENDBRANCH   4  34
BRANCH  15  37
HETATM   37  O4  UNL     1      -1.652  60.786  72.048  1.00  0.00    -0.390 OA
ATOM     38  H4  UNL     1      -2.348  60.275  72.444  1.00  0.00     0.210 HD
ENDBRANCH  15  37
TORSDOF 12
ENDMDL
MODEL 4
REMARK VINA RESULT: -10.610484280      1.134      1.608
REMARK  12 active torsions:
REMARK  status: ('A' for Active; 'I' for Inactive)
REMARK    1  A    between atoms: C4_4  and  C5_5 
REMARK    2  A    between atoms: C5_5  and  C6_6 
REMARK    3  A    between atoms: C7_7  and  C9_9 
REMARK    4  A    between atoms: C9_9  and  C10_10 
REMARK    5  A    between atoms: C10_10  and  C11_11 
REMARK    6  A    between atoms: C12_12  and  C14_14 
REMARK    7  A    between atoms: C14_14  and  C15_15 
REMARK    8  A    between atoms: C15_15  and  O2_17 
REMARK    9  A    between atoms: O2_17  and  C16_18 
REMARK   10  A    between atoms: C19_21  and  C21_23 
REMARK   11  A    between atoms: C21_23  and  O3_24 
REMARK   12  A    between atoms: C31_35  and  O4_37 
ROOT
HETATM    1  C16 UNL     1       0.598  62.880  70.664  1.00  0.00     0.132 C 
HETATM    2  C17 UNL     1       1.749  62.208  70.020  1.00  0.00     0.033 C 
HETATM    3  C18 UNL     1       3.069  62.254  70.664  1.00  0.00     0.014 C 
HETATM    4  C19 UNL     1       3.512  60.990  71.373  1.00  0.00    -0.023 C 
HETATM    5  C20 UNL     1       2.943  59.737  70.771  1.00  0.00     0.017 C 
HETATM    6  C22 UNL     1       3.391  61.069  72.850  1.00  0.00     0.012 C 
HETATM    7  C23 UNL     1       2.132  60.657  73.485  1.00  0.00     0.009 C 
HETATM    8  C24 UNL     1       0.889  61.396  73.188  1.00  0.00     0.024 C 
HETATM    9  C25 UNL     1       1.013  62.887  73.194  1.00  0.00     0.003 C 
HETATM   10  C26 UNL     1       0.789  63.592  71.930  1.00  0.00     0.038 C 
HETATM   11  C27 UNL     1       0.189  63.365  74.367  1.00  0.00    -0.041 C 
HETATM   12  C28 UNL     1       1.032  63.479  75.646  1.00  0.00     0.015 C 
HETATM   13  C29 UNL     1      -0.489  64.671  74.185  1.00  0.00     0.015 C 
HETATM   14  C30 UNL     1      -0.841  62.306  74.633  1.00  0.00     0.046 C 
HETATM   15  C31 UNL     1      -0.186  61.031  74.181  1.00  0.00     0.059 C 
HETATM   16  C32 UNL     1       0.294  60.258  75.362  1.00  0.00     0.046 C 
ENDROOT
BRANCH   1  17
HETATM   17  O2  UNL     1       0.064  63.860  69.741  1.00  0.00    -0.316 OA
BRANCH  17  18
HETATM   18  C15 UNL     1       0.119  65.208  69.959  1.00  0.00     0.263 C 
HETATM   19  O1  UNL     1      -0.900  65.796  70.348  1.00  0.00    -0.265 OA
BRANCH  18  20
HETATM   20  C14 UNL     1       1.359  65.978  69.741  1.00  0.00     0.144 C 
BRANCH  20  21
HETATM   21  C12 UNL     1       1.133  67.063  68.732  1.00  0.00    -0.078 C 
HETATM   22  C11 UNL     1       0.397  66.845  67.652  1.00  0.00    -0.024 C 
HETATM   23  C13 UNL     1       1.753  68.391  68.960  1.00  0.00     0.043 C 
BRANCH  22  24
HETATM   24  C10 UNL     1       0.175  67.910  66.647  1.00  0.00     0.031 C 
BRANCH  24  25
HETATM   25  C9  UNL     1       0.752  67.437  65.324  1.00  0.00     0.037 C 
BRANCH  25  26
HETATM   26  C7  UNL     1       2.262  67.322  65.400  1.00  0.00    -0.087 C 
HETATM   27  C6  UNL     1       2.948  68.376  65.709  1.00  0.00    -0.021 C 
HETATM   28  C8  UNL     1       2.840  65.992  65.105  1.00  0.00     0.043 C 
BRANCH  27  29
HETATM   29  C5  UNL     1       4.375  68.645  65.871  1.00  0.00     0.054 C 
BRANCH  29  30
HETATM   30  C4  UNL     1       4.776  69.411  67.047  1.00  0.00    -0.021 C 
HETATM   31  C2  UNL     1       6.034  69.808  67.194  1.00  0.00    -0.091 C 
HETATM   32  C1  UNL     1       7.024  69.462  66.147  1.00  0.00     0.042 C 
HETATM   33  C3  UNL     1       6.483  70.588  68.376  1.00  0.00     0.042 C 
ENDBRANCH  29  30
ENDBRANCH  27  29
ENDBRANCH  25  26
ENDBRANCH  24  25
ENDBRANCH  22  24
ENDBRANCH  20  21
ENDBRANCH  18  20
ENDBRANCH  17  18
ENDBRANCH   1  17
BRANCH   4  34
HETATM   34  C21 UNL     1       5.031  60.880  71.091  1.00  0.00     0.173 C 
BRANCH  34  35
HETATM   35  O3  UNL     1       5.730  61.359  72.209  1.00  0.00    -0.400 OA
ATOM     36  H3  UNL     1       6.661  61.268  72.046  1.00  0.00     0.209 HD
ENDBRANCH  34  35
ENDBRANCH   4  34
BRANCH  15  37
HETATM   37  O4  UNL     1      -1.216  60.257  73.595  1.00  0.00    -0.390 OA
ATOM     38  H4  UNL     1      -0.972  59.344  73.502  1.00  0.00     0.210 HD
ENDBRANCH  15  37
TORSDOF 12
ENDMDL
MODEL 5
REMARK VINA RESULT: -10.549528464      1.622      3.108
REMARK  12 active torsions:
REMARK  status: ('A' for Active; 'I' for Inactive)
REMARK    1  A    between atoms: C4_4  and  C5_5 
REMARK    2  A    between atoms: C5_5  and  C6_6 
REMARK    3  A    between atoms: C7_7  and  C9_9 
REMARK    4  A    between atoms: C9_9  and  C10_10 
REMARK    5  A    between atoms: C10_10  and  C11_11 
REMARK    6  A    between atoms: C12_12  and  C14_14 
REMARK    7  A    between atoms: C14_14  and  C15_15 
REMARK    8  A    between atoms: C15_15  and  O2_17 
REMARK    9  A    between atoms: O2_17  and  C16_18 
REMARK   10  A    between atoms: C19_21  and  C21_23 
REMARK   11  A    between atoms: C21_23  and  O3_24 
REMARK   12  A    between atoms: C31_35  and  O4_37 
ROOT
HETATM    1  C16 UNL     1       0.517  62.817  70.673  1.00  0.00     0.132 C 
HETATM    2  C17 UNL     1       1.675  62.159  70.028  1.00  0.00     0.033 C 
HETATM    3  C18 UNL     1       3.001  62.244  70.655  1.00  0.00     0.014 C 
HETATM    4  C19 UNL     1       3.479  61.003  71.381  1.00  0.00    -0.023 C 
HETATM    5  C20 UNL     1       2.931  59.728  70.808  1.00  0.00     0.017 C 
HETATM    6  C22 UNL     1       3.373  61.106  72.858  1.00  0.00     0.012 C 
HETATM    7  C23 UNL     1       2.131  60.679  73.515  1.00  0.00     0.009 C 
HETATM    8  C24 UNL     1       0.868  61.386  73.220  1.00  0.00     0.024 C 
HETATM    9  C25 UNL     1       0.961  62.879  73.197  1.00  0.00     0.003 C 
HETATM   10  C26 UNL     1       0.707  63.556  71.925  1.00  0.00     0.038 C 
HETATM   11  C27 UNL     1       0.140  63.359  74.372  1.00  0.00    -0.041 C 
HETATM   12  C28 UNL     1       0.994  63.514  75.639  1.00  0.00     0.015 C 
HETATM   13  C29 UNL     1      -0.569  64.648  74.175  1.00  0.00     0.015 C 
HETATM   14  C30 UNL     1      -0.864  62.284  74.669  1.00  0.00     0.046 C 
HETATM   15  C31 UNL     1      -0.187  61.015  74.231  1.00  0.00     0.059 C 
HETATM   16  C32 UNL     1       0.323  60.273  75.420  1.00  0.00     0.046 C 
ENDROOT
BRANCH   1  17
HETATM   17  O2  UNL     1      -0.049  63.769  69.740  1.00  0.00    -0.316 OA
BRANCH  17  18
HETATM   18  C15 UNL     1      -0.149  65.107  69.997  1.00  0.00     0.263 C 
HETATM   19  O1  UNL     1      -1.273  65.610  70.136  1.00  0.00    -0.265 OA
BRANCH  18  20
HETATM   20  C14 UNL     1       1.045  65.967  70.111  1.00  0.00     0.144 C 
BRANCH  20  21
HETATM   21  C12 UNL     1       1.032  67.027  69.053  1.00  0.00    -0.078 C 
HETATM   22  C11 UNL     1       1.876  68.048  69.102  1.00  0.00    -0.024 C 
HETATM   23  C13 UNL     1       0.051  66.920  67.946  1.00  0.00     0.043 C 
BRANCH  22  24
HETATM   24  C10 UNL     1       1.864  69.104  68.063  1.00  0.00     0.031 C 
BRANCH  24  25
HETATM   25  C9  UNL     1       3.299  69.361  67.638  1.00  0.00     0.037 C 
BRANCH  25  26
HETATM   26  C7  UNL     1       3.624  68.626  66.351  1.00  0.00    -0.087 C 
HETATM   27  C6  UNL     1       2.692  67.927  65.785  1.00  0.00    -0.021 C 
HETATM   28  C8  UNL     1       5.006  68.765  65.841  1.00  0.00     0.043 C 
BRANCH  27  29
HETATM   29  C5  UNL     1       2.632  67.107  64.579  1.00  0.00     0.054 C 
BRANCH  29  30
HETATM   30  C4  UNL     1       2.511  65.664  64.763  1.00  0.00    -0.021 C 
HETATM   31  C2  UNL     1       3.520  64.859  64.455  1.00  0.00    -0.091 C 
HETATM   32  C1  UNL     1       4.771  65.446  63.922  1.00  0.00     0.042 C 
HETATM   33  C3  UNL     1       3.435  63.385  64.626  1.00  0.00     0.042 C 
ENDBRANCH  29  30
ENDBRANCH  27  29
ENDBRANCH  25  26
ENDBRANCH  24  25
ENDBRANCH  22  24
ENDBRANCH  20  21
ENDBRANCH  18  20
ENDBRANCH  17  18
ENDBRANCH   1  17
BRANCH   4  34
HETATM   34  C21 UNL     1       4.997  60.920  71.083  1.00  0.00     0.173 C 
BRANCH  34  35
HETATM   35  O3  UNL     1       5.699  61.367  72.213  1.00  0.00    -0.400 OA
ATOM     36  H3  UNL     1       6.039  62.235  72.035  1.00  0.00     0.209 HD
ENDBRANCH  34  35
ENDBRANCH   4  34
BRANCH  15  37
HETATM   37  O4  UNL     1      -1.207  60.209  73.671  1.00  0.00    -0.390 OA
ATOM     38  H4  UNL     1      -2.074  60.494  73.931  1.00  0.00     0.210 HD
ENDBRANCH  15  37
TORSDOF 12
ENDMDL
