MODEL 1
REMARK VINA RESULT: -9.349801728      0.000      0.000
REMARK  14 active torsions:
REMARK  status: ('A' for Active; 'I' for Inactive)
REMARK    1  A    between atoms: C2_2  and  O2_4 
REMARK    2  A    between atoms: O2_4  and  C3_5 
REMARK    3  A    between atoms: C11_13  and  O3_14 
REMARK    4  A    between atoms: C13_17  and  C14_18 
REMARK    5  A    between atoms: C14_18  and  O4_19 
REMARK    6  A    between atoms: C15_21  and  C17_23 
REMARK    7  A    between atoms: C17_23  and  C18_24 
REMARK    8  A    between atoms: C18_24  and  C19_25 
REMARK    9  A    between atoms: C20_26  and  C22_28 
REMARK   10  A    between atoms: C22_28  and  C23_29 
REMARK   11  A    between atoms: C23_29  and  C24_30 
REMARK   12  A    between atoms: C25_31  and  C27_33 
REMARK   13  A    between atoms: C27_33  and  C28_34 
REMARK   14  A    between atoms: C28_34  and  C29_35 
ROOT
HETATM    1  C3  UNL     1       0.254  62.427  72.040  1.00  0.00     0.141 C 
HETATM    2  C4  UNL     1       0.603  61.051  72.642  1.00  0.00     0.034 C 
HETATM    3  C5  UNL     1       2.061  60.854  72.668  1.00  0.00     0.017 C 
HETATM    4  C6  UNL     1       2.545  60.821  71.230  1.00  0.00    -0.011 C 
HETATM    5  C7  UNL     1       2.030  59.521  70.623  1.00  0.00     0.021 C 
HETATM    6  C8  UNL     1       4.012  60.575  71.369  1.00  0.00    -0.076 C 
HETATM    7  C9  UNL     1       4.492  59.182  71.733  1.00  0.00     0.044 C 
HETATM    8  C10 UNL     1       4.897  61.488  71.202  1.00  0.00     0.007 C 
HETATM    9  C11 UNL     1       4.591  62.862  70.859  1.00  0.00     0.142 C 
HETATM   10  C12 UNL     1       3.128  63.187  70.902  1.00  0.00     0.049 C 
HETATM   11  C13 UNL     1       2.219  62.051  70.492  1.00  0.00     0.004 C 
HETATM   12  C15 UNL     1       0.797  62.598  70.670  1.00  0.00    -0.006 C 
HETATM   13  C16 UNL     1      -0.144  61.931  69.691  1.00  0.00     0.019 C 
ENDROOT
BRANCH  12  14
HETATM   14  C17 UNL     1       0.764  64.073  70.410  1.00  0.00     0.016 C 
BRANCH  14  15
HETATM   15  C18 UNL     1      -0.521  64.769  70.189  1.00  0.00     0.028 C 
BRANCH  15  16
HETATM   16  C19 UNL     1      -0.682  65.683  69.051  1.00  0.00    -0.024 C 
HETATM   17  C20 UNL     1       0.158  66.650  68.749  1.00  0.00    -0.087 C 
HETATM   18  C21 UNL     1       1.387  66.952  69.517  1.00  0.00     0.043 C 
BRANCH  17  19
HETATM   19  C22 UNL     1      -0.087  67.556  67.555  1.00  0.00     0.037 C 
BRANCH  19  20
HETATM   20  C23 UNL     1       0.563  67.064  66.341  1.00  0.00     0.031 C 
BRANCH  20  21
HETATM   21  C24 UNL     1       1.895  67.624  66.088  1.00  0.00    -0.024 C 
HETATM   22  C25 UNL     1       2.482  68.093  65.027  1.00  0.00    -0.087 C 
HETATM   23  C26 UNL     1       1.943  68.210  63.651  1.00  0.00     0.043 C 
BRANCH  22  24
HETATM   24  C27 UNL     1       3.921  68.587  65.224  1.00  0.00     0.037 C 
BRANCH  24  25
HETATM   25  C28 UNL     1       4.138  68.937  66.681  1.00  0.00     0.031 C 
BRANCH  25  26
HETATM   26  C29 UNL     1       5.483  69.545  66.890  1.00  0.00    -0.024 C 
HETATM   27  C30 UNL     1       5.780  70.230  67.986  1.00  0.00    -0.091 C 
HETATM   28  C31 UNL     1       7.107  70.832  68.196  1.00  0.00     0.042 C 
HETATM   29  C32 UNL     1       4.727  70.385  69.027  1.00  0.00     0.042 C 
ENDBRANCH  25  26
ENDBRANCH  24  25
ENDBRANCH  22  24
ENDBRANCH  20  21
ENDBRANCH  19  20
ENDBRANCH  17  19
ENDBRANCH  15  16
ENDBRANCH  14  15
ENDBRANCH  12  14
BRANCH   1  30
HETATM   30  O2  UNL     1       0.790  63.318  73.021  1.00  0.00    -0.316 OA
BRANCH  30  31
HETATM   31  C2  UNL     1       0.029  63.795  74.053  1.00  0.00     0.255 C 
HETATM   32  C1  UNL     1      -0.897  64.923  73.798  1.00  0.00     0.126 C 
HETATM   33  O1  UNL     1       0.074  63.325  75.215  1.00  0.00    -0.266 OA
ENDBRANCH  30  31
ENDBRANCH   1  30
BRANCH  11  34
HETATM   34  C14 UNL     1       2.529  61.793  69.042  1.00  0.00     0.175 C 
BRANCH  34  35
HETATM   35  O4  UNL     1       2.851  62.884  68.270  1.00  0.00    -0.400 OA
ATOM     36  H4  UNL     1       2.150  63.272  67.760  1.00  0.00     0.209 HD
ENDBRANCH  34  35
ENDBRANCH  11  34
BRANCH   9  37
HETATM   37  O3  UNL     1       5.229  63.213  69.681  1.00  0.00    -0.392 OA
ATOM     38  H3  UNL     1       4.667  63.774  69.159  1.00  0.00     0.210 HD
ENDBRANCH   9  37
TORSDOF 14
ENDMDL
MODEL 2
REMARK VINA RESULT: -9.243939313      2.319      4.481
REMARK  14 active torsions:
REMARK  status: ('A' for Active; 'I' for Inactive)
REMARK    1  A    between atoms: C2_2  and  O2_4 
REMARK    2  A    between atoms: O2_4  and  C3_5 
REMARK    3  A    between atoms: C11_13  and  O3_14 
REMARK    4  A    between atoms: C13_17  and  C14_18 
REMARK    5  A    between atoms: C14_18  and  O4_19 
REMARK    6  A    between atoms: C15_21  and  C17_23 
REMARK    7  A    between atoms: C17_23  and  C18_24 
REMARK    8  A    between atoms: C18_24  and  C19_25 
REMARK    9  A    between atoms: C20_26  and  C22_28 
REMARK   10  A    between atoms: C22_28  and  C23_29 
REMARK   11  A    between atoms: C23_29  and  C24_30 
REMARK   12  A    between atoms: C25_31  and  C27_33 
REMARK   13  A    between atoms: C27_33  and  C28_34 
REMARK   14  A    between atoms: C28_34  and  C29_35 
ROOT
HETATM    1  C3  UNL     1       3.132  60.916  70.886  1.00  0.00     0.141 C 
HETATM    2  C4  UNL     1       2.880  60.740  72.396  1.00  0.00     0.034 C 
HETATM    3  C5  UNL     1       1.435  60.655  72.671  1.00  0.00     0.017 C 
HETATM    4  C6  UNL     1       0.816  61.987  72.291  1.00  0.00    -0.011 C 
HETATM    5  C7  UNL     1       1.305  63.006  73.313  1.00  0.00     0.021 C 
HETATM    6  C8  UNL     1      -0.623  61.808  72.647  1.00  0.00    -0.076 C 
HETATM    7  C9  UNL     1      -1.029  61.853  74.108  1.00  0.00     0.044 C 
HETATM    8  C10 UNL     1      -1.544  61.611  71.776  1.00  0.00     0.007 C 
HETATM    9  C11 UNL     1      -1.309  61.538  70.348  1.00  0.00     0.142 C 
HETATM   10  C12 UNL     1       0.143  61.520  69.973  1.00  0.00     0.049 C 
HETATM   11  C13 UNL     1       1.038  62.335  70.879  1.00  0.00     0.004 C 
HETATM   12  C15 UNL     1       2.455  62.116  70.335  1.00  0.00    -0.006 C 
HETATM   13  C16 UNL     1       3.315  63.328  70.619  1.00  0.00     0.019 C 
ENDROOT
BRANCH  12  14
HETATM   14  C17 UNL     1       2.424  61.910  68.851  1.00  0.00     0.016 C 
BRANCH  14  15
HETATM   15  C18 UNL     1       3.384  62.614  67.974  1.00  0.00     0.028 C 
BRANCH  15  16
HETATM   16  C19 UNL     1       2.965  63.804  67.223  1.00  0.00    -0.024 C 
HETATM   17  C20 UNL     1       3.187  63.989  65.939  1.00  0.00    -0.087 C 
HETATM   18  C21 UNL     1       3.893  63.019  65.070  1.00  0.00     0.043 C 
BRANCH  17  19
HETATM   19  C22 UNL     1       2.725  65.255  65.239  1.00  0.00     0.037 C 
BRANCH  19  20
HETATM   20  C23 UNL     1       3.625  65.651  64.156  1.00  0.00     0.031 C 
BRANCH  20  21
HETATM   21  C24 UNL     1       4.397  66.871  64.415  1.00  0.00    -0.024 C 
HETATM   22  C25 UNL     1       4.568  67.979  63.755  1.00  0.00    -0.087 C 
HETATM   23  C26 UNL     1       3.995  68.370  62.445  1.00  0.00     0.043 C 
BRANCH  22  24
HETATM   24  C27 UNL     1       5.485  69.014  64.417  1.00  0.00     0.037 C 
BRANCH  24  25
HETATM   25  C28 UNL     1       5.235  69.026  65.911  1.00  0.00     0.031 C 
BRANCH  25  26
HETATM   26  C29 UNL     1       6.367  69.669  66.637  1.00  0.00    -0.024 C 
HETATM   27  C30 UNL     1       6.210  70.220  67.833  1.00  0.00    -0.091 C 
HETATM   28  C31 UNL     1       7.325  70.856  68.554  1.00  0.00     0.042 C 
HETATM   29  C32 UNL     1       4.857  70.186  68.452  1.00  0.00     0.042 C 
ENDBRANCH  25  26
ENDBRANCH  24  25
ENDBRANCH  22  24
ENDBRANCH  20  21
ENDBRANCH  19  20
ENDBRANCH  17  19
ENDBRANCH  15  16
ENDBRANCH  14  15
ENDBRANCH  12  14
BRANCH   1  30
HETATM   30  O2  UNL     1       2.671  59.667  70.366  1.00  0.00    -0.316 OA
BRANCH  30  31
HETATM   31  C2  UNL     1       3.537  58.711  69.912  1.00  0.00     0.255 C 
HETATM   32  C1  UNL     1       3.626  57.423  70.640  1.00  0.00     0.126 C 
HETATM   33  O1  UNL     1       4.268  58.866  68.905  1.00  0.00    -0.266 OA
ENDBRANCH  30  31
ENDBRANCH   1  30
BRANCH  11  34
HETATM   34  C14 UNL     1       0.596  63.762  70.699  1.00  0.00     0.175 C 
BRANCH  34  35
HETATM   35  O4  UNL     1       0.092  64.108  69.468  1.00  0.00    -0.400 OA
ATOM     36  H4  UNL     1      -0.577  64.782  69.451  1.00  0.00     0.209 HD
ENDBRANCH  34  35
ENDBRANCH  11  34
BRANCH   9  37
HETATM   37  O3  UNL     1      -2.066  62.493  69.691  1.00  0.00    -0.392 OA
ATOM     38  H3  UNL     1      -2.213  62.230  68.790  1.00  0.00     0.210 HD
ENDBRANCH   9  37
TORSDOF 14
ENDMDL
MODEL 3
REMARK VINA RESULT: -9.049733685      1.008      2.827
REMARK  14 active torsions:
REMARK  status: ('A' for Active; 'I' for Inactive)
REMARK    1  A    between atoms: C2_2  and  O2_4 
REMARK    2  A    between atoms: O2_4  and  C3_5 
REMARK    3  A    between atoms: C11_13  and  O3_14 
REMARK    4  A    between atoms: C13_17  and  C14_18 
REMARK    5  A    between atoms: C14_18  and  O4_19 
REMARK    6  A    between atoms: C15_21  and  C17_23 
REMARK    7  A    between atoms: C17_23  and  C18_24 
REMARK    8  A    between atoms: C18_24  and  C19_25 
REMARK    9  A    between atoms: C20_26  and  C22_28 
REMARK   10  A    between atoms: C22_28  and  C23_29 
REMARK   11  A    between atoms: C23_29  and  C24_30 
REMARK   12  A    between atoms: C25_31  and  C27_33 
REMARK   13  A    between atoms: C27_33  and  C28_34 
REMARK   14  A    between atoms: C28_34  and  C29_35 
ROOT
HETATM    1  C3  UNL     1       0.369  62.459  72.223  1.00  0.00     0.141 C 
HETATM    2  C4  UNL     1       0.618  60.991  72.622  1.00  0.00     0.034 C 
HETATM    3  C5  UNL     1       2.059  60.687  72.592  1.00  0.00     0.017 C 
HETATM    4  C6  UNL     1       2.526  60.820  71.154  1.00  0.00    -0.011 C 
HETATM    5  C7  UNL     1       1.909  59.659  70.383  1.00  0.00     0.021 C 
HETATM    6  C8  UNL     1       3.971  60.450  71.230  1.00  0.00    -0.076 C 
HETATM    7  C9  UNL     1       4.349  58.989  71.388  1.00  0.00     0.044 C 
HETATM    8  C10 UNL     1       4.920  61.310  71.174  1.00  0.00     0.007 C 
HETATM    9  C11 UNL     1       4.716  62.738  71.030  1.00  0.00     0.142 C 
HETATM   10  C12 UNL     1       3.282  63.159  71.146  1.00  0.00     0.049 C 
HETATM   11  C13 UNL     1       2.286  62.161  70.600  1.00  0.00     0.004 C 
HETATM   12  C15 UNL     1       0.911  62.780  70.880  1.00  0.00    -0.006 C 
HETATM   13  C16 UNL     1      -0.086  62.327  69.836  1.00  0.00     0.019 C 
ENDROOT
BRANCH  12  14
HETATM   14  C17 UNL     1       0.986  64.276  70.827  1.00  0.00     0.016 C 
BRANCH  14  15
HETATM   15  C18 UNL     1       0.197  65.034  69.834  1.00  0.00     0.028 C 
BRANCH  15  16
HETATM   16  C19 UNL     1       0.692  66.318  69.318  1.00  0.00    -0.024 C 
HETATM   17  C20 UNL     1       0.091  67.025  68.386  1.00  0.00    -0.087 C 
HETATM   18  C21 UNL     1      -1.172  66.625  67.724  1.00  0.00     0.043 C 
BRANCH  17  19
HETATM   19  C22 UNL     1       0.674  68.342  67.905  1.00  0.00     0.037 C 
BRANCH  19  20
HETATM   20  C23 UNL     1       2.134  68.307  67.824  1.00  0.00     0.031 C 
BRANCH  20  21
HETATM   21  C24 UNL     1       2.673  68.270  66.460  1.00  0.00    -0.024 C 
HETATM   22  C25 UNL     1       3.815  68.610  65.940  1.00  0.00    -0.087 C 
HETATM   23  C26 UNL     1       5.004  69.181  66.617  1.00  0.00     0.043 C 
BRANCH  22  24
HETATM   24  C27 UNL     1       3.949  68.396  64.427  1.00  0.00     0.037 C 
BRANCH  24  25
HETATM   25  C28 UNL     1       2.738  67.643  63.916  1.00  0.00     0.031 C 
BRANCH  25  26
HETATM   26  C29 UNL     1       2.087  68.377  62.794  1.00  0.00    -0.024 C 
HETATM   27  C30 UNL     1       0.790  68.654  62.796  1.00  0.00    -0.091 C 
HETATM   28  C31 UNL     1       0.143  69.378  61.690  1.00  0.00     0.042 C 
HETATM   29  C32 UNL     1      -0.023  68.211  63.963  1.00  0.00     0.042 C 
ENDBRANCH  25  26
ENDBRANCH  24  25
ENDBRANCH  22  24
ENDBRANCH  20  21
ENDBRANCH  19  20
ENDBRANCH  17  19
ENDBRANCH  15  16
ENDBRANCH  14  15
ENDBRANCH  12  14
BRANCH   1  30
HETATM   30  O2  UNL     1       0.978  63.164  73.307  1.00  0.00    -0.316 OA
BRANCH  30  31
HETATM   31  C2  UNL     1       0.240  63.680  74.337  1.00  0.00     0.255 C 
HETATM   32  C1  UNL     1      -0.725  64.767  74.049  1.00  0.00     0.126 C 
HETATM   33  O1  UNL     1       0.337  63.281  75.521  1.00  0.00    -0.266 OA
ENDBRANCH  30  31
ENDBRANCH   1  30
BRANCH  11  34
HETATM   34  C14 UNL     1       2.563  62.086  69.122  1.00  0.00     0.175 C 
BRANCH  34  35
HETATM   35  O4  UNL     1       2.883  63.263  68.489  1.00  0.00    -0.400 OA
ATOM     36  H4  UNL     1       3.664  63.262  67.948  1.00  0.00     0.209 HD
ENDBRANCH  34  35
ENDBRANCH  11  34
BRANCH   9  37
HETATM   37  O3  UNL     1       5.367  63.202  69.900  1.00  0.00    -0.392 OA
ATOM     38  H3  UNL     1       5.062  64.075  69.682  1.00  0.00     0.210 HD
ENDBRANCH   9  37
TORSDOF 14
ENDMDL
MODEL 4
REMARK VINA RESULT: -9.022834471      1.472      2.715
REMARK  14 active torsions:
REMARK  status: ('A' for Active; 'I' for Inactive)
REMARK    1  A    between atoms: C2_2  and  O2_4 
REMARK    2  A    between atoms: O2_4  and  C3_5 
REMARK    3  A    between atoms: C11_13  and  O3_14 
REMARK    4  A    between atoms: C13_17  and  C14_18 
REMARK    5  A    between atoms: C14_18  and  O4_19 
REMARK    6  A    between atoms: C15_21  and  C17_23 
REMARK    7  A    between atoms: C17_23  and  C18_24 
REMARK    8  A    between atoms: C18_24  and  C19_25 
REMARK    9  A    between atoms: C20_26  and  C22_28 
REMARK   10  A    between atoms: C22_28  and  C23_29 
REMARK   11  A    between atoms: C23_29  and  C24_30 
REMARK   12  A    between atoms: C25_31  and  C27_33 
REMARK   13  A    between atoms: C27_33  and  C28_34 
REMARK   14  A    between atoms: C28_34  and  C29_35 
ROOT
HETATM    1  C3  UNL     1       0.370  62.477  72.226  1.00  0.00     0.141 C 
HETATM    2  C4  UNL     1       0.613  61.004  72.607  1.00  0.00     0.034 C 
HETATM    3  C5  UNL     1       2.052  60.692  72.571  1.00  0.00     0.017 C 
HETATM    4  C6  UNL     1       2.517  60.840  71.134  1.00  0.00    -0.011 C 
HETATM    5  C7  UNL     1       1.893  59.691  70.351  1.00  0.00     0.021 C 
HETATM    6  C8  UNL     1       3.961  60.462  71.203  1.00  0.00    -0.076 C 
HETATM    7  C9  UNL     1       4.331  58.998  71.343  1.00  0.00     0.044 C 
HETATM    8  C10 UNL     1       4.914  61.318  71.155  1.00  0.00     0.007 C 
HETATM    9  C11 UNL     1       4.717  62.748  71.028  1.00  0.00     0.142 C 
HETATM   10  C12 UNL     1       3.285  63.175  71.151  1.00  0.00     0.049 C 
HETATM   11  C13 UNL     1       2.283  62.188  70.596  1.00  0.00     0.004 C 
HETATM   12  C15 UNL     1       0.912  62.811  70.885  1.00  0.00    -0.006 C 
HETATM   13  C16 UNL     1      -0.090  62.375  69.838  1.00  0.00     0.019 C 
ENDROOT
BRANCH  12  14
HETATM   14  C17 UNL     1       0.995  64.307  70.850  1.00  0.00     0.016 C 
BRANCH  14  15
HETATM   15  C18 UNL     1       0.202  65.081  69.871  1.00  0.00     0.028 C 
BRANCH  15  16
HETATM   16  C19 UNL     1       0.726  66.338  69.322  1.00  0.00    -0.024 C 
HETATM   17  C20 UNL     1       0.141  67.034  68.371  1.00  0.00    -0.087 C 
HETATM   18  C21 UNL     1      -1.131  66.647  67.720  1.00  0.00     0.043 C 
BRANCH  17  19
HETATM   19  C22 UNL     1       0.755  68.324  67.855  1.00  0.00     0.037 C 
BRANCH  19  20
HETATM   20  C23 UNL     1       2.204  68.219  67.679  1.00  0.00     0.031 C 
BRANCH  20  21
HETATM   21  C24 UNL     1       2.659  68.277  66.286  1.00  0.00    -0.024 C 
HETATM   22  C25 UNL     1       3.792  68.586  65.727  1.00  0.00    -0.087 C 
HETATM   23  C26 UNL     1       5.056  69.005  66.377  1.00  0.00     0.043 C 
BRANCH  22  24
HETATM   24  C27 UNL     1       3.823  68.509  64.196  1.00  0.00     0.037 C 
BRANCH  24  25
HETATM   25  C28 UNL     1       3.064  67.280  63.738  1.00  0.00     0.031 C 
BRANCH  25  26
HETATM   26  C29 UNL     1       4.000  66.184  63.361  1.00  0.00    -0.024 C 
HETATM   27  C30 UNL     1       3.960  64.995  63.947  1.00  0.00    -0.091 C 
HETATM   28  C31 UNL     1       4.883  63.909  63.579  1.00  0.00     0.042 C 
HETATM   29  C32 UNL     1       2.942  64.768  65.010  1.00  0.00     0.042 C 
ENDBRANCH  25  26
ENDBRANCH  24  25
ENDBRANCH  22  24
ENDBRANCH  20  21
ENDBRANCH  19  20
ENDBRANCH  17  19
ENDBRANCH  15  16
ENDBRANCH  14  15
ENDBRANCH  12  14
BRANCH   1  30
HETATM   30  O2  UNL     1       0.985  63.166  73.317  1.00  0.00    -0.316 OA
BRANCH  30  31
HETATM   31  C2  UNL     1       0.265  63.585  74.402  1.00  0.00     0.255 C 
HETATM   32  C1  UNL     1       0.984  63.902  75.658  1.00  0.00     0.126 C 
HETATM   33  O1  UNL     1      -0.982  63.716  74.392  1.00  0.00    -0.266 OA
ENDBRANCH  30  31
ENDBRANCH   1  30
BRANCH  11  34
HETATM   34  C14 UNL     1       2.557  62.129  69.117  1.00  0.00     0.175 C 
BRANCH  34  35
HETATM   35  O4  UNL     1       2.880  63.312  68.496  1.00  0.00    -0.400 OA
ATOM     36  H4  UNL     1       2.822  63.330  67.548  1.00  0.00     0.209 HD
ENDBRANCH  34  35
ENDBRANCH  11  34
BRANCH   9  37
HETATM   37  O3  UNL     1       5.368  63.222  69.902  1.00  0.00    -0.392 OA
ATOM     38  H3  UNL     1       6.225  63.558  70.137  1.00  0.00     0.210 HD
ENDBRANCH   9  37
TORSDOF 14
ENDMDL
MODEL 5
REMARK VINA RESULT: -8.938999573      0.765      1.066
REMARK  14 active torsions:
REMARK  status: ('A' for Active; 'I' for Inactive)
REMARK    1  A    between atoms: C2_2  and  O2_4 
REMARK    2  A    between atoms: O2_4  and  C3_5 
REMARK    3  A    between atoms: C11_13  and  O3_14 
REMARK    4  A    between atoms: C13_17  and  C14_18 
REMARK    5  A    between atoms: C14_18  and  O4_19 
REMARK    6  A    between atoms: C15_21  and  C17_23 
REMARK    7  A    between atoms: C17_23  and  C18_24 
REMARK    8  A    between atoms: C18_24  and  C19_25 
REMARK    9  A    between atoms: C20_26  and  C22_28 
REMARK   10  A    between atoms: C22_28  and  C23_29 
REMARK   11  A    between atoms: C23_29  and  C24_30 
REMARK   12  A    between atoms: C25_31  and  C27_33 
REMARK   13  A    between atoms: C27_33  and  C28_34 
REMARK   14  A    between atoms: C28_34  and  C29_35 
ROOT
HETATM    1  C3  UNL     1       0.248  62.436  72.087  1.00  0.00     0.141 C 
HETATM    2  C4  UNL     1       0.625  61.073  72.700  1.00  0.00     0.034 C 
HETATM    3  C5  UNL     1       2.087  60.894  72.697  1.00  0.00     0.017 C 
HETATM    4  C6  UNL     1       2.540  60.847  71.250  1.00  0.00    -0.011 C 
HETATM    5  C7  UNL     1       2.027  59.533  70.672  1.00  0.00     0.021 C 
HETATM    6  C8  UNL     1       4.012  60.620  71.361  1.00  0.00    -0.076 C 
HETATM    7  C9  UNL     1       4.517  59.238  71.733  1.00  0.00     0.044 C 
HETATM    8  C10 UNL     1       4.882  61.540  71.162  1.00  0.00     0.007 C 
HETATM    9  C11 UNL     1       4.553  62.907  70.807  1.00  0.00     0.142 C 
HETATM   10  C12 UNL     1       3.087  63.214  70.877  1.00  0.00     0.049 C 
HETATM   11  C13 UNL     1       2.183  62.062  70.502  1.00  0.00     0.004 C 
HETATM   12  C15 UNL     1       0.759  62.595  70.704  1.00  0.00    -0.006 C 
HETATM   13  C16 UNL     1      -0.195  61.904  69.754  1.00  0.00     0.019 C 
ENDROOT
BRANCH  12  14
HETATM   14  C17 UNL     1       0.703  64.066  70.424  1.00  0.00     0.016 C 
BRANCH  14  15
HETATM   15  C18 UNL     1      -0.597  64.762  70.316  1.00  0.00     0.028 C 
BRANCH  15  16
HETATM   16  C19 UNL     1      -0.827  65.739  69.244  1.00  0.00    -0.024 C 
HETATM   17  C20 UNL     1       0.064  66.616  68.834  1.00  0.00    -0.087 C 
HETATM   18  C21 UNL     1       1.427  66.741  69.398  1.00  0.00     0.043 C 
BRANCH  17  19
HETATM   19  C22 UNL     1      -0.259  67.597  67.721  1.00  0.00     0.037 C 
BRANCH  19  20
HETATM   20  C23 UNL     1      -0.268  66.961  66.404  1.00  0.00     0.031 C 
BRANCH  20  21
HETATM   21  C24 UNL     1       0.933  67.201  65.597  1.00  0.00    -0.024 C 
HETATM   22  C25 UNL     1       1.139  67.772  64.447  1.00  0.00    -0.087 C 
HETATM   23  C26 UNL     1       0.149  68.395  63.537  1.00  0.00     0.043 C 
BRANCH  22  24
HETATM   24  C27 UNL     1       2.595  67.802  63.969  1.00  0.00     0.037 C 
BRANCH  24  25
HETATM   25  C28 UNL     1       3.493  67.241  65.053  1.00  0.00     0.031 C 
BRANCH  25  26
HETATM   26  C29 UNL     1       4.725  68.065  65.205  1.00  0.00    -0.024 C 
HETATM   27  C30 UNL     1       4.873  68.930  66.199  1.00  0.00    -0.091 C 
HETATM   28  C31 UNL     1       6.088  69.745  66.353  1.00  0.00     0.042 C 
HETATM   29  C32 UNL     1       3.764  69.067  67.183  1.00  0.00     0.042 C 
ENDBRANCH  25  26
ENDBRANCH  24  25
ENDBRANCH  22  24
ENDBRANCH  20  21
ENDBRANCH  19  20
ENDBRANCH  17  19
ENDBRANCH  15  16
ENDBRANCH  14  15
ENDBRANCH  12  14
BRANCH   1  30
HETATM   30  O2  UNL     1       0.793  63.347  73.044  1.00  0.00    -0.316 OA
BRANCH  30  31
HETATM   31  C2  UNL     1       0.073  63.771  74.128  1.00  0.00     0.255 C 
HETATM   32  C1  UNL     1      -1.031  64.737  73.919  1.00  0.00     0.126 C 
HETATM   33  O1  UNL     1       0.300  63.383  75.298  1.00  0.00    -0.266 OA
ENDBRANCH  30  31
ENDBRANCH   1  30
BRANCH  11  34
HETATM   34  C14 UNL     1       2.465  61.788  69.049  1.00  0.00     0.175 C 
BRANCH  34  35
HETATM   35  O4  UNL     1       2.786  62.869  68.263  1.00  0.00    -0.400 OA
ATOM     36  H4  UNL     1       3.287  62.693  67.474  1.00  0.00     0.209 HD
ENDBRANCH  34  35
ENDBRANCH  11  34
BRANCH   9  37
HETATM   37  O3  UNL     1       5.161  63.248  69.611  1.00  0.00    -0.392 OA
ATOM     38  H3  UNL     1       4.519  63.601  69.007  1.00  0.00     0.210 HD
ENDBRANCH   9  37
TORSDOF 14
ENDMDL
