MODEL 1
REMARK VINA RESULT: -6.842166950      0.000      0.000
REMARK  9 active torsions:
REMARK  status: ('A' for Active; 'I' for Inactive)
REMARK    1  A    between atoms: C2_2  and  C3_3 
REMARK    2  A    between atoms: C3_3  and  C4_4 
REMARK    3  A    between atoms: C4_4  and  C5_5 
REMARK    4  A    between atoms: C5_5  and  N1_6 
REMARK    5  A    between atoms: C7_11  and  C8_12 
REMARK    6  A    between atoms: C7_11  and  C9_15 
REMARK    7  A    between atoms: C8_12  and  O1_13 
REMARK    8  A    between atoms: C9_15  and  S1_17 
REMARK    9  A    between atoms: C11_25  and  O4_26 
ROOT
HETATM    1  C5  UNL     1      49.612  27.388  13.320  1.00  0.00     0.175 C 
HETATM    2  C6  UNL     1      49.971  27.023  11.922  1.00  0.00     0.060 C 
HETATM    3  C7  UNL     1      49.406  27.931  10.870  1.00  0.00     0.054 C 
HETATM    4  C10 UNL     1      47.934  28.255  11.132  1.00  0.00     0.251 C 
HETATM    5  N2  UNL     1      47.463  27.639  12.352  1.00  0.00    -0.046 N 
ATOM      6  H21 UNL     1      47.425  26.622  12.282  1.00  0.00     0.280 HD
ATOM      7  H22 UNL     1      46.470  27.810  12.513  1.00  0.00     0.280 HD
HETATM    8  C11 UNL     1      48.282  28.080  13.460  1.00  0.00     0.354 C 
ENDROOT
BRANCH   3   9
HETATM    9  C8  UNL     1      50.186  29.225  10.917  1.00  0.00     0.179 C 
BRANCH   9  10
HETATM   10  O1  UNL     1      49.348  30.337  11.080  1.00  0.00    -0.400 OA
ATOM     11  H1  UNL     1      49.737  31.129  10.729  1.00  0.00     0.209 HD
ENDBRANCH   9  10
ENDBRANCH   3   9
BRANCH   3  12
HETATM   12  C9  UNL     1      49.462  27.253   9.546  1.00  0.00     0.335 C 
HETATM   13  F1  UNL     1      50.597  26.468   9.433  1.00  0.00    -0.229 F 
BRANCH  12  14
HETATM   14  S1  UNL     1      49.382  28.291   8.144  1.00  0.00     0.333 S 
HETATM   15  O2  UNL     1      48.538  29.494   8.325  1.00  0.00    -0.191 OA
HETATM   16  O3  UNL     1      49.046  27.534   6.868  1.00  0.00    -0.191 OA
HETATM   17  F2  UNL     1      50.961  28.862   7.872  1.00  0.00    -0.102 F 
ENDBRANCH  12  14
ENDBRANCH   3  12
BRANCH   1  18
HETATM   18  C4  UNL     1      49.481  26.084  14.112  1.00  0.00     0.043 C 
BRANCH  18  19
HETATM   19  C3  UNL     1      50.792  25.341  14.166  1.00  0.00     0.002 C 
BRANCH  19  20
HETATM   20  C2  UNL     1      50.503  23.974  14.750  1.00  0.00    -0.004 C 
HETATM   21  C1  UNL     1      49.118  23.892  15.336  1.00  0.00     0.005 C 
ENDBRANCH  19  20
ENDBRANCH  18  19
ENDBRANCH   1  18
BRANCH   1  22
HETATM   22  N1  UNL     1      50.655  28.153  13.986  1.00  0.00    -0.066 N 
ATOM     23  H13 UNL     1      50.297  28.825  14.665  1.00  0.00     0.275 HD
ATOM     24  H12 UNL     1      51.210  27.601  14.641  1.00  0.00     0.275 HD
ATOM     25  H11 UNL     1      51.205  28.579  13.242  1.00  0.00     0.275 HD
ENDBRANCH   1  22
BRANCH   8  26
HETATM   26  O4  UNL     1      47.639  27.674  14.644  1.00  0.00    -0.368 OA
ATOM     27  H4  UNL     1      46.752  28.011  14.672  1.00  0.00     0.212 HD
ENDBRANCH   8  26
TORSDOF 9
ENDMDL
MODEL 2
REMARK VINA RESULT: -6.816140682      0.994      1.228
REMARK  9 active torsions:
REMARK  status: ('A' for Active; 'I' for Inactive)
REMARK    1  A    between atoms: C2_2  and  C3_3 
REMARK    2  A    between atoms: C3_3  and  C4_4 
REMARK    3  A    between atoms: C4_4  and  C5_5 
REMARK    4  A    between atoms: C5_5  and  N1_6 
REMARK    5  A    between atoms: C7_11  and  C8_12 
REMARK    6  A    between atoms: C7_11  and  C9_15 
REMARK    7  A    between atoms: C8_12  and  O1_13 
REMARK    8  A    between atoms: C9_15  and  S1_17 
REMARK    9  A    between atoms: C11_25  and  O4_26 
ROOT
HETATM    1  C5  UNL     1      49.116  27.837  13.588  1.00  0.00     0.175 C 
HETATM    2  C6  UNL     1      49.750  27.267  12.368  1.00  0.00     0.060 C 
HETATM    3  C7  UNL     1      49.353  27.932  11.084  1.00  0.00     0.054 C 
HETATM    4  C10 UNL     1      47.845  28.179  11.015  1.00  0.00     0.251 C 
HETATM    5  N2  UNL     1      47.179  27.746  12.223  1.00  0.00    -0.046 N 
ATOM      6  H21 UNL     1      47.202  26.733  12.335  1.00  0.00     0.280 HD
ATOM      7  H22 UNL     1      46.167  27.864  12.169  1.00  0.00     0.280 HD
HETATM    8  C11 UNL     1      47.752  28.435  13.359  1.00  0.00     0.354 C 
ENDROOT
BRANCH   3   9
HETATM    9  C8  UNL     1      50.050  29.274  11.030  1.00  0.00     0.179 C 
BRANCH   9  10
HETATM   10  O1  UNL     1      49.138  30.334  10.942  1.00  0.00    -0.400 OA
ATOM     11  H1  UNL     1      49.050  30.796  11.768  1.00  0.00     0.209 HD
ENDBRANCH   9  10
ENDBRANCH   3   9
BRANCH   3  12
HETATM   12  C9  UNL     1      49.690  27.044   9.938  1.00  0.00     0.335 C 
HETATM   13  F1  UNL     1      50.921  26.435  10.122  1.00  0.00    -0.229 F 
BRANCH  12  14
HETATM   14  S1  UNL     1      49.686  27.786   8.358  1.00  0.00     0.333 S 
HETATM   15  O2  UNL     1      51.012  28.267   7.908  1.00  0.00    -0.191 OA
HETATM   16  O3  UNL     1      48.604  28.845   8.206  1.00  0.00    -0.191 OA
HETATM   17  F2  UNL     1      49.226  26.577   7.253  1.00  0.00    -0.102 F 
ENDBRANCH  12  14
ENDBRANCH   3  12
BRANCH   1  18
HETATM   18  C4  UNL     1      48.896  26.683  14.569  1.00  0.00     0.043 C 
BRANCH  18  19
HETATM   19  C3  UNL     1      49.967  25.630  14.426  1.00  0.00     0.002 C 
BRANCH  19  20
HETATM   20  C2  UNL     1      49.483  24.403  15.170  1.00  0.00    -0.004 C 
HETATM   21  C1  UNL     1      50.556  23.353  15.287  1.00  0.00     0.005 C 
ENDBRANCH  19  20
ENDBRANCH  18  19
ENDBRANCH   1  18
BRANCH   1  22
HETATM   22  N1  UNL     1      49.976  28.785  14.278  1.00  0.00    -0.066 N 
ATOM     23  H13 UNL     1      50.124  28.562  15.262  1.00  0.00     0.275 HD
ATOM     24  H12 UNL     1      50.954  28.731  13.992  1.00  0.00     0.275 HD
ATOM     25  H11 UNL     1      49.556  29.702  14.127  1.00  0.00     0.275 HD
ENDBRANCH   1  22
BRANCH   8  26
HETATM   26  O4  UNL     1      46.916  28.190  14.463  1.00  0.00    -0.368 OA
ATOM     27  H4  UNL     1      46.120  28.703  14.397  1.00  0.00     0.212 HD
ENDBRANCH   8  26
TORSDOF 9
ENDMDL
MODEL 3
REMARK VINA RESULT: -5.824578297      3.136      4.252
REMARK  9 active torsions:
REMARK  status: ('A' for Active; 'I' for Inactive)
REMARK    1  A    between atoms: C2_2  and  C3_3 
REMARK    2  A    between atoms: C3_3  and  C4_4 
REMARK    3  A    between atoms: C4_4  and  C5_5 
REMARK    4  A    between atoms: C5_5  and  N1_6 
REMARK    5  A    between atoms: C7_11  and  C8_12 
REMARK    6  A    between atoms: C7_11  and  C9_15 
REMARK    7  A    between atoms: C8_12  and  O1_13 
REMARK    8  A    between atoms: C9_15  and  S1_17 
REMARK    9  A    between atoms: C11_25  and  O4_26 
ROOT
HETATM    1  C5  UNL     1      49.443  28.564  10.390  1.00  0.00     0.175 C 
HETATM    2  C6  UNL     1      50.399  27.428  10.493  1.00  0.00     0.060 C 
HETATM    3  C7  UNL     1      51.190  27.156   9.248  1.00  0.00     0.054 C 
HETATM    4  C10 UNL     1      50.310  27.194   7.997  1.00  0.00     0.251 C 
HETATM    5  N2  UNL     1      48.940  27.522   8.321  1.00  0.00    -0.046 N 
ATOM      6  H21 UNL     1      48.481  26.783   8.855  1.00  0.00     0.280 HD
ATOM      7  H22 UNL     1      48.335  27.504   7.499  1.00  0.00     0.280 HD
HETATM    8  C11 UNL     1      48.900  28.797   9.004  1.00  0.00     0.354 C 
ENDROOT
BRANCH   3   9
HETATM    9  C8  UNL     1      52.231  28.247   9.122  1.00  0.00     0.179 C 
BRANCH   9  10
HETATM   10  O1  UNL     1      52.959  28.414  10.307  1.00  0.00    -0.400 OA
ATOM     11  H1  UNL     1      53.872  28.173  10.199  1.00  0.00     0.209 HD
ENDBRANCH   9  10
ENDBRANCH   3   9
BRANCH   3  12
HETATM   12  C9  UNL     1      51.772  25.788   9.317  1.00  0.00     0.335 C 
HETATM   13  F1  UNL     1      52.133  25.462  10.613  1.00  0.00    -0.229 F 
BRANCH  12  14
HETATM   14  S1  UNL     1      53.142  25.479   8.281  1.00  0.00     0.333 S 
HETATM   15  O2  UNL     1      54.402  26.114   8.731  1.00  0.00    -0.191 OA
HETATM   16  O3  UNL     1      52.847  25.755   6.813  1.00  0.00    -0.191 OA
HETATM   17  F2  UNL     1      53.420  23.801   8.329  1.00  0.00    -0.102 F 
ENDBRANCH  12  14
ENDBRANCH   3  12
BRANCH   1  18
HETATM   18  C4  UNL     1      48.227  28.216  11.252  1.00  0.00     0.043 C 
BRANCH  18  19
HETATM   19  C3  UNL     1      48.123  29.130  12.448  1.00  0.00     0.002 C 
BRANCH  19  20
HETATM   20  C2  UNL     1      48.207  28.256  13.682  1.00  0.00    -0.004 C 
HETATM   21  C1  UNL     1      49.468  28.504  14.466  1.00  0.00     0.005 C 
ENDBRANCH  19  20
ENDBRANCH  18  19
ENDBRANCH   1  18
BRANCH   1  22
HETATM   22  N1  UNL     1      49.978  29.800  10.939  1.00  0.00    -0.066 N 
ATOM     23  H13 UNL     1      49.395  30.208  11.671  1.00  0.00     0.275 HD
ATOM     24  H12 UNL     1      50.813  29.665  11.509  1.00  0.00     0.275 HD
ATOM     25  H11 UNL     1      50.123  30.418  10.142  1.00  0.00     0.275 HD
ENDBRANCH   1  22
BRANCH   8  26
HETATM   26  O4  UNL     1      47.554  29.198   9.065  1.00  0.00    -0.368 OA
ATOM     27  H4  UNL     1      47.489  30.146   9.063  1.00  0.00     0.212 HD
ENDBRANCH   8  26
TORSDOF 9
ENDMDL
MODEL 4
REMARK VINA RESULT: -5.778468484      2.849      4.129
REMARK  9 active torsions:
REMARK  status: ('A' for Active; 'I' for Inactive)
REMARK    1  A    between atoms: C2_2  and  C3_3 
REMARK    2  A    between atoms: C3_3  and  C4_4 
REMARK    3  A    between atoms: C4_4  and  C5_5 
REMARK    4  A    between atoms: C5_5  and  N1_6 
REMARK    5  A    between atoms: C7_11  and  C8_12 
REMARK    6  A    between atoms: C7_11  and  C9_15 
REMARK    7  A    between atoms: C8_12  and  O1_13 
REMARK    8  A    between atoms: C9_15  and  S1_17 
REMARK    9  A    between atoms: C11_25  and  O4_26 
ROOT
HETATM    1  C5  UNL     1      51.215  26.870  10.409  1.00  0.00     0.175 C 
HETATM    2  C6  UNL     1      49.865  27.284   9.939  1.00  0.00     0.060 C 
HETATM    3  C7  UNL     1      49.858  28.078   8.666  1.00  0.00     0.054 C 
HETATM    4  C10 UNL     1      50.940  29.159   8.666  1.00  0.00     0.251 C 
HETATM    5  N2  UNL     1      51.729  29.123   9.877  1.00  0.00    -0.046 N 
ATOM      6  H21 UNL     1      51.188  29.393  10.699  1.00  0.00     0.280 HD
ATOM      7  H22 UNL     1      52.423  29.869   9.908  1.00  0.00     0.280 HD
HETATM    8  C11 UNL     1      52.325  27.812  10.022  1.00  0.00     0.354 C 
ENDROOT
BRANCH   3   9
HETATM    9  C8  UNL     1      50.151  27.122   7.531  1.00  0.00     0.179 C 
BRANCH   9  10
HETATM   10  O1  UNL     1      51.123  27.630   6.657  1.00  0.00    -0.400 OA
ATOM     11  H1  UNL     1      51.990  27.297   6.859  1.00  0.00     0.209 HD
ENDBRANCH   9  10
ENDBRANCH   3   9
BRANCH   3  12
HETATM   12  C9  UNL     1      48.554  28.782   8.526  1.00  0.00     0.335 C 
HETATM   13  F1  UNL     1      48.595  29.712   7.500  1.00  0.00    -0.229 F 
BRANCH  12  14
HETATM   14  S1  UNL     1      47.951  29.581   9.956  1.00  0.00     0.333 S 
HETATM   15  O2  UNL     1      46.909  30.599   9.691  1.00  0.00    -0.191 OA
HETATM   16  O3  UNL     1      49.063  30.110  10.851  1.00  0.00    -0.191 OA
HETATM   17  F2  UNL     1      47.204  28.382  10.904  1.00  0.00    -0.102 F 
ENDBRANCH  12  14
ENDBRANCH   3  12
BRANCH   1  18
HETATM   18  C4  UNL     1      51.187  26.878  11.939  1.00  0.00     0.043 C 
BRANCH  18  19
HETATM   19  C3  UNL     1      49.802  27.171  12.461  1.00  0.00     0.002 C 
BRANCH  19  20
HETATM   20  C2  UNL     1      49.950  27.551  13.919  1.00  0.00    -0.004 C 
HETATM   21  C1  UNL     1      49.156  28.783  14.266  1.00  0.00     0.005 C 
ENDBRANCH  19  20
ENDBRANCH  18  19
ENDBRANCH   1  18
BRANCH   1  22
HETATM   22  N1  UNL     1      51.550  25.508  10.026  1.00  0.00    -0.066 N 
ATOM     23  H13 UNL     1      52.076  25.001  10.738  1.00  0.00     0.275 HD
ATOM     24  H12 UNL     1      50.745  24.882  10.000  1.00  0.00     0.275 HD
ATOM     25  H11 UNL     1      52.039  25.582   9.134  1.00  0.00     0.275 HD
ENDBRANCH   1  22
BRANCH   8  26
HETATM   26  O4  UNL     1      53.279  27.898  11.052  1.00  0.00    -0.368 OA
ATOM     27  H4  UNL     1      54.156  27.935  10.689  1.00  0.00     0.212 HD
ENDBRANCH   8  26
TORSDOF 9
ENDMDL
MODEL 5
REMARK VINA RESULT: -5.760148506      7.197      8.011
REMARK  9 active torsions:
REMARK  status: ('A' for Active; 'I' for Inactive)
REMARK    1  A    between atoms: C2_2  and  C3_3 
REMARK    2  A    between atoms: C3_3  and  C4_4 
REMARK    3  A    between atoms: C4_4  and  C5_5 
REMARK    4  A    between atoms: C5_5  and  N1_6 
REMARK    5  A    between atoms: C7_11  and  C8_12 
REMARK    6  A    between atoms: C7_11  and  C9_15 
REMARK    7  A    between atoms: C8_12  and  O1_13 
REMARK    8  A    between atoms: C9_15  and  S1_17 
REMARK    9  A    between atoms: C11_25  and  O4_26 
ROOT
HETATM    1  C5  UNL     1      53.292  21.187   9.193  1.00  0.00     0.175 C 
HETATM    2  C6  UNL     1      52.963  22.546   8.684  1.00  0.00     0.060 C 
HETATM    3  C7  UNL     1      54.024  23.172   7.828  1.00  0.00     0.054 C 
HETATM    4  C10 UNL     1      55.419  22.990   8.430  1.00  0.00     0.251 C 
HETATM    5  N2  UNL     1      55.373  22.225   9.656  1.00  0.00    -0.046 N 
ATOM      6  H21 UNL     1      54.904  22.729  10.409  1.00  0.00     0.280 HD
ATOM      7  H22 UNL     1      56.292  22.137  10.091  1.00  0.00     0.280 HD
HETATM    8  C11 UNL     1      54.765  20.938   9.396  1.00  0.00     0.354 C 
ENDROOT
BRANCH   3   9
HETATM    9  C8  UNL     1      53.999  22.474   6.487  1.00  0.00     0.179 C 
BRANCH   9  10
HETATM   10  O1  UNL     1      55.288  22.145   6.043  1.00  0.00    -0.400 OA
ATOM     11  H1  UNL     1      55.738  21.574   6.654  1.00  0.00     0.209 HD
ENDBRANCH   9  10
ENDBRANCH   3   9
BRANCH   3  12
HETATM   12  C9  UNL     1      53.789  24.639   7.737  1.00  0.00     0.335 C 
HETATM   13  F1  UNL     1      52.685  24.921   6.950  1.00  0.00    -0.229 F 
BRANCH  12  14
HETATM   14  S1  UNL     1      55.126  25.600   7.157  1.00  0.00     0.333 S 
HETATM   15  O2  UNL     1      55.737  25.100   5.904  1.00  0.00    -0.191 OA
HETATM   16  O3  UNL     1      56.162  25.882   8.234  1.00  0.00    -0.191 OA
HETATM   17  F2  UNL     1      54.496  27.138   6.789  1.00  0.00    -0.102 F 
ENDBRANCH  12  14
ENDBRANCH   3  12
BRANCH   1  18
HETATM   18  C4  UNL     1      52.660  21.054  10.580  1.00  0.00     0.043 C 
BRANCH  18  19
HETATM   19  C3  UNL     1      51.443  20.163  10.545  1.00  0.00     0.002 C 
BRANCH  19  20
HETATM   20  C2  UNL     1      51.046  19.900  11.983  1.00  0.00    -0.004 C 
HETATM   21  C1  UNL     1      50.910  18.429  12.271  1.00  0.00     0.005 C 
ENDBRANCH  19  20
ENDBRANCH  18  19
ENDBRANCH   1  18
BRANCH   1  22
HETATM   22  N1  UNL     1      52.706  20.128   8.387  1.00  0.00    -0.066 N 
ATOM     23  H13 UNL     1      52.997  19.191   8.669  1.00  0.00     0.275 HD
ATOM     24  H12 UNL     1      51.707  19.999   8.548  1.00  0.00     0.275 HD
ATOM     25  H11 UNL     1      52.938  20.353   7.420  1.00  0.00     0.275 HD
ENDBRANCH   1  22
BRANCH   8  26
HETATM   26  O4  UNL     1      54.975  20.137  10.532  1.00  0.00    -0.368 OA
ATOM     27  H4  UNL     1      54.253  20.230  11.142  1.00  0.00     0.212 HD
ENDBRANCH   8  26
TORSDOF 9
ENDMDL
