MODEL 1
REMARK VINA RESULT: -6.589931429      0.000      0.000
REMARK  7 active torsions:
REMARK  status: ('A' for Active; 'I' for Inactive)
REMARK    1  A    between atoms: C6_13  and  C7_14 
REMARK    2  A    between atoms: C7_14  and  O1_15 
REMARK    3  A    between atoms: C7_14  and  N4_17 
REMARK    4  A    between atoms: N4_17  and  O2_18 
REMARK    5  A    between atoms: N4_17  and  C10_23 
REMARK    6  A    between atoms: O2_18  and  C8_19 
REMARK    7  A    between atoms: C8_19  and  C9_20 
ROOT
HETATM    1  C1  UNL     1      52.526  26.449  11.767  1.00  0.00     0.069 C 
HETATM    2  C2  UNL     1      51.868  25.638  12.801  1.00  0.00     0.019 A 
HETATM    3  N1  UNL     1      52.355  24.442  13.162  1.00  0.00    -0.345 N 
ATOM      4  H1  UNL     1      53.201  24.106  12.702  1.00  0.00     0.167 HD
HETATM    5  C3  UNL     1      51.789  23.663  14.099  1.00  0.00     0.123 A 
HETATM    6  N2  UNL     1      52.282  22.518  14.432  1.00  0.00    -0.384 N 
ATOM      7  H21 UNL     1      51.852  21.927  15.142  1.00  0.00     0.157 HD
ATOM      8  H22 UNL     1      53.128  22.161  13.986  1.00  0.00     0.157 HD
HETATM    9  C4  UNL     1      50.643  24.148  14.702  1.00  0.00     0.102 A 
HETATM   10 CL1  UNL     1      49.873  23.163  15.928  1.00  0.00    -0.078 Cl
HETATM   11  C5  UNL     1      50.113  25.388  14.346  1.00  0.00     0.084 A 
HETATM   12  N3  UNL     1      48.946  25.816  15.003  1.00  0.00    -0.100 NA
HETATM   13  C6  UNL     1      50.713  26.169  13.382  1.00  0.00     0.035 A 
ENDROOT
BRANCH  13  14
HETATM   14  C7  UNL     1      50.215  27.492  12.959  1.00  0.00     0.256 C 
BRANCH  14  15
HETATM   15  O1  UNL     1      50.029  28.290  14.111  1.00  0.00    -0.375 OA
ATOM     16  H1  UNL     1      49.382  28.957  13.914  1.00  0.00     0.212 HD
ENDBRANCH  14  15
BRANCH  14  17
HETATM   17  N4  UNL     1      49.088  27.486  12.092  1.00  0.00    -0.159 NA
BRANCH  17  18
HETATM   18  O2  UNL     1      47.921  27.694  12.686  1.00  0.00    -0.295 OA
BRANCH  18  19
HETATM   19  C8  UNL     1      47.398  28.948  12.505  1.00  0.00     0.265 C 
BRANCH  19  20
HETATM   20  C9  UNL     1      46.021  28.931  11.890  1.00  0.00     0.378 C 
HETATM   21  F1  UNL     1      45.324  27.784  12.119  1.00  0.00    -0.212 F 
HETATM   22  F2  UNL     1      46.109  29.145  10.521  1.00  0.00    -0.212 F 
ENDBRANCH  19  20
ENDBRANCH  18  19
ENDBRANCH  17  18
BRANCH  17  23
HETATM   23  C10 UNL     1      49.364  28.315  10.956  1.00  0.00     0.089 A 
HETATM   24  C11 UNL     1      50.473  27.937  10.048  1.00  0.00     0.024 A 
HETATM   25  C12 UNL     1      49.078  27.871   9.552  1.00  0.00     0.024 A 
ENDBRANCH  17  23
ENDBRANCH  14  17
ENDBRANCH  13  14
TORSDOF 7
ENDMDL
MODEL 2
REMARK VINA RESULT: -6.579054566      4.027      6.468
REMARK  7 active torsions:
REMARK  status: ('A' for Active; 'I' for Inactive)
REMARK    1  A    between atoms: C6_13  and  C7_14 
REMARK    2  A    between atoms: C7_14  and  O1_15 
REMARK    3  A    between atoms: C7_14  and  N4_17 
REMARK    4  A    between atoms: N4_17  and  O2_18 
REMARK    5  A    between atoms: N4_17  and  C10_23 
REMARK    6  A    between atoms: O2_18  and  C8_19 
REMARK    7  A    between atoms: C8_19  and  C9_20 
ROOT
HETATM    1  C1  UNL     1      49.140  27.717  14.649  1.00  0.00     0.069 C 
HETATM    2  C2  UNL     1      49.708  27.633  13.296  1.00  0.00     0.019 A 
HETATM    3  N1  UNL     1      49.300  28.456  12.318  1.00  0.00    -0.345 N 
ATOM      4  H1  UNL     1      48.583  29.148  12.537  1.00  0.00     0.167 HD
HETATM    5  C3  UNL     1      49.787  28.417  11.067  1.00  0.00     0.123 A 
HETATM    6  N2  UNL     1      49.381  29.225  10.146  1.00  0.00    -0.384 N 
ATOM      7  H21 UNL     1      49.751  29.195   9.196  1.00  0.00     0.157 HD
ATOM      8  H22 UNL     1      48.665  29.926  10.340  1.00  0.00     0.157 HD
HETATM    9  C4  UNL     1      50.757  27.467  10.804  1.00  0.00     0.102 A 
HETATM   10 CL1  UNL     1      51.417  27.383   9.185  1.00  0.00    -0.078 Cl
HETATM   11  C5  UNL     1      51.199  26.598  11.802  1.00  0.00     0.084 A 
HETATM   12  N3  UNL     1      52.188  25.659  11.462  1.00  0.00    -0.100 NA
HETATM   13  C6  UNL     1      50.685  26.658  13.079  1.00  0.00     0.035 A 
ENDROOT
BRANCH  13  14
HETATM   14  C7  UNL     1      51.108  25.778  14.185  1.00  0.00     0.256 C 
BRANCH  14  15
HETATM   15  O1  UNL     1      52.468  26.036  14.468  1.00  0.00    -0.375 OA
ATOM     16  H1  UNL     1      52.746  25.457  15.168  1.00  0.00     0.212 HD
ENDBRANCH  14  15
BRANCH  14  17
HETATM   17  N4  UNL     1      50.821  24.394  14.026  1.00  0.00    -0.159 NA
BRANCH  17  18
HETATM   18  O2  UNL     1      51.838  23.654  13.607  1.00  0.00    -0.295 OA
BRANCH  18  19
HETATM   19  C8  UNL     1      52.177  22.618  14.438  1.00  0.00     0.265 C 
BRANCH  19  20
HETATM   20  C9  UNL     1      52.504  21.347  13.696  1.00  0.00     0.378 C 
HETATM   21  F1  UNL     1      51.727  21.127  12.599  1.00  0.00    -0.212 F 
HETATM   22  F2  UNL     1      52.403  20.258  14.551  1.00  0.00    -0.212 F 
ENDBRANCH  19  20
ENDBRANCH  18  19
ENDBRANCH  17  18
BRANCH  17  23
HETATM   23  C10 UNL     1      50.145  23.916  15.196  1.00  0.00     0.089 A 
HETATM   24  C11 UNL     1      48.946  24.645  15.677  1.00  0.00     0.024 A 
HETATM   25  C12 UNL     1      48.790  23.276  15.133  1.00  0.00     0.024 A 
ENDBRANCH  17  23
ENDBRANCH  14  17
ENDBRANCH  13  14
TORSDOF 7
ENDMDL
MODEL 3
REMARK VINA RESULT: -6.537322782      2.245      2.874
REMARK  7 active torsions:
REMARK  status: ('A' for Active; 'I' for Inactive)
REMARK    1  A    between atoms: C6_13  and  C7_14 
REMARK    2  A    between atoms: C7_14  and  O1_15 
REMARK    3  A    between atoms: C7_14  and  N4_17 
REMARK    4  A    between atoms: N4_17  and  O2_18 
REMARK    5  A    between atoms: N4_17  and  C10_23 
REMARK    6  A    between atoms: O2_18  and  C8_19 
REMARK    7  A    between atoms: C8_19  and  C9_20 
ROOT
HETATM    1  C1  UNL     1      52.411  27.493  10.573  1.00  0.00     0.069 C 
HETATM    2  C2  UNL     1      51.491  27.152  11.667  1.00  0.00     0.019 A 
HETATM    3  N1  UNL     1      51.850  26.300  12.639  1.00  0.00    -0.345 N 
ATOM      4  H1  UNL     1      52.785  25.891  12.602  1.00  0.00     0.167 HD
HETATM    5  C3  UNL     1      51.045  25.955  13.657  1.00  0.00     0.123 A 
HETATM    6  N2  UNL     1      51.418  25.137  14.582  1.00  0.00    -0.384 N 
ATOM      7  H21 UNL     1      50.807  24.875  15.355  1.00  0.00     0.157 HD
ATOM      8  H22 UNL     1      52.348  24.716  14.568  1.00  0.00     0.157 HD
HETATM    9  C4  UNL     1      49.786  26.526  13.677  1.00  0.00     0.102 A 
HETATM   10 CL1  UNL     1      48.705  26.103  14.988  1.00  0.00    -0.078 Cl
HETATM   11  C5  UNL     1      49.385  27.415  12.679  1.00  0.00     0.084 A 
HETATM   12  N3  UNL     1      48.090  27.957  12.765  1.00  0.00    -0.100 NA
HETATM   13  C6  UNL     1      50.230  27.754  11.644  1.00  0.00     0.035 A 
ENDROOT
BRANCH  13  14
HETATM   14  C7  UNL     1      49.879  28.691  10.560  1.00  0.00     0.256 C 
BRANCH  14  15
HETATM   15  O1  UNL     1      49.494  29.921  11.139  1.00  0.00    -0.375 OA
ATOM     16  H1  UNL     1      49.097  30.460  10.465  1.00  0.00     0.212 HD
ENDBRANCH  14  15
BRANCH  14  17
HETATM   17  N4  UNL     1      48.950  28.209   9.596  1.00  0.00    -0.159 NA
BRANCH  17  18
HETATM   18  O2  UNL     1      47.781  28.833   9.582  1.00  0.00    -0.295 OA
BRANCH  18  19
HETATM   19  C8  UNL     1      47.701  29.887   8.709  1.00  0.00     0.265 C 
BRANCH  19  20
HETATM   20  C9  UNL     1      46.472  30.736   8.916  1.00  0.00     0.378 C 
HETATM   21  F1  UNL     1      45.383  30.040   9.348  1.00  0.00    -0.212 F 
HETATM   22  F2  UNL     1      46.151  31.402   7.741  1.00  0.00    -0.212 F 
ENDBRANCH  19  20
ENDBRANCH  18  19
ENDBRANCH  17  18
BRANCH  17  23
HETATM   23  C10 UNL     1      49.608  28.092   8.328  1.00  0.00     0.089 A 
HETATM   24  C11 UNL     1      50.471  26.913   8.077  1.00  0.00     0.024 A 
HETATM   25  C12 UNL     1      49.211  27.062   7.312  1.00  0.00     0.024 A 
ENDBRANCH  17  23
ENDBRANCH  14  17
ENDBRANCH  13  14
TORSDOF 7
ENDMDL
MODEL 4
REMARK VINA RESULT: -6.436113696      3.206      4.559
REMARK  7 active torsions:
REMARK  status: ('A' for Active; 'I' for Inactive)
REMARK    1  A    between atoms: C6_13  and  C7_14 
REMARK    2  A    between atoms: C7_14  and  O1_15 
REMARK    3  A    between atoms: C7_14  and  N4_17 
REMARK    4  A    between atoms: N4_17  and  O2_18 
REMARK    5  A    between atoms: N4_17  and  C10_23 
REMARK    6  A    between atoms: O2_18  and  C8_19 
REMARK    7  A    between atoms: C8_19  and  C9_20 
ROOT
HETATM    1  C1  UNL     1      51.988  25.914  12.088  1.00  0.00     0.069 C 
HETATM    2  C2  UNL     1      50.772  26.669  12.421  1.00  0.00     0.019 A 
HETATM    3  N1  UNL     1      50.152  26.505  13.600  1.00  0.00    -0.345 N 
ATOM      4  H1  UNL     1      50.548  25.842  14.266  1.00  0.00     0.167 HD
HETATM    5  C3  UNL     1      49.038  27.170  13.949  1.00  0.00     0.123 A 
HETATM    6  N2  UNL     1      48.465  26.997  15.092  1.00  0.00    -0.384 N 
ATOM      7  H21 UNL     1      47.619  27.502  15.357  1.00  0.00     0.157 HD
ATOM      8  H22 UNL     1      48.842  26.340  15.775  1.00  0.00     0.157 HD
HETATM    9  C4  UNL     1      48.527  28.060  13.023  1.00  0.00     0.102 A 
HETATM   10 CL1  UNL     1      47.075  28.946  13.439  1.00  0.00    -0.078 Cl
HETATM   11  C5  UNL     1      49.151  28.250  11.789  1.00  0.00     0.084 A 
HETATM   12  N3  UNL     1      48.574  29.173  10.898  1.00  0.00    -0.100 NA
HETATM   13  C6  UNL     1      50.294  27.557  11.454  1.00  0.00     0.035 A 
ENDROOT
BRANCH  13  14
HETATM   14  C7  UNL     1      51.010  27.710  10.173  1.00  0.00     0.256 C 
BRANCH  14  15
HETATM   15  O1  UNL     1      51.095  29.088   9.869  1.00  0.00    -0.375 OA
ATOM     16  H1  UNL     1      51.432  29.181   8.986  1.00  0.00     0.212 HD
ENDBRANCH  14  15
BRANCH  14  17
HETATM   17  N4  UNL     1      50.527  26.925   9.090  1.00  0.00    -0.159 NA
BRANCH  17  18
HETATM   18  O2  UNL     1      49.409  27.367   8.530  1.00  0.00    -0.295 OA
BRANCH  18  19
HETATM   19  C8  UNL     1      49.493  27.599   7.182  1.00  0.00     0.265 C 
BRANCH  19  20
HETATM   20  C9  UNL     1      49.396  29.060   6.825  1.00  0.00     0.378 C 
HETATM   21  F1  UNL     1      50.595  29.704   6.785  1.00  0.00    -0.212 F 
HETATM   22  F2  UNL     1      48.558  29.713   7.720  1.00  0.00    -0.212 F 
ENDBRANCH  19  20
ENDBRANCH  18  19
ENDBRANCH  17  18
BRANCH  17  23
HETATM   23  C10 UNL     1      51.607  26.651   8.190  1.00  0.00     0.089 A 
HETATM   24  C11 UNL     1      52.944  26.336   8.750  1.00  0.00     0.024 A 
HETATM   25  C12 UNL     1      52.192  25.279   8.034  1.00  0.00     0.024 A 
ENDBRANCH  17  23
ENDBRANCH  14  17
ENDBRANCH  13  14
TORSDOF 7
ENDMDL
MODEL 5
REMARK VINA RESULT: -6.410868483      2.400      3.577
REMARK  7 active torsions:
REMARK  status: ('A' for Active; 'I' for Inactive)
REMARK    1  A    between atoms: C6_13  and  C7_14 
REMARK    2  A    between atoms: C7_14  and  O1_15 
REMARK    3  A    between atoms: C7_14  and  N4_17 
REMARK    4  A    between atoms: N4_17  and  O2_18 
REMARK    5  A    between atoms: N4_17  and  C10_23 
REMARK    6  A    between atoms: O2_18  and  C8_19 
REMARK    7  A    between atoms: C8_19  and  C9_20 
ROOT
HETATM    1  C1  UNL     1      47.157  29.131  12.736  1.00  0.00     0.069 C 
HETATM    2  C2  UNL     1      48.171  28.154  13.155  1.00  0.00     0.019 A 
HETATM    3  N1  UNL     1      48.022  27.434  14.278  1.00  0.00    -0.345 N 
ATOM      4  H1  UNL     1      47.181  27.580  14.837  1.00  0.00     0.167 HD
HETATM    5  C3  UNL     1      48.920  26.531  14.704  1.00  0.00     0.123 A 
HETATM    6  N2  UNL     1      48.748  25.848  15.785  1.00  0.00    -0.384 N 
ATOM      7  H21 UNL     1      49.431  25.162  16.108  1.00  0.00     0.157 HD
ATOM      8  H22 UNL     1      47.916  25.976  16.361  1.00  0.00     0.157 HD
HETATM    9  C4  UNL     1      50.048  26.358  13.923  1.00  0.00     0.102 A 
HETATM   10 CL1  UNL     1      51.244  25.190  14.444  1.00  0.00    -0.078 Cl
HETATM   11  C5  UNL     1      50.230  27.093  12.751  1.00  0.00     0.084 A 
HETATM   12  N3  UNL     1      51.401  26.863  12.008  1.00  0.00    -0.100 NA
HETATM   13  C6  UNL     1      49.293  28.014  12.335  1.00  0.00     0.035 A 
ENDROOT
BRANCH  13  14
HETATM   14  C7  UNL     1      49.414  28.821  11.105  1.00  0.00     0.256 C 
BRANCH  14  15
HETATM   15  O1  UNL     1      49.163  30.173  11.432  1.00  0.00    -0.375 OA
ATOM     16  H1  UNL     1      48.223  30.308  11.452  1.00  0.00     0.212 HD
ENDBRANCH  14  15
BRANCH  14  17
HETATM   17  N4  UNL     1      48.668  28.366   9.984  1.00  0.00    -0.159 NA
BRANCH  17  18
HETATM   18  O2  UNL     1      47.524  29.003   9.774  1.00  0.00    -0.295 OA
BRANCH  18  19
HETATM   19  C8  UNL     1      47.593  30.024   8.862  1.00  0.00     0.265 C 
BRANCH  19  20
HETATM   20  C9  UNL     1      46.377  30.915   8.877  1.00  0.00     0.378 C 
HETATM   21  F1  UNL     1      45.268  30.332   9.412  1.00  0.00    -0.212 F 
HETATM   22  F2  UNL     1      46.088  31.346   7.590  1.00  0.00    -0.212 F 
ENDBRANCH  19  20
ENDBRANCH  18  19
ENDBRANCH  17  18
BRANCH  17  23
HETATM   23  C10 UNL     1      49.538  28.262   8.851  1.00  0.00     0.089 A 
HETATM   24  C11 UNL     1      50.488  27.125   8.781  1.00  0.00     0.024 A 
HETATM   25  C12 UNL     1      49.372  27.196   7.808  1.00  0.00     0.024 A 
ENDBRANCH  17  23
ENDBRANCH  14  17
ENDBRANCH  13  14
TORSDOF 7
ENDMDL
