MODEL 1
REMARK VINA RESULT: -6.011813100      0.000      0.000
REMARK  7 active torsions:
REMARK  status: ('A' for Active; 'I' for Inactive)
REMARK    1  A    between atoms: N1_1  and  C1_4 
REMARK    2  A    between atoms: C1_4  and  C2_5 
REMARK    3  A    between atoms: C2_5  and  N2_6 
REMARK    4  A    between atoms: N2_6  and  C3_8 
REMARK    5  A    between atoms: C3_8  and  C4_10 
REMARK    6  A    between atoms: C3_8  and  C9_23 
REMARK    7  A    between atoms: C4_10  and  N3_11 
ROOT
HETATM    1  C4  UNL     1      50.079  27.772  13.456  1.00  0.00     0.182 C 
ENDROOT
BRANCH   1   2
HETATM    2  C3  UNL     1      49.203  27.890  12.236  1.00  0.00     0.154 C 
HETATM    3 CL1  UNL     1      49.291  29.651  11.789  1.00  0.00    -0.091 Cl
BRANCH   2   4
HETATM    4  N2  UNL     1      47.835  27.646  12.444  1.00  0.00    -0.372 N 
ATOM      5  H2  UNL     1      47.490  26.685  12.466  1.00  0.00     0.161 HD
BRANCH   4   6
HETATM    6  C2  UNL     1      46.937  28.712  12.624  1.00  0.00     0.101 C 
BRANCH   6   7
HETATM    7  C1  UNL     1      45.779  28.778  11.700  1.00  0.00     0.097 C 
BRANCH   7   8
HETATM    8  N1  UNL     1      45.802  29.305  10.535  1.00  0.00    -0.407 N 
ATOM      9  H12 UNL     1      46.622  29.106   9.962  1.00  0.00     0.155 HD
ATOM     10  H11 UNL     1      45.068  29.898  10.147  1.00  0.00     0.155 HD
ENDBRANCH   7   8
ENDBRANCH   6   7
ENDBRANCH   4   6
ENDBRANCH   2   4
BRANCH   2  11
HETATM   11  C9  UNL     1      49.815  27.220  11.022  1.00  0.00     0.223 C 
HETATM   12 CL2  UNL     1      48.945  27.766   9.570  1.00  0.00    -0.104 Cl
HETATM   13 CL3  UNL     1      51.478  27.895  10.871  1.00  0.00    -0.104 Cl
ENDBRANCH   2  11
ENDBRANCH   1   2
BRANCH   1  14
HETATM   14  N3  UNL     1      50.191  26.433  13.971  1.00  0.00    -0.323 N 
HETATM   15  C5  UNL     1      49.314  25.755  14.745  1.00  0.00     0.185 A 
HETATM   16  N4  UNL     1      49.776  24.516  15.021  1.00  0.00    -0.346 N 
HETATM   17  C6  UNL     1      50.969  24.370  14.427  1.00  0.00     0.122 A 
ATOM     18  H4  UNL     1      49.299  23.812  15.584  1.00  0.00     0.167 HD
HETATM   19  C7  UNL     1      52.031  23.499  14.214  1.00  0.00     0.161 A 
HETATM   20  C8  UNL     1      51.214  25.563  13.781  1.00  0.00     0.154 A 
HETATM   21  N5  UNL     1      52.131  22.179  14.719  1.00  0.00    -0.079 NA
HETATM   22  N6  UNL     1      52.891  24.181  13.447  1.00  0.00    -0.284 N 
HETATM   23  N7  UNL     1      52.428  25.397  13.182  1.00  0.00    -0.282 N 
ATOM     24  H6  UNL     1      53.783  23.815  13.112  1.00  0.00     0.188 HD
ATOM     25  H7  UNL     1      52.906  26.098  12.617  1.00  0.00     0.188 HD
ENDBRANCH   1  14
TORSDOF 7
ENDMDL
MODEL 2
REMARK VINA RESULT: -5.822950646      2.623      7.237
REMARK  7 active torsions:
REMARK  status: ('A' for Active; 'I' for Inactive)
REMARK    1  A    between atoms: N1_1  and  C1_4 
REMARK    2  A    between atoms: C1_4  and  C2_5 
REMARK    3  A    between atoms: C2_5  and  N2_6 
REMARK    4  A    between atoms: N2_6  and  C3_8 
REMARK    5  A    between atoms: C3_8  and  C4_10 
REMARK    6  A    between atoms: C3_8  and  C9_23 
REMARK    7  A    between atoms: C4_10  and  N3_11 
ROOT
HETATM    1  C4  UNL     1      48.287  27.771  11.013  1.00  0.00     0.182 C 
ENDROOT
BRANCH   1   2
HETATM    2  C3  UNL     1      49.179  28.234  12.135  1.00  0.00     0.154 C 
HETATM    3 CL1  UNL     1      49.107  30.050  12.046  1.00  0.00    -0.091 Cl
BRANCH   2   4
HETATM    4  N2  UNL     1      50.543  27.928  11.993  1.00  0.00    -0.372 N 
ATOM      5  H2  UNL     1      51.236  28.676  12.036  1.00  0.00     0.161 HD
BRANCH   4   6
HETATM    6  C2  UNL     1      50.962  26.601  11.791  1.00  0.00     0.101 C 
BRANCH   6   7
HETATM    7  C1  UNL     1      51.533  25.891  12.960  1.00  0.00     0.097 C 
BRANCH   7   8
HETATM    8  N1  UNL     1      52.746  25.499  13.058  1.00  0.00    -0.407 N 
ATOM      9  H12 UNL     1      53.218  25.259  12.185  1.00  0.00     0.155 HD
ATOM     10  H11 UNL     1      53.264  25.412  13.933  1.00  0.00     0.155 HD
ENDBRANCH   7   8
ENDBRANCH   6   7
ENDBRANCH   4   6
ENDBRANCH   2   4
BRANCH   2  11
HETATM   11  C9  UNL     1      48.579  27.956  13.499  1.00  0.00     0.223 C 
HETATM   12 CL2  UNL     1      49.696  28.555  14.746  1.00  0.00    -0.104 Cl
HETATM   13 CL3  UNL     1      47.118  29.001  13.618  1.00  0.00    -0.104 Cl
ENDBRANCH   2  11
ENDBRANCH   1   2
BRANCH   1  14
HETATM   14  N3  UNL     1      48.246  28.667   9.888  1.00  0.00    -0.323 N 
HETATM   15  C5  UNL     1      49.165  28.829   8.909  1.00  0.00     0.185 A 
HETATM   16  N4  UNL     1      48.764  29.768   8.025  1.00  0.00    -0.346 N 
HETATM   17  C6  UNL     1      47.571  30.236   8.419  1.00  0.00     0.122 A 
ATOM     18  H4  UNL     1      49.280  30.069   7.198  1.00  0.00     0.167 HD
HETATM   19  C7  UNL     1      46.547  31.126   8.121  1.00  0.00     0.161 A 
HETATM   20  C8  UNL     1      47.262  29.547   9.573  1.00  0.00     0.154 A 
HETATM   21  N5  UNL     1      46.511  32.000   7.008  1.00  0.00    -0.079 NA
HETATM   22  N6  UNL     1      45.644  30.957   9.096  1.00  0.00    -0.284 N 
HETATM   23  N7  UNL     1      46.048  30.032   9.959  1.00  0.00    -0.282 N 
ATOM     24  H6  UNL     1      44.765  31.470   9.166  1.00  0.00     0.188 HD
ATOM     25  H7  UNL     1      45.529  29.730  10.784  1.00  0.00     0.188 HD
ENDBRANCH   1  14
TORSDOF 7
ENDMDL
MODEL 3
REMARK VINA RESULT: -5.739407926      3.051      6.425
REMARK  7 active torsions:
REMARK  status: ('A' for Active; 'I' for Inactive)
REMARK    1  A    between atoms: N1_1  and  C1_4 
REMARK    2  A    between atoms: C1_4  and  C2_5 
REMARK    3  A    between atoms: C2_5  and  N2_6 
REMARK    4  A    between atoms: N2_6  and  C3_8 
REMARK    5  A    between atoms: C3_8  and  C4_10 
REMARK    6  A    between atoms: C3_8  and  C9_23 
REMARK    7  A    between atoms: C4_10  and  N3_11 
ROOT
HETATM    1  C4  UNL     1      51.339  26.103  14.070  1.00  0.00     0.182 C 
ENDROOT
BRANCH   1   2
HETATM    2  C3  UNL     1      51.705  24.642  14.075  1.00  0.00     0.154 C 
HETATM    3 CL1  UNL     1      52.910  24.486  15.428  1.00  0.00    -0.091 Cl
BRANCH   2   4
HETATM    4  N2  UNL     1      52.391  24.185  12.937  1.00  0.00    -0.372 N 
ATOM      5  H2  UNL     1      52.758  24.858  12.263  1.00  0.00     0.161 HD
BRANCH   4   6
HETATM    6  C2  UNL     1      52.577  22.809  12.717  1.00  0.00     0.101 C 
BRANCH   6   7
HETATM    7  C1  UNL     1      52.898  22.386  11.333  1.00  0.00     0.097 C 
BRANCH   7   8
HETATM    8  N1  UNL     1      54.035  21.947  10.946  1.00  0.00    -0.407 N 
ATOM      9  H12 UNL     1      54.556  22.541  10.300  1.00  0.00     0.155 HD
ATOM     10  H11 UNL     1      54.447  21.060  11.235  1.00  0.00     0.155 HD
ENDBRANCH   7   8
ENDBRANCH   6   7
ENDBRANCH   4   6
ENDBRANCH   2   4
BRANCH   2  11
HETATM   11  C9  UNL     1      50.567  23.765  14.555  1.00  0.00     0.223 C 
HETATM   12 CL2  UNL     1      51.144  22.779  15.918  1.00  0.00    -0.104 Cl
HETATM   13 CL3  UNL     1      49.342  24.885  15.255  1.00  0.00    -0.104 Cl
ENDBRANCH   2  11
ENDBRANCH   1   2
BRANCH   1  14
HETATM   14  N3  UNL     1      50.953  26.607  12.779  1.00  0.00    -0.323 N 
HETATM   15  C5  UNL     1      51.696  26.687  11.652  1.00  0.00     0.185 A 
HETATM   16  N4  UNL     1      50.977  27.218  10.639  1.00  0.00    -0.346 N 
HETATM   17  C6  UNL     1      49.747  27.495  11.096  1.00  0.00     0.122 A 
ATOM     18  H4  UNL     1      51.311  27.380   9.689  1.00  0.00     0.167 HD
HETATM   19  C7  UNL     1      48.500  28.006  10.758  1.00  0.00     0.161 A 
HETATM   20  C8  UNL     1      49.745  27.112  12.421  1.00  0.00     0.154 A 
HETATM   21  N5  UNL     1      48.126  28.494   9.482  1.00  0.00    -0.079 NA
HETATM   22  N6  UNL     1      47.774  27.922  11.880  1.00  0.00    -0.284 N 
HETATM   23  N7  UNL     1      48.490  27.398  12.869  1.00  0.00    -0.282 N 
ATOM     24  H6  UNL     1      46.802  28.219  11.964  1.00  0.00     0.188 HD
ATOM     25  H7  UNL     1      48.152  27.235  13.817  1.00  0.00     0.188 HD
ENDBRANCH   1  14
TORSDOF 7
ENDMDL
MODEL 4
REMARK VINA RESULT: -5.611256437      3.998      5.455
REMARK  7 active torsions:
REMARK  status: ('A' for Active; 'I' for Inactive)
REMARK    1  A    between atoms: N1_1  and  C1_4 
REMARK    2  A    between atoms: C1_4  and  C2_5 
REMARK    3  A    between atoms: C2_5  and  N2_6 
REMARK    4  A    between atoms: N2_6  and  C3_8 
REMARK    5  A    between atoms: C3_8  and  C4_10 
REMARK    6  A    between atoms: C3_8  and  C9_23 
REMARK    7  A    between atoms: C4_10  and  N3_11 
ROOT
HETATM    1  C4  UNL     1      50.076  28.098  11.508  1.00  0.00     0.182 C 
ENDROOT
BRANCH   1   2
HETATM    2  C3  UNL     1      48.827  28.924  11.675  1.00  0.00     0.154 C 
HETATM    3 CL1  UNL     1      47.478  27.704  11.665  1.00  0.00    -0.091 Cl
BRANCH   2   4
HETATM    4  N2  UNL     1      48.526  29.792  10.611  1.00  0.00    -0.372 N 
ATOM      5  H2  UNL     1      49.182  30.534  10.363  1.00  0.00     0.161 HD
BRANCH   4   6
HETATM    6  C2  UNL     1      47.331  29.647   9.884  1.00  0.00     0.101 C 
BRANCH   6   7
HETATM    7  C1  UNL     1      47.047  30.668   8.848  1.00  0.00     0.097 C 
BRANCH   7   8
HETATM    8  N1  UNL     1      45.942  31.298   8.724  1.00  0.00    -0.407 N 
ATOM      9  H12 UNL     1      45.975  32.307   8.872  1.00  0.00     0.155 HD
ATOM     10  H11 UNL     1      45.046  30.868   8.493  1.00  0.00     0.155 HD
ENDBRANCH   7   8
ENDBRANCH   6   7
ENDBRANCH   4   6
ENDBRANCH   2   4
BRANCH   2  11
HETATM   11  C9  UNL     1      48.712  29.519  13.064  1.00  0.00     0.223 C 
HETATM   12 CL2  UNL     1      47.060  29.251  13.663  1.00  0.00    -0.104 Cl
HETATM   13 CL3  UNL     1      49.776  28.520  14.118  1.00  0.00    -0.104 Cl
ENDBRANCH   2  11
ENDBRANCH   1   2
BRANCH   1  14
HETATM   14  N3  UNL     1      50.464  27.891  10.138  1.00  0.00    -0.323 N 
HETATM   15  C5  UNL     1      50.016  26.956   9.270  1.00  0.00     0.185 A 
HETATM   16  N4  UNL     1      50.620  27.086   8.069  1.00  0.00    -0.346 N 
HETATM   17  C6  UNL     1      51.477  28.115   8.139  1.00  0.00     0.122 A 
ATOM     18  H4  UNL     1      50.453  26.502   7.250  1.00  0.00     0.167 HD
HETATM   19  C7  UNL     1      52.410  28.863   7.432  1.00  0.00     0.161 A 
HETATM   20  C8  UNL     1      51.371  28.604   9.423  1.00  0.00     0.154 A 
HETATM   21  N5  UNL     1      52.781  28.657   6.081  1.00  0.00    -0.079 NA
HETATM   22  N6  UNL     1      52.846  29.785   8.299  1.00  0.00    -0.284 N 
HETATM   23  N7  UNL     1      52.245  29.649   9.477  1.00  0.00    -0.282 N 
ATOM     24  H6  UNL     1      53.545  30.497   8.085  1.00  0.00     0.188 HD
ATOM     25  H7  UNL     1      52.413  30.235  10.294  1.00  0.00     0.188 HD
ENDBRANCH   1  14
TORSDOF 7
ENDMDL
MODEL 5
REMARK VINA RESULT: -5.536467955      2.093      6.136
REMARK  7 active torsions:
REMARK  status: ('A' for Active; 'I' for Inactive)
REMARK    1  A    between atoms: N1_1  and  C1_4 
REMARK    2  A    between atoms: C1_4  and  C2_5 
REMARK    3  A    between atoms: C2_5  and  N2_6 
REMARK    4  A    between atoms: N2_6  and  C3_8 
REMARK    5  A    between atoms: C3_8  and  C4_10 
REMARK    6  A    between atoms: C3_8  and  C9_23 
REMARK    7  A    between atoms: C4_10  and  N3_11 
ROOT
HETATM    1  C4  UNL     1      50.750  28.124  12.051  1.00  0.00     0.182 C 
ENDROOT
BRANCH   1   2
HETATM    2  C3  UNL     1      51.420  26.974  11.345  1.00  0.00     0.154 C 
HETATM    3 CL1  UNL     1      50.328  26.616   9.935  1.00  0.00    -0.091 Cl
BRANCH   2   4
HETATM    4  N2  UNL     1      51.473  25.768  12.065  1.00  0.00    -0.372 N 
ATOM      5  H2  UNL     1      51.412  24.879  11.568  1.00  0.00     0.161 HD
BRANCH   4   6
HETATM    6  C2  UNL     1      51.610  25.775  13.465  1.00  0.00     0.101 C 
BRANCH   6   7
HETATM    7  C1  UNL     1      52.644  24.884  14.043  1.00  0.00     0.097 C 
BRANCH   7   8
HETATM    8  N1  UNL     1      53.499  25.231  14.928  1.00  0.00    -0.407 N 
ATOM      9  H12 UNL     1      53.218  25.110  15.902  1.00  0.00     0.155 HD
ATOM     10  H11 UNL     1      54.424  25.613  14.730  1.00  0.00     0.155 HD
ENDBRANCH   7   8
ENDBRANCH   6   7
ENDBRANCH   4   6
ENDBRANCH   2   4
BRANCH   2  11
HETATM   11  C9  UNL     1      52.705  27.390  10.659  1.00  0.00     0.223 C 
HETATM   12 CL2  UNL     1      53.110  26.175   9.424  1.00  0.00    -0.104 Cl
HETATM   13 CL3  UNL     1      52.314  28.892   9.747  1.00  0.00    -0.104 Cl
ENDBRANCH   2  11
ENDBRANCH   1   2
BRANCH   1  14
HETATM   14  N3  UNL     1      49.337  28.225  11.799  1.00  0.00    -0.323 N 
HETATM   15  C5  UNL     1      48.319  27.655  12.482  1.00  0.00     0.185 A 
HETATM   16  N4  UNL     1      47.129  27.990  11.939  1.00  0.00    -0.346 N 
HETATM   17  C6  UNL     1      47.357  28.787  10.885  1.00  0.00     0.122 A 
ATOM     18  H4  UNL     1      46.214  27.688  12.273  1.00  0.00     0.167 HD
HETATM   19  C7  UNL     1      46.759  29.513   9.862  1.00  0.00     0.161 A 
HETATM   20  C8  UNL     1      48.727  28.924  10.809  1.00  0.00     0.154 A 
HETATM   21  N5  UNL     1      45.367  29.613   9.625  1.00  0.00    -0.079 NA
HETATM   22  N6  UNL     1      47.775  30.072   9.193  1.00  0.00    -0.284 N 
HETATM   23  N7  UNL     1      48.941  29.737   9.736  1.00  0.00    -0.282 N 
ATOM     24  H6  UNL     1      47.669  30.675   8.377  1.00  0.00     0.188 HD
ATOM     25  H7  UNL     1      49.855  30.042   9.401  1.00  0.00     0.188 HD
ENDBRANCH   1  14
TORSDOF 7
ENDMDL
