MODEL 1
REMARK VINA RESULT: -9.099329413      0.000      0.000
REMARK  10 active torsions:
REMARK  status: ('A' for Active; 'I' for Inactive)
REMARK    1  A    between atoms: C6_6  and  C7_7 
REMARK    2  A    between atoms: C7_7  and  C8_8 
REMARK    3  A    between atoms: C8_8  and  C9_9 
REMARK    4  A    between atoms: C9_9  and  C10_10 
REMARK    5  A    between atoms: C10_10  and  N1_11 
REMARK    6  A    between atoms: C11_13  and  O2_14 
REMARK    7  A    between atoms: C12_16  and  O3_17 
REMARK    8  A    between atoms: C13_19  and  O4_20 
REMARK    9  A    between atoms: C14_22  and  C15_23 
REMARK   10  A    between atoms: C15_23  and  O5_24 
ROOT
HETATM    1  N1  UNL     1      47.996  27.569  12.440  1.00  0.00    -0.282 N 
HETATM    2  O1  UNL     1      46.762  27.196  12.137  1.00  0.00    -0.247 OA
HETATM    3  C11 UNL     1      45.890  28.185  11.763  1.00  0.00     0.317 C 
HETATM    4  C12 UNL     1      46.366  28.713  10.432  1.00  0.00     0.206 C 
HETATM    5  C13 UNL     1      47.824  29.007  10.434  1.00  0.00     0.178 C 
HETATM    6  C14 UNL     1      48.590  28.565  11.632  1.00  0.00     0.163 C 
ENDROOT
BRANCH   1   7
HETATM    7  C10 UNL     1      48.332  27.540  13.813  1.00  0.00     0.150 C 
BRANCH   7   8
HETATM    8  C9  UNL     1      48.882  26.163  14.152  1.00  0.00     0.022 C 
BRANCH   8   9
HETATM    9  C8  UNL     1      48.806  26.001  15.651  1.00  0.00     0.002 C 
BRANCH   9  10
HETATM   10  C7  UNL     1      48.616  24.548  16.007  1.00  0.00     0.005 C 
BRANCH  10  11
HETATM   11  C6  UNL     1      49.278  23.640  15.023  1.00  0.00    -0.014 C 
HETATM   12  C5  UNL     1      48.457  22.460  14.617  1.00  0.00     0.005 C 
HETATM   13  C4  UNL     1      48.962  21.161  15.252  1.00  0.00     0.009 C 
HETATM   14  C2  UNL     1      50.276  20.828  14.622  1.00  0.00    -0.048 C 
HETATM   15  C1  UNL     1      50.053  20.302  13.237  1.00  0.00     0.015 C 
HETATM   16  C3  UNL     1      50.973  19.718  15.417  1.00  0.00     0.015 C 
HETATM   17  C17 UNL     1      51.138  22.064  14.651  1.00  0.00     0.009 C 
HETATM   18  C16 UNL     1      50.579  23.116  15.592  1.00  0.00     0.005 C 
ENDBRANCH  10  11
ENDBRANCH   9  10
ENDBRANCH   8   9
ENDBRANCH   7   8
ENDBRANCH   1   7
BRANCH   6  19
HETATM   19  C15 UNL     1      49.052  29.796  12.377  1.00  0.00     0.194 C 
BRANCH  19  20
HETATM   20  O5  UNL     1      50.010  30.538  11.741  1.00  0.00    -0.399 OA
ATOM     21  H5  UNL     1      50.441  31.191  12.280  1.00  0.00     0.209 HD
ENDBRANCH  19  20
ENDBRANCH   6  19
BRANCH   3  22
HETATM   22  O2  UNL     1      45.625  29.142  12.699  1.00  0.00    -0.367 OA
ATOM     23  H2  UNL     1      45.581  30.038  12.385  1.00  0.00     0.212 HD
ENDBRANCH   3  22
BRANCH   5  24
HETATM   24  O4  UNL     1      48.372  28.483   9.238  1.00  0.00    -0.391 OA
ATOM     25  H4  UNL     1      49.274  28.243   9.413  1.00  0.00     0.210 HD
ENDBRANCH   5  24
BRANCH   4  26
HETATM   26  O3  UNL     1      45.601  29.800   9.993  1.00  0.00    -0.388 OA
ATOM     27  H3  UNL     1      44.689  29.568   9.868  1.00  0.00     0.210 HD
ENDBRANCH   4  26
TORSDOF 10
ENDMDL
MODEL 2
REMARK VINA RESULT: -9.006978321      0.616      1.398
REMARK  10 active torsions:
REMARK  status: ('A' for Active; 'I' for Inactive)
REMARK    1  A    between atoms: C6_6  and  C7_7 
REMARK    2  A    between atoms: C7_7  and  C8_8 
REMARK    3  A    between atoms: C8_8  and  C9_9 
REMARK    4  A    between atoms: C9_9  and  C10_10 
REMARK    5  A    between atoms: C10_10  and  N1_11 
REMARK    6  A    between atoms: C11_13  and  O2_14 
REMARK    7  A    between atoms: C12_16  and  O3_17 
REMARK    8  A    between atoms: C13_19  and  O4_20 
REMARK    9  A    between atoms: C14_22  and  C15_23 
REMARK   10  A    between atoms: C15_23  and  O5_24 
ROOT
HETATM    1  N1  UNL     1      48.276  27.706  12.983  1.00  0.00    -0.282 N 
HETATM    2  O1  UNL     1      47.044  27.268  12.775  1.00  0.00    -0.247 OA
HETATM    3  C11 UNL     1      46.133  28.178  12.308  1.00  0.00     0.317 C 
HETATM    4  C12 UNL     1      46.551  28.541  10.904  1.00  0.00     0.206 C 
HETATM    5  C13 UNL     1      48.000  28.868  10.817  1.00  0.00     0.178 C 
HETATM    6  C14 UNL     1      48.815  28.603  12.034  1.00  0.00     0.163 C 
ENDROOT
BRANCH   1   7
HETATM    7  C10 UNL     1      48.656  27.863  14.336  1.00  0.00     0.150 C 
BRANCH   7   8
HETATM    8  C9  UNL     1      47.698  27.065  15.208  1.00  0.00     0.022 C 
BRANCH   8   9
HETATM    9  C8  UNL     1      48.523  26.081  16.003  1.00  0.00     0.002 C 
BRANCH   9  10
HETATM   10  C7  UNL     1      49.348  25.226  15.074  1.00  0.00     0.005 C 
BRANCH  10  11
HETATM   11  C6  UNL     1      49.401  23.802  15.524  1.00  0.00    -0.014 C 
HETATM   12  C5  UNL     1      50.765  23.196  15.508  1.00  0.00     0.005 C 
HETATM   13  C4  UNL     1      50.945  22.212  14.347  1.00  0.00     0.009 C 
HETATM   14  C2  UNL     1      50.101  21.012  14.635  1.00  0.00    -0.048 C 
HETATM   15  C1  UNL     1      50.746  20.183  15.703  1.00  0.00     0.015 C 
HETATM   16  C3  UNL     1      49.998  20.131  13.385  1.00  0.00     0.015 C 
HETATM   17  C17 UNL     1      48.721  21.487  15.010  1.00  0.00     0.009 C 
HETATM   18  C16 UNL     1      48.511  22.946  14.647  1.00  0.00     0.005 C 
ENDBRANCH  10  11
ENDBRANCH   9  10
ENDBRANCH   8   9
ENDBRANCH   7   8
ENDBRANCH   1   7
BRANCH   6  19
HETATM   19  C15 UNL     1      49.266  29.930  12.598  1.00  0.00     0.194 C 
BRANCH  19  20
HETATM   20  O5  UNL     1      50.069  30.672  11.776  1.00  0.00    -0.399 OA
ATOM     21  H5  UNL     1      50.949  30.828  12.100  1.00  0.00     0.209 HD
ENDBRANCH  19  20
ENDBRANCH   6  19
BRANCH   3  22
HETATM   22  O2  UNL     1      45.871  29.242  13.123  1.00  0.00    -0.367 OA
ATOM     23  H2  UNL     1      46.116  30.097  12.790  1.00  0.00     0.212 HD
ENDBRANCH   3  22
BRANCH   5  24
HETATM   24  O4  UNL     1      48.523  28.207   9.679  1.00  0.00    -0.391 OA
ATOM     25  H4  UNL     1      48.648  28.858   8.999  1.00  0.00     0.210 HD
ENDBRANCH   5  24
BRANCH   4  26
HETATM   26  O3  UNL     1      45.742  29.544  10.357  1.00  0.00    -0.388 OA
ATOM     27  H3  UNL     1      46.208  30.366  10.260  1.00  0.00     0.210 HD
ENDBRANCH   4  26
TORSDOF 10
ENDMDL
MODEL 3
REMARK VINA RESULT: -8.175955345      2.387      3.628
REMARK  10 active torsions:
REMARK  status: ('A' for Active; 'I' for Inactive)
REMARK    1  A    between atoms: C6_6  and  C7_7 
REMARK    2  A    between atoms: C7_7  and  C8_8 
REMARK    3  A    between atoms: C8_8  and  C9_9 
REMARK    4  A    between atoms: C9_9  and  C10_10 
REMARK    5  A    between atoms: C10_10  and  N1_11 
REMARK    6  A    between atoms: C11_13  and  O2_14 
REMARK    7  A    between atoms: C12_16  and  O3_17 
REMARK    8  A    between atoms: C13_19  and  O4_20 
REMARK    9  A    between atoms: C14_22  and  C15_23 
REMARK   10  A    between atoms: C15_23  and  O5_24 
ROOT
HETATM    1  N1  UNL     1      49.509  26.193  14.652  1.00  0.00    -0.282 N 
HETATM    2  O1  UNL     1      48.435  25.622  15.175  1.00  0.00    -0.247 OA
HETATM    3  C11 UNL     1      47.666  26.394  16.005  1.00  0.00     0.317 C 
HETATM    4  C12 UNL     1      47.034  27.466  15.151  1.00  0.00     0.206 C 
HETATM    5  C13 UNL     1      48.025  28.134  14.265  1.00  0.00     0.178 C 
HETATM    6  C14 UNL     1      49.385  27.532  14.218  1.00  0.00     0.163 C 
ENDROOT
BRANCH   1   7
HETATM    7  C10 UNL     1      50.752  25.779  15.183  1.00  0.00     0.150 C 
BRANCH   7   8
HETATM    8  C9  UNL     1      51.295  24.644  14.328  1.00  0.00     0.022 C 
BRANCH   8   9
HETATM    9  C8  UNL     1      51.668  23.515  15.258  1.00  0.00     0.002 C 
BRANCH   9  10
HETATM   10  C7  UNL     1      50.427  22.917  15.872  1.00  0.00     0.005 C 
BRANCH  10  11
HETATM   11  C6  UNL     1      50.139  21.553  15.336  1.00  0.00    -0.014 C 
HETATM   12  C5  UNL     1      51.344  20.690  15.154  1.00  0.00     0.005 C 
HETATM   13  C4  UNL     1      51.726  20.538  13.678  1.00  0.00     0.009 C 
HETATM   14  C2  UNL     1      50.674  19.705  13.021  1.00  0.00    -0.048 C 
HETATM   15  C1  UNL     1      50.841  18.270  13.421  1.00  0.00     0.015 C 
HETATM   16  C3  UNL     1      50.831  19.767  11.497  1.00  0.00     0.015 C 
HETATM   17  C17 UNL     1      49.327  20.268  13.394  1.00  0.00     0.009 C 
HETATM   18  C16 UNL     1      49.445  21.657  13.995  1.00  0.00     0.005 C 
ENDBRANCH  10  11
ENDBRANCH   9  10
ENDBRANCH   8   9
ENDBRANCH   7   8
ENDBRANCH   1   7
BRANCH   6  19
HETATM   19  C15 UNL     1      50.352  28.500  14.859  1.00  0.00     0.194 C 
BRANCH  19  20
HETATM   20  O5  UNL     1      51.008  29.331  13.992  1.00  0.00    -0.399 OA
ATOM     21  H5  UNL     1      51.717  28.931  13.503  1.00  0.00     0.209 HD
ENDBRANCH  19  20
ENDBRANCH   6  19
BRANCH   3  22
HETATM   22  O2  UNL     1      48.271  26.848  17.142  1.00  0.00    -0.367 OA
ATOM     23  H2  UNL     1      47.822  26.665  17.959  1.00  0.00     0.212 HD
ENDBRANCH   3  22
BRANCH   5  24
HETATM   24  O4  UNL     1      47.450  28.238  12.976  1.00  0.00    -0.391 OA
ATOM     25  H4  UNL     1      47.705  29.077  12.612  1.00  0.00     0.210 HD
ENDBRANCH   5  24
BRANCH   4  26
HETATM   26  O3  UNL     1      46.295  28.379  15.913  1.00  0.00    -0.388 OA
ATOM     27  H3  UNL     1      46.555  28.374  16.827  1.00  0.00     0.210 HD
ENDBRANCH   4  26
TORSDOF 10
ENDMDL
MODEL 4
REMARK VINA RESULT: -7.913786204      1.961      2.872
REMARK  10 active torsions:
REMARK  status: ('A' for Active; 'I' for Inactive)
REMARK    1  A    between atoms: C6_6  and  C7_7 
REMARK    2  A    between atoms: C7_7  and  C8_8 
REMARK    3  A    between atoms: C8_8  and  C9_9 
REMARK    4  A    between atoms: C9_9  and  C10_10 
REMARK    5  A    between atoms: C10_10  and  N1_11 
REMARK    6  A    between atoms: C11_13  and  O2_14 
REMARK    7  A    between atoms: C12_16  and  O3_17 
REMARK    8  A    between atoms: C13_19  and  O4_20 
REMARK    9  A    between atoms: C14_22  and  C15_23 
REMARK   10  A    between atoms: C15_23  and  O5_24 
ROOT
HETATM    1  N1  UNL     1      49.188  26.563  14.294  1.00  0.00    -0.282 N 
HETATM    2  O1  UNL     1      47.886  26.327  14.333  1.00  0.00    -0.247 OA
HETATM    3  C11 UNL     1      47.082  27.355  14.750  1.00  0.00     0.317 C 
HETATM    4  C12 UNL     1      47.148  28.426  13.689  1.00  0.00     0.206 C 
HETATM    5  C13 UNL     1      48.547  28.728  13.284  1.00  0.00     0.178 C 
HETATM    6  C14 UNL     1      49.604  27.828  13.821  1.00  0.00     0.163 C 
ENDROOT
BRANCH   1   7
HETATM    7  C10 UNL     1      49.960  25.945  15.304  1.00  0.00     0.150 C 
BRANCH   7   8
HETATM    8  C9  UNL     1      50.981  25.028  14.646  1.00  0.00     0.022 C 
BRANCH   8   9
HETATM    9  C8  UNL     1      51.098  23.791  15.504  1.00  0.00     0.002 C 
BRANCH   9  10
HETATM   10  C7  UNL     1      49.729  23.230  15.796  1.00  0.00     0.005 C 
BRANCH  10  11
HETATM   11  C6  UNL     1      49.613  21.798  15.386  1.00  0.00    -0.014 C 
HETATM   12  C5  UNL     1      50.884  21.020  15.482  1.00  0.00     0.005 C 
HETATM   13  C4  UNL     1      51.495  20.744  14.104  1.00  0.00     0.009 C 
HETATM   14  C2  UNL     1      50.610  19.764  13.404  1.00  0.00    -0.048 C 
HETATM   15  C1  UNL     1      50.805  18.398  13.988  1.00  0.00     0.015 C 
HETATM   16  C3  UNL     1      50.994  19.677  11.922  1.00  0.00     0.015 C 
HETATM   17  C17 UNL     1      49.189  20.254  13.510  1.00  0.00     0.009 C 
HETATM   18  C16 UNL     1      49.127  21.704  13.956  1.00  0.00     0.005 C 
ENDBRANCH  10  11
ENDBRANCH   9  10
ENDBRANCH   8   9
ENDBRANCH   7   8
ENDBRANCH   1   7
BRANCH   6  19
HETATM   19  C15 UNL     1      50.453  28.620  14.787  1.00  0.00     0.194 C 
BRANCH  19  20
HETATM   20  O5  UNL     1      51.312  29.516  14.211  1.00  0.00    -0.399 OA
ATOM     21  H5  UNL     1      50.938  30.050  13.519  1.00  0.00     0.209 HD
ENDBRANCH  19  20
ENDBRANCH   6  19
BRANCH   3  22
HETATM   22  O2  UNL     1      47.281  27.798  16.027  1.00  0.00    -0.367 OA
ATOM     23  H2  UNL     1      47.806  28.584  16.122  1.00  0.00     0.212 HD
ENDBRANCH   3  22
BRANCH   5  24
HETATM   24  O4  UNL     1      48.582  28.797  11.870  1.00  0.00    -0.391 OA
ATOM     25  H4  UNL     1      49.066  29.577  11.630  1.00  0.00     0.210 HD
ENDBRANCH   5  24
BRANCH   4  26
HETATM   26  O3  UNL     1      46.435  29.574  14.055  1.00  0.00    -0.388 OA
ATOM     27  H3  UNL     1      45.499  29.465  13.939  1.00  0.00     0.210 HD
ENDBRANCH   4  26
TORSDOF 10
ENDMDL
MODEL 5
REMARK VINA RESULT: -7.772071381      1.125      2.185
REMARK  10 active torsions:
REMARK  status: ('A' for Active; 'I' for Inactive)
REMARK    1  A    between atoms: C6_6  and  C7_7 
REMARK    2  A    between atoms: C7_7  and  C8_8 
REMARK    3  A    between atoms: C8_8  and  C9_9 
REMARK    4  A    between atoms: C9_9  and  C10_10 
REMARK    5  A    between atoms: C10_10  and  N1_11 
REMARK    6  A    between atoms: C11_13  and  O2_14 
REMARK    7  A    between atoms: C12_16  and  O3_17 
REMARK    8  A    between atoms: C13_19  and  O4_20 
REMARK    9  A    between atoms: C14_22  and  C15_23 
REMARK   10  A    between atoms: C15_23  and  O5_24 
ROOT
HETATM    1  N1  UNL     1      48.887  27.476  13.100  1.00  0.00    -0.282 N 
HETATM    2  O1  UNL     1      48.676  27.042  11.867  1.00  0.00    -0.247 OA
HETATM    3  C11 UNL     1      47.681  27.658  11.155  1.00  0.00     0.317 C 
HETATM    4  C12 UNL     1      48.139  29.071  10.888  1.00  0.00     0.206 C 
HETATM    5  C13 UNL     1      48.658  29.734  12.115  1.00  0.00     0.178 C 
HETATM    6  C14 UNL     1      48.822  28.871  13.317  1.00  0.00     0.163 C 
ENDROOT
BRANCH   1   7
HETATM    7  C10 UNL     1      48.453  26.622  14.140  1.00  0.00     0.150 C 
BRANCH   7   8
HETATM    8  C9  UNL     1      49.614  26.389  15.096  1.00  0.00     0.022 C 
BRANCH   8   9
HETATM    9  C8  UNL     1      49.976  24.925  15.020  1.00  0.00     0.002 C 
BRANCH   9  10
HETATM   10  C7  UNL     1      48.799  24.077  15.432  1.00  0.00     0.005 C 
BRANCH  10  11
HETATM   11  C6  UNL     1      49.136  22.622  15.446  1.00  0.00    -0.014 C 
HETATM   12  C5  UNL     1      50.599  22.323  15.471  1.00  0.00     0.005 C 
HETATM   13  C4  UNL     1      51.107  21.817  14.117  1.00  0.00     0.009 C 
HETATM   14  C2  UNL     1      50.538  20.452  13.902  1.00  0.00    -0.048 C 
HETATM   15  C1  UNL     1      51.255  19.462  14.768  1.00  0.00     0.015 C 
HETATM   16  C3  UNL     1      50.757  20.016  12.448  1.00  0.00     0.015 C 
HETATM   17  C17 UNL     1      49.057  20.510  14.174  1.00  0.00     0.009 C 
HETATM   18  C16 UNL     1      48.552  21.941  14.227  1.00  0.00     0.005 C 
ENDBRANCH  10  11
ENDBRANCH   9  10
ENDBRANCH   8   9
ENDBRANCH   7   8
ENDBRANCH   1   7
BRANCH   6  19
HETATM   19  C15 UNL     1      47.814  29.308  14.353  1.00  0.00     0.194 C 
BRANCH  19  20
HETATM   20  O5  UNL     1      46.515  29.345  13.925  1.00  0.00    -0.399 OA
ATOM     21  H5  UNL     1      45.969  30.002  14.341  1.00  0.00     0.209 HD
ENDBRANCH  19  20
ENDBRANCH   6  19
BRANCH   3  22
HETATM   22  O2  UNL     1      46.418  27.549  11.663  1.00  0.00    -0.367 OA
ATOM     23  H2  UNL     1      45.769  27.154  11.094  1.00  0.00     0.212 HD
ENDBRANCH   3  22
BRANCH   5  24
HETATM   24  O4  UNL     1      49.862  30.394  11.772  1.00  0.00    -0.391 OA
ATOM     25  H4  UNL     1      49.804  30.644  10.857  1.00  0.00     0.210 HD
ENDBRANCH   5  24
BRANCH   4  26
HETATM   26  O3  UNL     1      47.154  29.830  10.244  1.00  0.00    -0.388 OA
ATOM     27  H3  UNL     1      47.383  30.751  10.204  1.00  0.00     0.210 HD
ENDBRANCH   4  26
TORSDOF 10
ENDMDL
