MODEL 1
REMARK VINA RESULT: -8.144749493      0.000      0.000
REMARK  9 active torsions:
REMARK  status: ('A' for Active; 'I' for Inactive)
REMARK    1  A    between atoms: C3_3  and  O1_4 
REMARK    2  A    between atoms: C4_6  and  O2_7 
REMARK    3  A    between atoms: C5_9  and  O3_10 
REMARK    4  A    between atoms: N1_12  and  C6_13 
REMARK    5  A    between atoms: C6_13  and  C7_14 
REMARK    6  A    between atoms: C7_14  and  C8_15 
REMARK    7  A    between atoms: C8_15  and  C9_16 
REMARK    8  A    between atoms: C9_16  and  N2_17 
REMARK    9  A    between atoms: C15_23  and  C16_24 
ROOT
HETATM    1  C6  UNL     1      50.710  21.957  14.500  1.00  0.00     0.276 C 
ENDROOT
BRANCH   1   2
HETATM    2  N1  UNL     1      50.625  20.931  13.524  1.00  0.00     0.126 N 
HETATM    3  C2  UNL     1      51.892  20.600  12.897  1.00  0.00     0.253 C 
HETATM    4  C1  UNL     1      52.568  21.797  12.328  1.00  0.00     0.046 C 
HETATM    5  C3  UNL     1      51.448  19.575  11.888  1.00  0.00     0.184 C 
HETATM    6  C4  UNL     1      50.413  18.801  12.717  1.00  0.00     0.208 C 
HETATM    7  C5  UNL     1      50.161  19.657  13.958  1.00  0.00     0.388 C 
BRANCH   5   8
HETATM    8  O1  UNL     1      50.787  20.205  10.854  1.00  0.00    -0.391 OA
ATOM      9  H1  UNL     1      49.856  20.028  10.918  1.00  0.00     0.210 HD
ENDBRANCH   5   8
BRANCH   6  10
HETATM   10  O2  UNL     1      50.952  17.577  13.026  1.00  0.00    -0.388 OA
ATOM     11  H2  UNL     1      50.785  16.993  12.296  1.00  0.00     0.210 HD
ENDBRANCH   6  10
BRANCH   7  12
HETATM   12  O3  UNL     1      50.926  19.107  14.980  1.00  0.00    -0.366 OA
ATOM     13  H3  UNL     1      51.617  19.732  15.167  1.00  0.00     0.212 HD
ENDBRANCH   7  12
ENDBRANCH   1   2
BRANCH   1  14
HETATM   14  C7  UNL     1      49.339  22.146  15.124  1.00  0.00     0.032 C 
BRANCH  14  15
HETATM   15  C8  UNL     1      48.944  23.605  15.079  1.00  0.00     0.021 C 
BRANCH  15  16
HETATM   16  C9  UNL     1      50.086  24.459  15.580  1.00  0.00     0.118 C 
BRANCH  16  17
HETATM   17  N2  UNL     1      49.814  25.871  15.430  1.00  0.00    -0.399 N 
HETATM   18  C10 UNL     1      50.920  26.607  14.937  1.00  0.00     0.118 C 
HETATM   19  C11 UNL     1      50.976  28.057  15.377  1.00  0.00     0.019 C 
HETATM   20  C12 UNL     1      50.267  28.855  14.273  1.00  0.00     0.002 C 
HETATM   21  C13 UNL     1      48.789  28.594  14.462  1.00  0.00     0.002 C 
HETATM   22  C14 UNL     1      48.503  27.237  13.864  1.00  0.00     0.036 C 
HETATM   23  C15 UNL     1      48.537  26.141  14.899  1.00  0.00     0.181 C 
BRANCH  23  24
HETATM   24  C16 UNL     1      47.595  26.534  16.006  1.00  0.00     0.196 C 
HETATM   25  O4  UNL     1      47.979  26.535  17.208  1.00  0.00    -0.646 OA
HETATM   26  O5  UNL     1      46.285  26.904  15.754  1.00  0.00    -0.646 OA
ENDBRANCH  23  24
ENDBRANCH  16  17
ENDBRANCH  15  16
ENDBRANCH  14  15
ENDBRANCH   1  14
TORSDOF 9
ENDMDL
MODEL 2
REMARK VINA RESULT: -7.445954416      1.082      2.248
REMARK  9 active torsions:
REMARK  status: ('A' for Active; 'I' for Inactive)
REMARK    1  A    between atoms: C3_3  and  O1_4 
REMARK    2  A    between atoms: C4_6  and  O2_7 
REMARK    3  A    between atoms: C5_9  and  O3_10 
REMARK    4  A    between atoms: N1_12  and  C6_13 
REMARK    5  A    between atoms: C6_13  and  C7_14 
REMARK    6  A    between atoms: C7_14  and  C8_15 
REMARK    7  A    between atoms: C8_15  and  C9_16 
REMARK    8  A    between atoms: C9_16  and  N2_17 
REMARK    9  A    between atoms: C15_23  and  C16_24 
ROOT
HETATM    1  C6  UNL     1      51.506  22.941  13.839  1.00  0.00     0.276 C 
ENDROOT
BRANCH   1   2
HETATM    2  N1  UNL     1      51.412  21.582  14.233  1.00  0.00     0.126 N 
HETATM    3  C2  UNL     1      50.053  21.089  14.355  1.00  0.00     0.253 C 
HETATM    4  C1  UNL     1      49.222  21.943  15.248  1.00  0.00     0.046 C 
HETATM    5  C3  UNL     1      50.303  19.692  14.856  1.00  0.00     0.184 C 
HETATM    6  C4  UNL     1      51.523  19.309  14.007  1.00  0.00     0.208 C 
HETATM    7  C5  UNL     1      52.009  20.614  13.378  1.00  0.00     0.388 C 
BRANCH   5   8
HETATM    8  O1  UNL     1      50.694  19.741  16.177  1.00  0.00    -0.391 OA
ATOM      9  H1  UNL     1      51.408  19.129  16.319  1.00  0.00     0.210 HD
ENDBRANCH   5   8
BRANCH   6  10
HETATM   10  O2  UNL     1      51.112  18.395  13.068  1.00  0.00    -0.388 OA
ATOM     11  H2  UNL     1      50.979  18.860  12.250  1.00  0.00     0.210 HD
ENDBRANCH   6  10
BRANCH   7  12
HETATM   12  O3  UNL     1      51.510  20.638  12.081  1.00  0.00    -0.366 OA
ATOM     13  H3  UNL     1      51.441  21.553  11.834  1.00  0.00     0.212 HD
ENDBRANCH   7  12
ENDBRANCH   1   2
BRANCH   1  14
HETATM   14  C7  UNL     1      52.331  23.689  14.871  1.00  0.00     0.032 C 
BRANCH  14  15
HETATM   15  C8  UNL     1      51.898  25.137  14.934  1.00  0.00     0.021 C 
BRANCH  15  16
HETATM   16  C9  UNL     1      50.433  25.215  15.294  1.00  0.00     0.118 C 
BRANCH  16  17
HETATM   17  N2  UNL     1      49.882  26.529  15.047  1.00  0.00    -0.399 N 
HETATM   18  C10 UNL     1      50.769  27.389  14.354  1.00  0.00     0.118 C 
HETATM   19  C11 UNL     1      50.593  28.867  14.646  1.00  0.00     0.019 C 
HETATM   20  C12 UNL     1      49.634  29.392  13.568  1.00  0.00     0.002 C 
HETATM   21  C13 UNL     1      48.261  28.893  13.961  1.00  0.00     0.002 C 
HETATM   22  C14 UNL     1      48.179  27.448  13.533  1.00  0.00     0.036 C 
HETATM   23  C15 UNL     1      48.529  26.502  14.654  1.00  0.00     0.181 C 
BRANCH  23  24
HETATM   24  C16 UNL     1      47.649  26.845  15.826  1.00  0.00     0.196 C 
HETATM   25  O4  UNL     1      48.147  27.043  16.969  1.00  0.00    -0.646 OA
HETATM   26  O5  UNL     1      46.274  26.956  15.702  1.00  0.00    -0.646 OA
ENDBRANCH  23  24
ENDBRANCH  16  17
ENDBRANCH  15  16
ENDBRANCH  14  15
ENDBRANCH   1  14
TORSDOF 9
ENDMDL
MODEL 3
REMARK VINA RESULT: -7.275822835      2.057      7.632
REMARK  9 active torsions:
REMARK  status: ('A' for Active; 'I' for Inactive)
REMARK    1  A    between atoms: C3_3  and  O1_4 
REMARK    2  A    between atoms: C4_6  and  O2_7 
REMARK    3  A    between atoms: C5_9  and  O3_10 
REMARK    4  A    between atoms: N1_12  and  C6_13 
REMARK    5  A    between atoms: C6_13  and  C7_14 
REMARK    6  A    between atoms: C7_14  and  C8_15 
REMARK    7  A    between atoms: C8_15  and  C9_16 
REMARK    8  A    between atoms: C9_16  and  N2_17 
REMARK    9  A    between atoms: C15_23  and  C16_24 
ROOT
HETATM    1  C6  UNL     1      49.575  25.846  15.409  1.00  0.00     0.276 C 
ENDROOT
BRANCH   1   2
HETATM    2  N1  UNL     1      49.007  26.825  14.554  1.00  0.00     0.126 N 
HETATM    3  C2  UNL     1      48.059  27.709  15.207  1.00  0.00     0.253 C 
HETATM    4  C1  UNL     1      46.987  26.959  15.917  1.00  0.00     0.046 C 
HETATM    5  C3  UNL     1      47.596  28.538  14.041  1.00  0.00     0.184 C 
HETATM    6  C4  UNL     1      48.924  28.732  13.295  1.00  0.00     0.208 C 
HETATM    7  C5  UNL     1      49.899  27.743  13.933  1.00  0.00     0.388 C 
BRANCH   5   8
HETATM    8  O1  UNL     1      46.760  27.784  13.244  1.00  0.00    -0.391 OA
ATOM      9  H1  UNL     1      45.915  27.691  13.670  1.00  0.00     0.210 HD
ENDBRANCH   5   8
BRANCH   6  10
HETATM   10  O2  UNL     1      49.315  30.037  13.465  1.00  0.00    -0.388 OA
ATOM     11  H2  UNL     1      50.113  30.036  13.980  1.00  0.00     0.210 HD
ENDBRANCH   6  10
BRANCH   7  12
HETATM   12  O3  UNL     1      50.664  28.470  14.838  1.00  0.00    -0.366 OA
ATOM     13  H3  UNL     1      51.011  27.844  15.463  1.00  0.00     0.212 HD
ENDBRANCH   7  12
ENDBRANCH   1   2
BRANCH   1  14
HETATM   14  C7  UNL     1      50.726  25.177  14.682  1.00  0.00     0.032 C 
BRANCH  14  15
HETATM   15  C8  UNL     1      50.951  23.785  15.232  1.00  0.00     0.021 C 
BRANCH  15  16
HETATM   16  C9  UNL     1      51.882  23.020  14.321  1.00  0.00     0.118 C 
BRANCH  16  17
HETATM   17  N2  UNL     1      51.285  21.794  13.841  1.00  0.00    -0.399 N 
HETATM   18  C10 UNL     1      52.135  21.052  12.985  1.00  0.00     0.118 C 
HETATM   19  C11 UNL     1      51.424  20.198  11.953  1.00  0.00     0.019 C 
HETATM   20  C12 UNL     1      51.271  18.812  12.595  1.00  0.00     0.002 C 
HETATM   21  C13 UNL     1      50.161  18.951  13.613  1.00  0.00     0.002 C 
HETATM   22  C14 UNL     1      50.762  19.607  14.832  1.00  0.00     0.036 C 
HETATM   23  C15 UNL     1      50.561  21.101  14.832  1.00  0.00     0.181 C 
BRANCH  23  24
HETATM   24  C16 UNL     1      49.087  21.358  14.661  1.00  0.00     0.196 C 
HETATM   25  O4  UNL     1      48.552  21.303  13.520  1.00  0.00    -0.646 OA
HETATM   26  O5  UNL     1      48.268  21.663  15.736  1.00  0.00    -0.646 OA
ENDBRANCH  23  24
ENDBRANCH  16  17
ENDBRANCH  15  16
ENDBRANCH  14  15
ENDBRANCH   1  14
TORSDOF 9
ENDMDL
MODEL 4
REMARK VINA RESULT: -7.266621211      1.007      2.004
REMARK  9 active torsions:
REMARK  status: ('A' for Active; 'I' for Inactive)
REMARK    1  A    between atoms: C3_3  and  O1_4 
REMARK    2  A    between atoms: C4_6  and  O2_7 
REMARK    3  A    between atoms: C5_9  and  O3_10 
REMARK    4  A    between atoms: N1_12  and  C6_13 
REMARK    5  A    between atoms: C6_13  and  C7_14 
REMARK    6  A    between atoms: C7_14  and  C8_15 
REMARK    7  A    between atoms: C8_15  and  C9_16 
REMARK    8  A    between atoms: C9_16  and  N2_17 
REMARK    9  A    between atoms: C15_23  and  C16_24 
ROOT
HETATM    1  C6  UNL     1      51.897  21.730  14.807  1.00  0.00     0.276 C 
ENDROOT
BRANCH   1   2
HETATM    2  N1  UNL     1      51.761  20.761  13.780  1.00  0.00     0.126 N 
HETATM    3  C2  UNL     1      50.451  20.735  13.155  1.00  0.00     0.253 C 
HETATM    4  C1  UNL     1      49.356  20.587  14.152  1.00  0.00     0.046 C 
HETATM    5  C3  UNL     1      50.614  19.579  12.206  1.00  0.00     0.184 C 
HETATM    6  C4  UNL     1      52.046  19.827  11.712  1.00  0.00     0.208 C 
HETATM    7  C5  UNL     1      52.629  20.877  12.657  1.00  0.00     0.388 C 
BRANCH   5   8
HETATM    8  O1  UNL     1      50.602  18.397  12.916  1.00  0.00    -0.391 OA
ATOM      9  H1  UNL     1      51.097  17.738  12.442  1.00  0.00     0.210 HD
ENDBRANCH   5   8
BRANCH   6  10
HETATM   10  O2  UNL     1      51.972  20.273  10.415  1.00  0.00    -0.388 OA
ATOM     11  H2  UNL     1      51.110  20.054  10.081  1.00  0.00     0.210 HD
ENDBRANCH   6  10
BRANCH   7  12
HETATM   12  O3  UNL     1      52.527  22.099  12.002  1.00  0.00    -0.366 OA
ATOM     13  H3  UNL     1      53.396  22.484  12.010  1.00  0.00     0.212 HD
ENDBRANCH   7  12
ENDBRANCH   1   2
BRANCH   1  14
HETATM   14  C7  UNL     1      51.701  23.108  14.202  1.00  0.00     0.032 C 
BRANCH  14  15
HETATM   15  C8  UNL     1      51.491  24.132  15.296  1.00  0.00     0.021 C 
BRANCH  15  16
HETATM   16  C9  UNL     1      50.021  24.464  15.407  1.00  0.00     0.118 C 
BRANCH  16  17
HETATM   17  N2  UNL     1      49.779  25.887  15.325  1.00  0.00    -0.399 N 
HETATM   18  C10 UNL     1      50.900  26.623  14.868  1.00  0.00     0.118 C 
HETATM   19  C11 UNL     1      50.985  28.049  15.377  1.00  0.00     0.019 C 
HETATM   20  C12 UNL     1      50.294  28.913  14.312  1.00  0.00     0.002 C 
HETATM   21  C13 UNL     1      48.811  28.673  14.488  1.00  0.00     0.002 C 
HETATM   22  C14 UNL     1      48.498  27.352  13.826  1.00  0.00     0.036 C 
HETATM   23  C15 UNL     1      48.508  26.208  14.807  1.00  0.00     0.181 C 
BRANCH  23  24
HETATM   24  C16 UNL     1      47.573  26.567  15.931  1.00  0.00     0.196 C 
HETATM   25  O4  UNL     1      47.969  26.547  17.129  1.00  0.00    -0.646 OA
HETATM   26  O5  UNL     1      46.256  26.928  15.701  1.00  0.00    -0.646 OA
ENDBRANCH  23  24
ENDBRANCH  16  17
ENDBRANCH  15  16
ENDBRANCH  14  15
ENDBRANCH   1  14
TORSDOF 9
ENDMDL
MODEL 5
REMARK VINA RESULT: -7.208720599      1.780      7.892
REMARK  9 active torsions:
REMARK  status: ('A' for Active; 'I' for Inactive)
REMARK    1  A    between atoms: C3_3  and  O1_4 
REMARK    2  A    between atoms: C4_6  and  O2_7 
REMARK    3  A    between atoms: C5_9  and  O3_10 
REMARK    4  A    between atoms: N1_12  and  C6_13 
REMARK    5  A    between atoms: C6_13  and  C7_14 
REMARK    6  A    between atoms: C7_14  and  C8_15 
REMARK    7  A    between atoms: C8_15  and  C9_16 
REMARK    8  A    between atoms: C9_16  and  N2_17 
REMARK    9  A    between atoms: C15_23  and  C16_24 
ROOT
HETATM    1  C6  UNL     1      48.758  25.094  15.954  1.00  0.00     0.276 C 
ENDROOT
BRANCH   1   2
HETATM    2  N1  UNL     1      48.603  26.191  15.068  1.00  0.00     0.126 N 
HETATM    3  C2  UNL     1      47.885  27.318  15.635  1.00  0.00     0.253 C 
HETATM    4  C1  UNL     1      46.566  26.919  16.197  1.00  0.00     0.046 C 
HETATM    5  C3  UNL     1      47.823  28.239  14.447  1.00  0.00     0.184 C 
HETATM    6  C4  UNL     1      49.227  28.031  13.862  1.00  0.00     0.208 C 
HETATM    7  C5  UNL     1      49.790  26.805  14.579  1.00  0.00     0.388 C 
BRANCH   5   8
HETATM    8  O1  UNL     1      46.902  27.758  13.540  1.00  0.00    -0.391 OA
ATOM      9  H1  UNL     1      47.030  28.186  12.701  1.00  0.00     0.210 HD
ENDBRANCH   5   8
BRANCH   6  10
HETATM   10  O2  UNL     1      49.958  29.166  14.112  1.00  0.00    -0.388 OA
ATOM     11  H2  UNL     1      50.564  29.286  13.390  1.00  0.00     0.210 HD
ENDBRANCH   6  10
BRANCH   7  12
HETATM   12  O3  UNL     1      50.623  27.282  15.584  1.00  0.00    -0.366 OA
ATOM     13  H3  UNL     1      50.203  28.059  15.937  1.00  0.00     0.212 HD
ENDBRANCH   7  12
ENDBRANCH   1   2
BRANCH   1  14
HETATM   14  C7  UNL     1      48.873  23.822  15.135  1.00  0.00     0.032 C 
BRANCH  14  15
HETATM   15  C8  UNL     1      50.012  22.972  15.652  1.00  0.00     0.021 C 
BRANCH  15  16
HETATM   16  C9  UNL     1      50.990  22.694  14.535  1.00  0.00     0.118 C 
BRANCH  16  17
HETATM   17  N2  UNL     1      51.131  21.278  14.276  1.00  0.00    -0.399 N 
HETATM   18  C10 UNL     1      50.715  20.464  15.359  1.00  0.00     0.118 C 
HETATM   19  C11 UNL     1      51.419  19.125  15.465  1.00  0.00     0.019 C 
HETATM   20  C12 UNL     1      50.537  18.129  14.699  1.00  0.00     0.002 C 
HETATM   21  C13 UNL     1      50.769  18.418  13.233  1.00  0.00     0.002 C 
HETATM   22  C14 UNL     1      49.944  19.635  12.888  1.00  0.00     0.036 C 
HETATM   23  C15 UNL     1      50.746  20.909  12.972  1.00  0.00     0.181 C 
BRANCH  23  24
HETATM   24  C16 UNL     1      51.967  20.732  12.109  1.00  0.00     0.196 C 
HETATM   25  O4  UNL     1      53.117  20.993  12.559  1.00  0.00    -0.646 OA
HETATM   26  O5  UNL     1      51.880  20.282  10.802  1.00  0.00    -0.646 OA
ENDBRANCH  23  24
ENDBRANCH  16  17
ENDBRANCH  15  16
ENDBRANCH  14  15
ENDBRANCH   1  14
TORSDOF 9
ENDMDL
