MODEL 1
REMARK VINA RESULT: -7.189958629      0.000      0.000
REMARK  9 active torsions:
REMARK  status: ('A' for Active; 'I' for Inactive)
REMARK    1  A    between atoms: C2_2  and  C4_4 
REMARK    2  A    between atoms: C4_4  and  C5_5 
REMARK    3  A    between atoms: C5_5  and  N1_6 
REMARK    4  A    between atoms: C5_5  and  C12_20 
REMARK    5  A    between atoms: N1_6  and  O1_8 
REMARK    6  A    between atoms: O1_8  and  C6_9 
REMARK    7  A    between atoms: C8_11  and  O2_12 
REMARK    8  A    between atoms: C9_14  and  O3_15 
REMARK       I    between atoms: C12_20  and  N2_22 
REMARK    9  A    between atoms: N2_22  and  C13_24 
ROOT
HETATM    1  N1  UNL     1      47.950  25.967  14.560  1.00  0.00    -0.263 N 
ATOM      2  H1  UNL     1      47.286  25.535  13.916  1.00  0.00     0.194 HD
ENDROOT
BRANCH   1   3
HETATM    3  C5  UNL     1      48.072  27.367  14.690  1.00  0.00     0.100 C 
BRANCH   3   4
HETATM    4  C4  UNL     1      49.161  27.813  15.553  1.00  0.00     0.069 C 
BRANCH   4   5
HETATM    5  C2  UNL     1      50.454  28.074  14.856  1.00  0.00    -0.017 C 
HETATM    6  C1  UNL     1      51.627  27.993  15.858  1.00  0.00     0.010 C 
HETATM    7  C3  UNL     1      50.633  29.362  14.147  1.00  0.00     0.010 C 
ENDBRANCH   4   5
ENDBRANCH   3   4
BRANCH   3   8
HETATM    8  C12 UNL     1      47.765  28.073  13.461  1.00  0.00     0.266 C 
HETATM    9  O5  UNL     1      47.084  29.144  13.565  1.00  0.00    -0.266 OA
HETATM   10  N2  UNL     1      48.140  27.702  12.149  1.00  0.00    -0.348 N 
ATOM     11  H2  UNL     1      48.682  26.847  12.030  1.00  0.00     0.163 HD
BRANCH  10  12
HETATM   12  C13 UNL     1      47.808  28.447  10.989  1.00  0.00     0.022 C 
HETATM   13  C14 UNL     1      48.585  29.777  10.970  1.00  0.00     0.037 C 
HETATM   14  C15 UNL     1      48.188  27.701   9.728  1.00  0.00     0.037 C 
HETATM   15  C16 UNL     1      46.360  28.836  10.853  1.00  0.00     0.037 C 
ENDBRANCH  10  12
ENDBRANCH   3   8
ENDBRANCH   1   3
BRANCH   1  16
HETATM   16  O1  UNL     1      48.735  25.269  15.311  1.00  0.00    -0.247 OA
BRANCH  16  17
HETATM   17  C6  UNL     1      49.562  24.307  14.898  1.00  0.00     0.291 C 
HETATM   18  C7  UNL     1      50.863  24.280  15.714  1.00  0.00     0.097 C 
HETATM   19  C8  UNL     1      51.892  23.580  14.862  1.00  0.00     0.154 C 
HETATM   20  C9  UNL     1      51.145  22.459  14.150  1.00  0.00     0.175 C 
HETATM   21  C10 UNL     1      49.957  22.039  14.968  1.00  0.00     0.152 C 
HETATM   22  C11 UNL     1      49.377  20.773  14.383  1.00  0.00     0.042 C 
HETATM   23  O4  UNL     1      48.992  23.012  15.036  1.00  0.00    -0.351 OA
BRANCH  19  24
HETATM   24  O2  UNL     1      52.451  24.471  13.965  1.00  0.00    -0.393 OA
ATOM     25  H2  UNL     1      52.216  24.231  13.077  1.00  0.00     0.210 HD
ENDBRANCH  19  24
BRANCH  20  26
HETATM   26  O3  UNL     1      52.054  21.394  14.078  1.00  0.00    -0.390 OA
ATOM     27  H3  UNL     1      52.409  21.307  14.954  1.00  0.00     0.210 HD
ENDBRANCH  20  26
ENDBRANCH  16  17
ENDBRANCH   1  16
TORSDOF 9
ENDMDL
MODEL 2
REMARK VINA RESULT: -7.106912659      1.890      6.608
REMARK  9 active torsions:
REMARK  status: ('A' for Active; 'I' for Inactive)
REMARK    1  A    between atoms: C2_2  and  C4_4 
REMARK    2  A    between atoms: C4_4  and  C5_5 
REMARK    3  A    between atoms: C5_5  and  N1_6 
REMARK    4  A    between atoms: C5_5  and  C12_20 
REMARK    5  A    between atoms: N1_6  and  O1_8 
REMARK    6  A    between atoms: O1_8  and  C6_9 
REMARK    7  A    between atoms: C8_11  and  O2_12 
REMARK    8  A    between atoms: C9_14  and  O3_15 
REMARK       I    between atoms: C12_20  and  N2_22 
REMARK    9  A    between atoms: N2_22  and  C13_24 
ROOT
HETATM    1  N1  UNL     1      47.695  26.687  13.507  1.00  0.00    -0.263 N 
ATOM      2  H1  UNL     1      47.320  25.879  13.011  1.00  0.00     0.194 HD
ENDROOT
BRANCH   1   3
HETATM    3  C5  UNL     1      48.751  26.578  14.436  1.00  0.00     0.100 C 
BRANCH   3   4
HETATM    4  C4  UNL     1      48.889  27.708  15.349  1.00  0.00     0.069 C 
BRANCH   4   5
HETATM    5  C2  UNL     1      50.223  28.374  15.335  1.00  0.00    -0.017 C 
HETATM    6  C1  UNL     1      50.416  29.158  14.018  1.00  0.00     0.010 C 
HETATM    7  C3  UNL     1      51.438  27.537  15.474  1.00  0.00     0.010 C 
ENDBRANCH   4   5
ENDBRANCH   3   4
BRANCH   3   8
HETATM    8  C12 UNL     1      48.946  25.220  14.906  1.00  0.00     0.266 C 
HETATM    9  O5  UNL     1      48.169  24.810  15.828  1.00  0.00    -0.266 OA
HETATM   10  N2  UNL     1      49.913  24.293  14.454  1.00  0.00    -0.348 N 
ATOM     11  H2  UNL     1      50.555  24.590  13.720  1.00  0.00     0.163 HD
BRANCH  10  12
HETATM   12  C13 UNL     1      50.044  22.974  14.957  1.00  0.00     0.022 C 
HETATM   13  C14 UNL     1      51.075  22.187  14.125  1.00  0.00     0.037 C 
HETATM   14  C15 UNL     1      50.544  22.975  16.385  1.00  0.00     0.037 C 
HETATM   15  C16 UNL     1      48.793  22.134  14.927  1.00  0.00     0.037 C 
ENDBRANCH  10  12
ENDBRANCH   3   8
ENDBRANCH   1   3
BRANCH   1  16
HETATM   16  O1  UNL     1      47.234  27.880  13.329  1.00  0.00    -0.247 OA
BRANCH  16  17
HETATM   17  C6  UNL     1      47.229  28.553  12.177  1.00  0.00     0.291 C 
HETATM   18  C7  UNL     1      48.272  28.008  11.190  1.00  0.00     0.097 C 
HETATM   19  C8  UNL     1      48.557  29.117  10.208  1.00  0.00     0.154 C 
HETATM   20  C9  UNL     1      47.219  29.802   9.959  1.00  0.00     0.175 C 
HETATM   21  C10 UNL     1      46.098  28.829  10.190  1.00  0.00     0.152 C 
HETATM   22  C11 UNL     1      44.805  29.440   9.701  1.00  0.00     0.042 C 
HETATM   23  O4  UNL     1      45.979  28.465  11.507  1.00  0.00    -0.351 OA
BRANCH  19  24
HETATM   24  O2  UNL     1      49.488  29.991  10.737  1.00  0.00    -0.393 OA
ATOM     25  H2  UNL     1      49.715  30.654  10.096  1.00  0.00     0.210 HD
ENDBRANCH  19  24
BRANCH  20  26
HETATM   26  O3  UNL     1      47.237  30.171   8.607  1.00  0.00    -0.390 OA
ATOM     27  H3  UNL     1      47.189  31.120   8.605  1.00  0.00     0.210 HD
ENDBRANCH  20  26
ENDBRANCH  16  17
ENDBRANCH   1  16
TORSDOF 9
ENDMDL
MODEL 3
REMARK VINA RESULT: -7.076787012      2.073      6.517
REMARK  9 active torsions:
REMARK  status: ('A' for Active; 'I' for Inactive)
REMARK    1  A    between atoms: C2_2  and  C4_4 
REMARK    2  A    between atoms: C4_4  and  C5_5 
REMARK    3  A    between atoms: C5_5  and  N1_6 
REMARK    4  A    between atoms: C5_5  and  C12_20 
REMARK    5  A    between atoms: N1_6  and  O1_8 
REMARK    6  A    between atoms: O1_8  and  C6_9 
REMARK    7  A    between atoms: C8_11  and  O2_12 
REMARK    8  A    between atoms: C9_14  and  O3_15 
REMARK       I    between atoms: C12_20  and  N2_22 
REMARK    9  A    between atoms: N2_22  and  C13_24 
ROOT
HETATM    1  N1  UNL     1      48.071  25.061  15.291  1.00  0.00    -0.263 N 
ATOM      2  H1  UNL     1      47.275  24.431  15.387  1.00  0.00     0.194 HD
ENDROOT
BRANCH   1   3
HETATM    3  C5  UNL     1      49.391  24.590  15.122  1.00  0.00     0.100 C 
BRANCH   3   4
HETATM    4  C4  UNL     1      50.392  25.248  15.955  1.00  0.00     0.069 C 
BRANCH   4   5
HETATM    5  C2  UNL     1      51.492  25.923  15.208  1.00  0.00    -0.017 C 
HETATM    6  C1  UNL     1      52.813  25.141  15.380  1.00  0.00     0.010 C 
HETATM    7  C3  UNL     1      51.822  27.328  15.542  1.00  0.00     0.010 C 
ENDBRANCH   4   5
ENDBRANCH   3   4
BRANCH   3   8
HETATM    8  C12 UNL     1      49.449  23.160  14.886  1.00  0.00     0.266 C 
HETATM    9  O5  UNL     1      48.361  22.509  15.009  1.00  0.00    -0.266 OA
HETATM   10  N2  UNL     1      50.588  22.401  14.534  1.00  0.00    -0.348 N 
ATOM     11  H2  UNL     1      51.477  22.890  14.433  1.00  0.00     0.163 HD
BRANCH  10  12
HETATM   12  C13 UNL     1      50.571  21.000  14.312  1.00  0.00     0.022 C 
HETATM   13  C14 UNL     1      51.809  20.576  13.500  1.00  0.00     0.037 C 
HETATM   14  C15 UNL     1      50.622  20.235  15.617  1.00  0.00     0.037 C 
HETATM   15  C16 UNL     1      49.393  20.475  13.536  1.00  0.00     0.037 C 
ENDBRANCH  10  12
ENDBRANCH   3   8
ENDBRANCH   1   3
BRANCH   1  16
HETATM   16  O1  UNL     1      47.940  26.346  15.315  1.00  0.00    -0.247 OA
BRANCH  16  17
HETATM   17  C6  UNL     1      48.049  27.164  14.267  1.00  0.00     0.291 C 
HETATM   18  C7  UNL     1      46.747  27.936  14.005  1.00  0.00     0.097 C 
HETATM   19  C8  UNL     1      46.789  28.375  12.563  1.00  0.00     0.154 C 
HETATM   20  C9  UNL     1      48.239  28.755  12.289  1.00  0.00     0.175 C 
HETATM   21  C10 UNL     1      48.902  29.184  13.566  1.00  0.00     0.152 C 
HETATM   22  C11 UNL     1      50.248  29.791  13.244  1.00  0.00     0.042 C 
HETATM   23  O4  UNL     1      49.052  28.151  14.456  1.00  0.00    -0.351 OA
BRANCH  19  24
HETATM   24  O2  UNL     1      46.366  27.347  11.741  1.00  0.00    -0.393 OA
ATOM     25  H2  UNL     1      46.887  27.328  10.947  1.00  0.00     0.210 HD
ENDBRANCH  19  24
BRANCH  20  26
HETATM   26  O3  UNL     1      48.178  29.846  11.412  1.00  0.00    -0.390 OA
ATOM     27  H3  UNL     1      48.814  29.658  10.732  1.00  0.00     0.210 HD
ENDBRANCH  20  26
ENDBRANCH  16  17
ENDBRANCH   1  16
TORSDOF 9
ENDMDL
MODEL 4
REMARK VINA RESULT: -6.997251948      2.199      6.581
REMARK  9 active torsions:
REMARK  status: ('A' for Active; 'I' for Inactive)
REMARK    1  A    between atoms: C2_2  and  C4_4 
REMARK    2  A    between atoms: C4_4  and  C5_5 
REMARK    3  A    between atoms: C5_5  and  N1_6 
REMARK    4  A    between atoms: C5_5  and  C12_20 
REMARK    5  A    between atoms: N1_6  and  O1_8 
REMARK    6  A    between atoms: O1_8  and  C6_9 
REMARK    7  A    between atoms: C8_11  and  O2_12 
REMARK    8  A    between atoms: C9_14  and  O3_15 
REMARK       I    between atoms: C12_20  and  N2_22 
REMARK    9  A    between atoms: N2_22  and  C13_24 
ROOT
HETATM    1  N1  UNL     1      48.403  25.842  15.677  1.00  0.00    -0.263 N 
ATOM      2  H1  UNL     1      47.692  25.399  16.260  1.00  0.00     0.194 HD
ENDROOT
BRANCH   1   3
HETATM    3  C5  UNL     1      49.429  25.106  15.048  1.00  0.00     0.100 C 
BRANCH   3   4
HETATM    4  C4  UNL     1      50.765  25.678  15.175  1.00  0.00     0.069 C 
BRANCH   4   5
HETATM    5  C2  UNL     1      51.883  24.692  15.131  1.00  0.00    -0.017 C 
HETATM    6  C1  UNL     1      53.109  25.240  15.895  1.00  0.00     0.010 C 
HETATM    7  C3  UNL     1      52.403  24.264  13.812  1.00  0.00     0.010 C 
ENDBRANCH   4   5
ENDBRANCH   3   4
BRANCH   3   8
HETATM    8  C12 UNL     1      49.227  23.673  15.139  1.00  0.00     0.266 C 
HETATM    9  O5  UNL     1      48.360  23.263  15.977  1.00  0.00    -0.266 OA
HETATM   10  N2  UNL     1      49.892  22.669  14.397  1.00  0.00    -0.348 N 
ATOM     11  H2  UNL     1      50.597  22.962  13.721  1.00  0.00     0.163 HD
BRANCH  10  12
HETATM   12  C13 UNL     1      49.639  21.281  14.535  1.00  0.00     0.022 C 
HETATM   13  C14 UNL     1      50.198  20.516  13.320  1.00  0.00     0.037 C 
HETATM   14  C15 UNL     1      50.323  20.715  15.760  1.00  0.00     0.037 C 
HETATM   15  C16 UNL     1      48.188  20.885  14.615  1.00  0.00     0.037 C 
ENDBRANCH  10  12
ENDBRANCH   3   8
ENDBRANCH   1   3
BRANCH   1  16
HETATM   16  O1  UNL     1      48.424  27.116  15.465  1.00  0.00    -0.247 OA
BRANCH  16  17
HETATM   17  C6  UNL     1      48.344  27.713  14.275  1.00  0.00     0.291 C 
HETATM   18  C7  UNL     1      46.957  28.328  14.035  1.00  0.00     0.097 C 
HETATM   19  C8  UNL     1      46.802  28.472  12.541  1.00  0.00     0.154 C 
HETATM   20  C9  UNL     1      48.174  28.885  12.022  1.00  0.00     0.175 C 
HETATM   21  C10 UNL     1      48.931  29.605  13.100  1.00  0.00     0.152 C 
HETATM   22  C11 UNL     1      50.174  30.223  12.504  1.00  0.00     0.042 C 
HETATM   23  O4  UNL     1      49.269  28.783  14.146  1.00  0.00    -0.351 OA
BRANCH  19  24
HETATM   24  O2  UNL     1      46.386  27.275  11.990  1.00  0.00    -0.393 OA
ATOM     25  H2  UNL     1      46.040  26.706  12.667  1.00  0.00     0.210 HD
ENDBRANCH  19  24
BRANCH  20  26
HETATM   26  O3  UNL     1      47.919  29.772  10.967  1.00  0.00    -0.390 OA
ATOM     27  H3  UNL     1      48.705  29.760  10.433  1.00  0.00     0.210 HD
ENDBRANCH  20  26
ENDBRANCH  16  17
ENDBRANCH   1  16
TORSDOF 9
ENDMDL
MODEL 5
REMARK VINA RESULT: -6.896170589      1.962      6.875
REMARK  9 active torsions:
REMARK  status: ('A' for Active; 'I' for Inactive)
REMARK    1  A    between atoms: C2_2  and  C4_4 
REMARK    2  A    between atoms: C4_4  and  C5_5 
REMARK    3  A    between atoms: C5_5  and  N1_6 
REMARK    4  A    between atoms: C5_5  and  C12_20 
REMARK    5  A    between atoms: N1_6  and  O1_8 
REMARK    6  A    between atoms: O1_8  and  C6_9 
REMARK    7  A    between atoms: C8_11  and  O2_12 
REMARK    8  A    between atoms: C9_14  and  O3_15 
REMARK       I    between atoms: C12_20  and  N2_22 
REMARK    9  A    between atoms: N2_22  and  C13_24 
ROOT
HETATM    1  N1  UNL     1      49.681  26.812  13.553  1.00  0.00    -0.263 N 
ATOM      2  H1  UNL     1      50.047  26.295  12.753  1.00  0.00     0.194 HD
ENDROOT
BRANCH   1   3
HETATM    3  C5  UNL     1      49.953  26.430  14.885  1.00  0.00     0.100 C 
BRANCH   3   4
HETATM    4  C4  UNL     1      49.086  27.038  15.889  1.00  0.00     0.069 C 
BRANCH   4   5
HETATM    5  C2  UNL     1      47.804  26.316  16.137  1.00  0.00    -0.017 C 
HETATM    6  C1  UNL     1      46.612  27.293  16.032  1.00  0.00     0.010 C 
HETATM    7  C3  UNL     1      47.621  25.614  17.428  1.00  0.00     0.010 C 
ENDBRANCH   4   5
ENDBRANCH   3   4
BRANCH   3   8
HETATM    8  C12 UNL     1      50.357  25.043  14.999  1.00  0.00     0.266 C 
HETATM    9  O5  UNL     1      51.559  24.819  15.357  1.00  0.00    -0.266 OA
HETATM   10  N2  UNL     1      49.562  23.900  14.753  1.00  0.00    -0.348 N 
ATOM     11  H2  UNL     1      48.596  24.043  14.459  1.00  0.00     0.163 HD
BRANCH  10  12
HETATM   12  C13 UNL     1      50.024  22.567  14.890  1.00  0.00     0.022 C 
HETATM   13  C14 UNL     1      48.940  21.577  14.421  1.00  0.00     0.037 C 
HETATM   14  C15 UNL     1      51.245  22.315  14.033  1.00  0.00     0.037 C 
HETATM   15  C16 UNL     1      50.370  22.135  16.291  1.00  0.00     0.037 C 
ENDBRANCH  10  12
ENDBRANCH   3   8
ENDBRANCH   1   3
BRANCH   1  16
HETATM   16  O1  UNL     1      48.938  27.859  13.417  1.00  0.00    -0.247 OA
BRANCH  16  17
HETATM   17  C6  UNL     1      48.070  28.080  12.428  1.00  0.00     0.291 C 
HETATM   18  C7  UNL     1      46.829  28.843  12.915  1.00  0.00     0.097 C 
HETATM   19  C8  UNL     1      45.732  28.563  11.918  1.00  0.00     0.154 C 
HETATM   20  C9  UNL     1      46.411  28.540  10.554  1.00  0.00     0.175 C 
HETATM   21  C10 UNL     1      47.646  29.394  10.585  1.00  0.00     0.152 C 
HETATM   22  C11 UNL     1      48.165  29.564   9.176  1.00  0.00     0.042 C 
HETATM   23  O4  UNL     1      48.628  28.872  11.389  1.00  0.00    -0.351 OA
BRANCH  19  24
HETATM   24  O2  UNL     1      45.125  27.356  12.207  1.00  0.00    -0.393 OA
ATOM     25  H2  UNL     1      44.950  27.293  13.139  1.00  0.00     0.210 HD
ENDBRANCH  19  24
BRANCH  20  26
HETATM   26  O3  UNL     1      45.482  29.105   9.668  1.00  0.00    -0.390 OA
ATOM     27  H3  UNL     1      45.798  29.986   9.502  1.00  0.00     0.210 HD
ENDBRANCH  20  26
ENDBRANCH  16  17
ENDBRANCH   1  16
TORSDOF 9
ENDMDL
