MODEL 1
REMARK VINA RESULT: -7.129539894      0.000      0.000
REMARK  9 active torsions:
REMARK  status: ('A' for Active; 'I' for Inactive)
REMARK    1  A    between atoms: O1_2  and  C2_3 
REMARK    2  A    between atoms: C2_3  and  C3_5 
REMARK    3  A    between atoms: C3_5  and  N1_6 
REMARK    4  A    between atoms: C3_5  and  C6_11 
REMARK       I    between atoms: N1_6  and  C4_8 
REMARK    5  A    between atoms: C6_11  and  N2_12 
REMARK    6  A    between atoms: C6_11  and  C15_22 
REMARK    7  A    between atoms: N2_12  and  C7_14 
REMARK    8  A    between atoms: C15_22  and  O4_23 
REMARK    9  A    between atoms: N3_25  and  O5_27 
ROOT
HETATM    1  C6  UNL     1      48.581  25.466  14.417  1.00  0.00     0.186 C 
ENDROOT
BRANCH   1   2
HETATM    2  C3  UNL     1      48.768  26.727  13.671  1.00  0.00     0.214 C 
BRANCH   2   3
HETATM    3  C2  UNL     1      49.461  27.775  14.540  1.00  0.00     0.283 C 
HETATM    4  O2  UNL     1      50.155  27.390  15.510  1.00  0.00    -0.263 OA
BRANCH   3   5
HETATM    5  O1  UNL     1      49.364  29.114  14.325  1.00  0.00    -0.325 OA
HETATM    6  C1  UNL     1      50.066  29.820  13.317  1.00  0.00     0.213 C 
ENDBRANCH   3   5
ENDBRANCH   2   3
BRANCH   2   7
HETATM    7  N1  UNL     1      47.496  27.427  13.367  1.00  0.00    -0.345 N 
HETATM    8  C4  UNL     1      47.199  27.874  12.070  1.00  0.00     0.214 C 
HETATM    9  C5  UNL     1      45.933  28.571  11.769  1.00  0.00     0.117 C 
HETATM   10  O3  UNL     1      48.019  27.680  11.148  1.00  0.00    -0.274 OA
ATOM     11  H1  UNL     1      46.823  27.585  14.116  1.00  0.00     0.163 HD
ENDBRANCH   2   7
ENDBRANCH   1   2
BRANCH   1  12
HETATM   12  N2  UNL     1      49.546  24.526  14.663  1.00  0.00    -0.404 N 
ATOM     13  H2  UNL     1      50.314  24.591  13.995  1.00  0.00     0.154 HD
BRANCH  12  14
HETATM   14  C7  UNL     1      49.747  23.533  15.563  1.00  0.00     0.081 C 
HETATM   15  C8  UNL     1      48.850  22.328  15.564  1.00  0.00     0.025 C 
HETATM   16  C9  UNL     1      48.467  21.843  14.187  1.00  0.00     0.002 C 
HETATM   17  C10 UNL     1      49.515  20.784  13.811  1.00  0.00     0.000 C 
HETATM   18  C11 UNL     1      50.827  21.538  13.744  1.00  0.00     0.000 C 
HETATM   19  C12 UNL     1      51.480  21.760  15.058  1.00  0.00     0.006 C 
HETATM   20  C13 UNL     1      51.212  23.090  15.706  1.00  0.00     0.004 C 
HETATM   21  C14 UNL     1      52.176  24.100  15.189  1.00  0.00     0.012 C 
ENDBRANCH  12  14
ENDBRANCH   1  12
BRANCH   1  22
HETATM   22  C15 UNL     1      47.938  25.906  15.758  1.00  0.00     0.161 C 
HETATM   23  N3  UNL     1      48.323  25.434  16.863  1.00  0.00    -0.249 N 
ATOM     24  H3  UNL     1      49.074  24.745  16.902  1.00  0.00     0.196 HD
BRANCH  22  25
HETATM   25  O4  UNL     1      46.927  26.844  15.686  1.00  0.00    -0.346 OA
ATOM     26  H4  UNL     1      47.189  27.748  15.561  1.00  0.00     0.219 HD
ENDBRANCH  22  25
BRANCH  23  27
HETATM   27  O5  UNL     1      47.711  25.867  18.013  1.00  0.00    -0.288 OA
ATOM     28  H5  UNL     1      46.881  25.477  18.263  1.00  0.00     0.244 HD
ENDBRANCH  23  27
ENDBRANCH   1  22
TORSDOF 9
ENDMDL
MODEL 2
REMARK VINA RESULT: -6.925265581      1.645      3.011
REMARK  9 active torsions:
REMARK  status: ('A' for Active; 'I' for Inactive)
REMARK    1  A    between atoms: O1_2  and  C2_3 
REMARK    2  A    between atoms: C2_3  and  C3_5 
REMARK    3  A    between atoms: C3_5  and  N1_6 
REMARK    4  A    between atoms: C3_5  and  C6_11 
REMARK       I    between atoms: N1_6  and  C4_8 
REMARK    5  A    between atoms: C6_11  and  N2_12 
REMARK    6  A    between atoms: C6_11  and  C15_22 
REMARK    7  A    between atoms: N2_12  and  C7_14 
REMARK    8  A    between atoms: C15_22  and  O4_23 
REMARK    9  A    between atoms: N3_25  and  O5_27 
ROOT
HETATM    1  C6  UNL     1      49.757  26.877  15.500  1.00  0.00     0.186 C 
ENDROOT
BRANCH   1   2
HETATM    2  C3  UNL     1      48.614  27.580  14.882  1.00  0.00     0.214 C 
BRANCH   2   3
HETATM    3  C2  UNL     1      47.305  27.198  15.570  1.00  0.00     0.283 C 
HETATM    4  O2  UNL     1      46.372  28.034  15.598  1.00  0.00    -0.263 OA
BRANCH   3   5
HETATM    5  O1  UNL     1      47.091  25.993  16.162  1.00  0.00    -0.325 OA
HETATM    6  C1  UNL     1      47.388  25.697  17.515  1.00  0.00     0.213 C 
ENDBRANCH   3   5
ENDBRANCH   2   3
BRANCH   2   7
HETATM    7  N1  UNL     1      48.330  27.139  13.496  1.00  0.00    -0.345 N 
HETATM    8  C4  UNL     1      48.200  28.062  12.446  1.00  0.00     0.214 C 
HETATM    9  C5  UNL     1      47.916  27.620  11.066  1.00  0.00     0.117 C 
HETATM   10  O3  UNL     1      48.327  29.282  12.679  1.00  0.00    -0.274 OA
ATOM     11  H1  UNL     1      48.227  26.143  13.300  1.00  0.00     0.163 HD
ENDBRANCH   2   7
ENDBRANCH   1   2
BRANCH   1  12
HETATM   12  N2  UNL     1      50.201  25.623  15.175  1.00  0.00    -0.404 N 
ATOM     13  H2  UNL     1      50.179  25.465  14.167  1.00  0.00     0.154 HD
BRANCH  12  14
HETATM   14  C7  UNL     1      50.663  24.538  15.842  1.00  0.00     0.081 C 
HETATM   15  C8  UNL     1      49.722  23.429  16.214  1.00  0.00     0.025 C 
HETATM   16  C9  UNL     1      48.695  23.109  15.155  1.00  0.00     0.002 C 
HETATM   17  C10 UNL     1      49.313  21.993  14.298  1.00  0.00     0.000 C 
HETATM   18  C11 UNL     1      50.533  22.622  13.658  1.00  0.00     0.000 C 
HETATM   19  C12 UNL     1      51.736  22.662  14.526  1.00  0.00     0.006 C 
HETATM   20  C13 UNL     1      51.963  23.946  15.273  1.00  0.00     0.004 C 
HETATM   21  C14 UNL     1      52.704  24.903  14.405  1.00  0.00     0.012 C 
ENDBRANCH  12  14
ENDBRANCH   1  12
BRANCH   1  22
HETATM   22  C15 UNL     1      50.931  27.883  15.390  1.00  0.00     0.161 C 
HETATM   23  N3  UNL     1      51.902  27.860  16.197  1.00  0.00    -0.249 N 
ATOM     24  H3  UNL     1      51.937  27.170  16.948  1.00  0.00     0.196 HD
BRANCH  22  25
HETATM   25  O4  UNL     1      50.868  28.805  14.364  1.00  0.00    -0.346 OA
ATOM     26  H4  UNL     1      51.522  29.494  14.366  1.00  0.00     0.219 HD
ENDBRANCH  22  25
BRANCH  23  27
HETATM   27  O5  UNL     1      52.908  28.779  16.043  1.00  0.00    -0.288 OA
ATOM     28  H5  UNL     1      53.794  28.466  15.899  1.00  0.00     0.244 HD
ENDBRANCH  23  27
ENDBRANCH   1  22
TORSDOF 9
ENDMDL
MODEL 3
REMARK VINA RESULT: -6.479702144      1.658      2.892
REMARK  9 active torsions:
REMARK  status: ('A' for Active; 'I' for Inactive)
REMARK    1  A    between atoms: O1_2  and  C2_3 
REMARK    2  A    between atoms: C2_3  and  C3_5 
REMARK    3  A    between atoms: C3_5  and  N1_6 
REMARK    4  A    between atoms: C3_5  and  C6_11 
REMARK       I    between atoms: N1_6  and  C4_8 
REMARK    5  A    between atoms: C6_11  and  N2_12 
REMARK    6  A    between atoms: C6_11  and  C15_22 
REMARK    7  A    between atoms: N2_12  and  C7_14 
REMARK    8  A    between atoms: C15_22  and  O4_23 
REMARK    9  A    between atoms: N3_25  and  O5_27 
ROOT
HETATM    1  C6  UNL     1      49.963  25.846  15.629  1.00  0.00     0.186 C 
ENDROOT
BRANCH   1   2
HETATM    2  C3  UNL     1      48.813  26.710  15.291  1.00  0.00     0.214 C 
BRANCH   2   3
HETATM    3  C2  UNL     1      47.563  26.273  16.053  1.00  0.00     0.283 C 
HETATM    4  O2  UNL     1      47.663  25.351  16.897  1.00  0.00    -0.263 OA
BRANCH   3   5
HETATM    5  O1  UNL     1      46.336  26.827  15.865  1.00  0.00    -0.325 OA
HETATM    6  C1  UNL     1      46.084  28.219  15.792  1.00  0.00     0.213 C 
ENDBRANCH   3   5
ENDBRANCH   2   3
BRANCH   2   7
HETATM    7  N1  UNL     1      48.347  26.550  13.893  1.00  0.00    -0.345 N 
HETATM    8  C4  UNL     1      48.297  27.640  13.009  1.00  0.00     0.214 C 
HETATM    9  C5  UNL     1      47.832  27.479  11.617  1.00  0.00     0.117 C 
HETATM   10  O3  UNL     1      48.654  28.770  13.404  1.00  0.00    -0.274 OA
ATOM     11  H1  UNL     1      48.056  25.629  13.566  1.00  0.00     0.163 HD
ENDBRANCH   2   7
ENDBRANCH   1   2
BRANCH   1  12
HETATM   12  N2  UNL     1      50.248  24.629  15.068  1.00  0.00    -0.404 N 
ATOM     13  H2  UNL     1      50.056  24.623  14.066  1.00  0.00     0.154 HD
BRANCH  12  14
HETATM   14  C7  UNL     1      50.718  23.433  15.496  1.00  0.00     0.081 C 
HETATM   15  C8  UNL     1      49.779  22.435  16.112  1.00  0.00     0.025 C 
HETATM   16  C9  UNL     1      48.429  22.361  15.440  1.00  0.00     0.002 C 
HETATM   17  C10 UNL     1      48.550  21.256  14.379  1.00  0.00     0.000 C 
HETATM   18  C11 UNL     1      49.585  21.767  13.398  1.00  0.00     0.000 C 
HETATM   19  C12 UNL     1      50.992  21.558  13.818  1.00  0.00     0.006 C 
HETATM   20  C13 UNL     1      51.652  22.723  14.503  1.00  0.00     0.004 C 
HETATM   21  C14 UNL     1      52.219  23.646  13.481  1.00  0.00     0.012 C 
ENDBRANCH  12  14
ENDBRANCH   1  12
BRANCH   1  22
HETATM   22  C15 UNL     1      51.195  26.776  15.492  1.00  0.00     0.161 C 
HETATM   23  N3  UNL     1      51.078  28.032  15.468  1.00  0.00    -0.249 N 
ATOM     24  H3  UNL     1      50.159  28.470  15.539  1.00  0.00     0.196 HD
BRANCH  22  25
HETATM   25  O4  UNL     1      52.431  26.165  15.403  1.00  0.00    -0.346 OA
ATOM     26  H4  UNL     1      52.539  25.346  15.872  1.00  0.00     0.219 HD
ENDBRANCH  22  25
BRANCH  23  27
HETATM   27  O5  UNL     1      52.210  28.798  15.345  1.00  0.00    -0.288 OA
ATOM     28  H5  UNL     1      52.489  29.063  14.476  1.00  0.00     0.244 HD
ENDBRANCH  23  27
ENDBRANCH   1  22
TORSDOF 9
ENDMDL
MODEL 4
REMARK VINA RESULT: -6.300875468      2.678      6.156
REMARK  9 active torsions:
REMARK  status: ('A' for Active; 'I' for Inactive)
REMARK    1  A    between atoms: O1_2  and  C2_3 
REMARK    2  A    between atoms: C2_3  and  C3_5 
REMARK    3  A    between atoms: C3_5  and  N1_6 
REMARK    4  A    between atoms: C3_5  and  C6_11 
REMARK       I    between atoms: N1_6  and  C4_8 
REMARK    5  A    between atoms: C6_11  and  N2_12 
REMARK    6  A    between atoms: C6_11  and  C15_22 
REMARK    7  A    between atoms: N2_12  and  C7_14 
REMARK    8  A    between atoms: C15_22  and  O4_23 
REMARK    9  A    between atoms: N3_25  and  O5_27 
ROOT
HETATM    1  C6  UNL     1      50.594  25.067  14.599  1.00  0.00     0.186 C 
ENDROOT
BRANCH   1   2
HETATM    2  C3  UNL     1      50.601  23.631  14.946  1.00  0.00     0.214 C 
BRANCH   2   3
HETATM    3  C2  UNL     1      51.678  22.887  14.157  1.00  0.00     0.283 C 
HETATM    4  O2  UNL     1      52.022  23.333  13.038  1.00  0.00    -0.263 OA
BRANCH   3   5
HETATM    5  O1  UNL     1      52.288  21.756  14.600  1.00  0.00    -0.325 OA
HETATM    6  C1  UNL     1      52.265  20.512  13.924  1.00  0.00     0.213 C 
ENDBRANCH   3   5
ENDBRANCH   2   3
BRANCH   2   7
HETATM    7  N1  UNL     1      49.388  22.909  14.493  1.00  0.00    -0.345 N 
HETATM    8  C4  UNL     1      48.983  21.707  15.096  1.00  0.00     0.214 C 
HETATM    9  C5  UNL     1      47.775  20.989  14.643  1.00  0.00     0.117 C 
HETATM   10  O3  UNL     1      49.655  21.233  16.036  1.00  0.00    -0.274 OA
ATOM     11  H1  UNL     1      48.835  23.294  13.727  1.00  0.00     0.163 HD
ENDBRANCH   2   7
ENDBRANCH   1   2
BRANCH   1  12
HETATM   12  N2  UNL     1      49.544  25.930  14.768  1.00  0.00    -0.404 N 
ATOM     13  H2  UNL     1      48.705  25.600  14.291  1.00  0.00     0.154 HD
BRANCH  12  14
HETATM   14  C7  UNL     1      49.330  27.107  15.403  1.00  0.00     0.081 C 
HETATM   15  C8  UNL     1      49.345  28.393  14.626  1.00  0.00     0.025 C 
HETATM   16  C9  UNL     1      48.695  28.300  13.266  1.00  0.00     0.002 C 
HETATM   17  C10 UNL     1      47.228  28.705  13.476  1.00  0.00     0.000 C 
HETATM   18  C11 UNL     1      46.656  27.643  14.393  1.00  0.00     0.000 C 
HETATM   19  C12 UNL     1      46.948  27.846  15.833  1.00  0.00     0.006 C 
HETATM   20  C13 UNL     1      48.137  27.101  16.373  1.00  0.00     0.004 C 
HETATM   21  C14 UNL     1      47.724  25.727  16.773  1.00  0.00     0.012 C 
ENDBRANCH  12  14
ENDBRANCH   1  12
BRANCH   1  22
HETATM   22  C15 UNL     1      51.848  25.638  15.308  1.00  0.00     0.161 C 
HETATM   23  N3  UNL     1      52.769  24.887  15.735  1.00  0.00    -0.249 N 
ATOM     24  H3  UNL     1      52.708  23.875  15.621  1.00  0.00     0.196 HD
BRANCH  22  25
HETATM   25  O4  UNL     1      51.915  27.011  15.448  1.00  0.00    -0.346 OA
ATOM     26  H4  UNL     1      52.636  27.355  15.960  1.00  0.00     0.219 HD
ENDBRANCH  22  25
BRANCH  23  27
HETATM   27  O5  UNL     1      53.852  25.458  16.353  1.00  0.00    -0.288 OA
ATOM     28  H5  UNL     1      54.551  25.812  15.815  1.00  0.00     0.244 HD
ENDBRANCH  23  27
ENDBRANCH   1  22
TORSDOF 9
ENDMDL
MODEL 5
REMARK VINA RESULT: -6.286466294      3.057      6.232
REMARK  9 active torsions:
REMARK  status: ('A' for Active; 'I' for Inactive)
REMARK    1  A    between atoms: O1_2  and  C2_3 
REMARK    2  A    between atoms: C2_3  and  C3_5 
REMARK    3  A    between atoms: C3_5  and  N1_6 
REMARK    4  A    between atoms: C3_5  and  C6_11 
REMARK       I    between atoms: N1_6  and  C4_8 
REMARK    5  A    between atoms: C6_11  and  N2_12 
REMARK    6  A    between atoms: C6_11  and  C15_22 
REMARK    7  A    between atoms: N2_12  and  C7_14 
REMARK    8  A    between atoms: C15_22  and  O4_23 
REMARK    9  A    between atoms: N3_25  and  O5_27 
ROOT
HETATM    1  C6  UNL     1      50.803  24.668  14.390  1.00  0.00     0.186 C 
ENDROOT
BRANCH   1   2
HETATM    2  C3  UNL     1      50.638  23.295  14.912  1.00  0.00     0.214 C 
BRANCH   2   3
HETATM    3  C2  UNL     1      51.677  22.354  14.305  1.00  0.00     0.283 C 
HETATM    4  O2  UNL     1      52.550  21.856  15.054  1.00  0.00    -0.263 OA
BRANCH   3   5
HETATM    5  O1  UNL     1      51.714  22.025  12.987  1.00  0.00    -0.325 OA
HETATM    6  C1  UNL     1      52.023  20.736  12.488  1.00  0.00     0.213 C 
ENDBRANCH   3   5
ENDBRANCH   2   3
BRANCH   2   7
HETATM    7  N1  UNL     1      49.385  22.641  14.463  1.00  0.00    -0.345 N 
HETATM    8  C4  UNL     1      48.971  21.411  14.997  1.00  0.00     0.214 C 
HETATM    9  C5  UNL     1      47.723  20.760  14.548  1.00  0.00     0.117 C 
HETATM   10  O3  UNL     1      49.667  20.852  15.871  1.00  0.00    -0.274 OA
ATOM     11  H1  UNL     1      48.813  23.095  13.751  1.00  0.00     0.163 HD
ENDBRANCH   2   7
ENDBRANCH   1   2
BRANCH   1  12
HETATM   12  N2  UNL     1      49.934  25.710  14.576  1.00  0.00    -0.404 N 
ATOM     13  H2  UNL     1      49.184  25.702  13.885  1.00  0.00     0.154 HD
BRANCH  12  14
HETATM   14  C7  UNL     1      49.811  26.747  15.439  1.00  0.00     0.081 C 
HETATM   15  C8  UNL     1      50.079  28.149  14.970  1.00  0.00     0.025 C 
HETATM   16  C9  UNL     1      49.571  28.442  13.578  1.00  0.00     0.002 C 
HETATM   17  C10 UNL     1      48.156  29.013  13.761  1.00  0.00     0.000 C 
HETATM   18  C11 UNL     1      47.354  27.882  14.374  1.00  0.00     0.000 C 
HETATM   19  C12 UNL     1      47.516  27.734  15.841  1.00  0.00     0.006 C 
HETATM   20  C13 UNL     1      48.532  26.720  16.290  1.00  0.00     0.004 C 
HETATM   21  C14 UNL     1      47.900  25.372  16.343  1.00  0.00     0.012 C 
ENDBRANCH  12  14
ENDBRANCH   1  12
BRANCH   1  22
HETATM   22  C15 UNL     1      52.219  25.089  14.862  1.00  0.00     0.161 C 
HETATM   23  N3  UNL     1      52.526  25.128  16.085  1.00  0.00    -0.249 N 
ATOM     24  H3  UNL     1      51.842  24.880  16.801  1.00  0.00     0.196 HD
BRANCH  22  25
HETATM   25  O4  UNL     1      53.132  25.415  13.878  1.00  0.00    -0.346 OA
ATOM     26  H4  UNL     1      53.343  26.336  13.777  1.00  0.00     0.219 HD
ENDBRANCH  22  25
BRANCH  23  27
HETATM   27  O5  UNL     1      53.796  25.509  16.434  1.00  0.00    -0.288 OA
ATOM     28  H5  UNL     1      53.907  26.144  17.133  1.00  0.00     0.244 HD
ENDBRANCH  23  27
ENDBRANCH   1  22
TORSDOF 9
ENDMDL
