MODEL 1
REMARK VINA RESULT: -7.755161703      0.000      0.000
REMARK  7 active torsions:
REMARK  status: ('A' for Active; 'I' for Inactive)
REMARK    1  A    between atoms: C2_2  and  O1_4 
REMARK    2  A    between atoms: O1_4  and  N1_5 
REMARK       I    between atoms: C4_7  and  N2_8 
REMARK       I    between atoms: C4_7  and  N4_12 
REMARK    3  A    between atoms: N4_12  and  C6_14 
REMARK    4  A    between atoms: C6_14  and  C7_15 
REMARK    5  A    between atoms: C6_14  and  C8_18 
REMARK    6  A    between atoms: C7_15  and  O2_16 
REMARK       I    between atoms: C8_18  and  N5_20 
REMARK    7  A    between atoms: N5_20  and  C9_22 
ROOT
HETATM    1  N1  UNL     1      48.336  26.558  13.934  1.00  0.00    -0.096 N 
ATOM      2  H1  UNL     1      48.529  26.122  13.032  1.00  0.00     0.213 HD
HETATM    3  C4  UNL     1      48.760  25.964  14.999  1.00  0.00     0.707 C 
HETATM    4  N2  UNL     1      48.460  26.622  16.250  1.00  0.00    -0.124 N 
ATOM      5  H2  UNL     1      48.750  27.581  16.442  1.00  0.00     0.197 HD
HETATM    6  C5  UNL     1      47.747  25.860  17.180  1.00  0.00     0.196 C 
HETATM    7  N3  UNL     1      47.162  25.217  17.942  1.00  0.00    -0.171 NA
HETATM    8  N4  UNL     1      49.455  24.746  14.907  1.00  0.00    -0.208 N 
ATOM      9  H4  UNL     1      48.950  23.912  15.205  1.00  0.00     0.178 HD
ENDROOT
BRANCH   1  10
HETATM   10  O1  UNL     1      47.648  27.728  13.940  1.00  0.00    -0.262 OA
BRANCH  10  11
HETATM   11  C2  UNL     1      47.923  28.684  12.935  1.00  0.00     0.144 C 
HETATM   12  C1  UNL     1      49.269  29.289  13.272  1.00  0.00     0.042 C 
HETATM   13  C3  UNL     1      47.962  28.022  11.555  1.00  0.00     0.042 C 
ENDBRANCH  10  11
ENDBRANCH   1  10
BRANCH   8  14
HETATM   14  C6  UNL     1      50.802  24.543  14.440  1.00  0.00     0.215 C 
BRANCH  14  15
HETATM   15  C7  UNL     1      51.728  25.428  15.263  1.00  0.00     0.199 C 
BRANCH  15  16
HETATM   16  O2  UNL     1      53.058  25.341  14.866  1.00  0.00    -0.398 OA
ATOM     17  H2  UNL     1      53.594  26.048  15.205  1.00  0.00     0.209 HD
ENDBRANCH  15  16
ENDBRANCH  14  15
BRANCH  14  18
HETATM   18  C8  UNL     1      51.186  23.122  14.503  1.00  0.00     0.244 C 
HETATM   19  O3  UNL     1      52.156  22.828  15.267  1.00  0.00    -0.271 OA
HETATM   20  N5  UNL     1      50.569  22.073  13.792  1.00  0.00    -0.337 N 
ATOM     21  H5  UNL     1      49.787  22.283  13.172  1.00  0.00     0.164 HD
BRANCH  20  22
HETATM   22  C9  UNL     1      51.014  20.726  13.921  1.00  0.00     0.122 C 
HETATM   23  C10 UNL     1      50.789  20.303  15.320  1.00  0.00     0.091 C 
HETATM   24  N6  UNL     1      50.603  19.955  16.415  1.00  0.00    -0.195 NA
HETATM   25  C11 UNL     1      50.402  19.725  13.021  1.00  0.00     0.046 C 
HETATM   26  C12 UNL     1      50.701  19.904  11.568  1.00  0.00     0.004 C 
HETATM   27  C13 UNL     1      52.103  20.302  11.256  1.00  0.00     0.000 C 
HETATM   28  C14 UNL     1      52.820  21.037  12.325  1.00  0.00     0.004 C 
HETATM   29  C15 UNL     1      52.526  20.625  13.724  1.00  0.00     0.046 C 
ENDBRANCH  20  22
ENDBRANCH  14  18
ENDBRANCH   8  14
TORSDOF 7
ENDMDL
MODEL 2
REMARK VINA RESULT: -6.708179414      1.037      2.171
REMARK  7 active torsions:
REMARK  status: ('A' for Active; 'I' for Inactive)
REMARK    1  A    between atoms: C2_2  and  O1_4 
REMARK    2  A    between atoms: O1_4  and  N1_5 
REMARK       I    between atoms: C4_7  and  N2_8 
REMARK       I    between atoms: C4_7  and  N4_12 
REMARK    3  A    between atoms: N4_12  and  C6_14 
REMARK    4  A    between atoms: C6_14  and  C7_15 
REMARK    5  A    between atoms: C6_14  and  C8_18 
REMARK    6  A    between atoms: C7_15  and  O2_16 
REMARK       I    between atoms: C8_18  and  N5_20 
REMARK    7  A    between atoms: N5_20  and  C9_22 
ROOT
HETATM    1  N1  UNL     1      48.435  26.464  13.787  1.00  0.00    -0.096 N 
ATOM      2  H1  UNL     1      48.673  26.005  12.907  1.00  0.00     0.213 HD
HETATM    3  C4  UNL     1      48.928  25.978  14.878  1.00  0.00     0.707 C 
HETATM    4  N2  UNL     1      48.561  26.664  16.095  1.00  0.00    -0.124 N 
ATOM      5  H2  UNL     1      48.741  27.658  16.234  1.00  0.00     0.197 HD
HETATM    6  C5  UNL     1      47.941  25.877  17.071  1.00  0.00     0.196 C 
HETATM    7  N3  UNL     1      47.435  25.214  17.871  1.00  0.00    -0.171 NA
HETATM    8  N4  UNL     1      49.755  24.843  14.843  1.00  0.00    -0.208 N 
ATOM      9  H4  UNL     1      49.348  23.974  15.189  1.00  0.00     0.178 HD
ENDROOT
BRANCH   1  10
HETATM   10  O1  UNL     1      47.620  27.547  13.739  1.00  0.00    -0.262 OA
BRANCH  10  11
HETATM   11  C2  UNL     1      47.901  28.568  12.801  1.00  0.00     0.144 C 
HETATM   12  C1  UNL     1      49.201  29.209  13.238  1.00  0.00     0.042 C 
HETATM   13  C3  UNL     1      48.035  27.985  11.391  1.00  0.00     0.042 C 
ENDBRANCH  10  11
ENDBRANCH   1  10
BRANCH   8  14
HETATM   14  C6  UNL     1      51.114  24.768  14.374  1.00  0.00     0.215 C 
BRANCH  14  15
HETATM   15  C7  UNL     1      51.995  25.546  15.343  1.00  0.00     0.199 C 
BRANCH  15  16
HETATM   16  O2  UNL     1      53.353  25.355  15.117  1.00  0.00    -0.398 OA
ATOM     17  H2  UNL     1      53.664  24.508  15.411  1.00  0.00     0.209 HD
ENDBRANCH  15  16
ENDBRANCH  14  15
BRANCH  14  18
HETATM   18  C8  UNL     1      51.555  23.370  14.219  1.00  0.00     0.244 C 
HETATM   19  O3  UNL     1      52.266  22.891  15.154  1.00  0.00    -0.271 OA
HETATM   20  N5  UNL     1      51.253  22.531  13.127  1.00  0.00    -0.337 N 
ATOM     21  H5  UNL     1      50.683  22.893  12.363  1.00  0.00     0.164 HD
BRANCH  20  22
HETATM   22  C9  UNL     1      51.727  21.189  13.069  1.00  0.00     0.122 C 
HETATM   23  C10 UNL     1      52.820  21.134  12.075  1.00  0.00     0.091 C 
HETATM   24  N6  UNL     1      53.691  21.081  11.306  1.00  0.00    -0.195 NA
HETATM   25  C11 UNL     1      52.206  20.588  14.332  1.00  0.00     0.046 C 
HETATM   26  C12 UNL     1      51.163  20.395  15.384  1.00  0.00     0.004 C 
HETATM   27  C13 UNL     1      49.843  19.915  14.885  1.00  0.00     0.000 C 
HETATM   28  C14 UNL     1      49.519  20.260  13.480  1.00  0.00     0.004 C 
HETATM   29  C15 UNL     1      50.653  20.251  12.518  1.00  0.00     0.046 C 
ENDBRANCH  20  22
ENDBRANCH  14  18
ENDBRANCH   8  14
TORSDOF 7
ENDMDL
MODEL 3
REMARK VINA RESULT: -6.653583041      2.045      3.021
REMARK  7 active torsions:
REMARK  status: ('A' for Active; 'I' for Inactive)
REMARK    1  A    between atoms: C2_2  and  O1_4 
REMARK    2  A    between atoms: O1_4  and  N1_5 
REMARK       I    between atoms: C4_7  and  N2_8 
REMARK       I    between atoms: C4_7  and  N4_12 
REMARK    3  A    between atoms: N4_12  and  C6_14 
REMARK    4  A    between atoms: C6_14  and  C7_15 
REMARK    5  A    between atoms: C6_14  and  C8_18 
REMARK    6  A    between atoms: C7_15  and  O2_16 
REMARK       I    between atoms: C8_18  and  N5_20 
REMARK    7  A    between atoms: N5_20  and  C9_22 
ROOT
HETATM    1  N1  UNL     1      49.061  25.337  14.976  1.00  0.00    -0.096 N 
ATOM      2  H1  UNL     1      48.207  25.118  15.489  1.00  0.00     0.213 HD
HETATM    3  C4  UNL     1      50.071  24.542  15.111  1.00  0.00     0.707 C 
HETATM    4  N2  UNL     1      51.255  24.897  14.363  1.00  0.00    -0.124 N 
ATOM      5  H2  UNL     1      51.243  25.015  13.351  1.00  0.00     0.197 HD
HETATM    6  C5  UNL     1      52.420  25.066  15.118  1.00  0.00     0.196 C 
HETATM    7  N3  UNL     1      53.376  25.198  15.754  1.00  0.00    -0.171 NA
HETATM    8  N4  UNL     1      49.987  23.419  15.951  1.00  0.00    -0.208 N 
ATOM      9  H4  UNL     1      50.504  23.470  16.828  1.00  0.00     0.178 HD
ENDROOT
BRANCH   1  10
HETATM   10  O1  UNL     1      49.067  26.446  14.195  1.00  0.00    -0.262 OA
BRANCH  10  11
HETATM   11  C2  UNL     1      48.891  27.709  14.807  1.00  0.00     0.144 C 
HETATM   12  C1  UNL     1      50.270  28.321  14.937  1.00  0.00     0.042 C 
HETATM   13  C3  UNL     1      47.986  28.602  13.952  1.00  0.00     0.042 C 
ENDBRANCH  10  11
ENDBRANCH   1  10
BRANCH   8  14
HETATM   14  C6  UNL     1      49.253  22.203  15.712  1.00  0.00     0.215 C 
BRANCH  14  15
HETATM   15  C7  UNL     1      48.141  22.508  14.717  1.00  0.00     0.199 C 
BRANCH  15  16
HETATM   16  O2  UNL     1      47.777  21.404  13.954  1.00  0.00    -0.398 OA
ATOM     17  H2  UNL     1      48.238  20.612  14.202  1.00  0.00     0.209 HD
ENDBRANCH  15  16
ENDBRANCH  14  15
BRANCH  14  18
HETATM   18  C8  UNL     1      50.139  21.122  15.245  1.00  0.00     0.244 C 
HETATM   19  O3  UNL     1      50.966  20.659  16.088  1.00  0.00    -0.271 OA
HETATM   20  N5  UNL     1      50.141  20.565  13.950  1.00  0.00    -0.337 N 
ATOM     21  H5  UNL     1      49.485  20.920  13.253  1.00  0.00     0.164 HD
BRANCH  20  22
HETATM   22  C9  UNL     1      51.038  19.518  13.592  1.00  0.00     0.122 C 
HETATM   23  C10 UNL     1      50.953  18.470  14.632  1.00  0.00     0.091 C 
HETATM   24  N6  UNL     1      50.884  17.632  15.436  1.00  0.00    -0.195 NA
HETATM   25  C11 UNL     1      50.846  18.888  12.269  1.00  0.00     0.046 C 
HETATM   26  C12 UNL     1      51.089  19.779  11.095  1.00  0.00     0.004 C 
HETATM   27  C13 UNL     1      52.260  20.692  11.226  1.00  0.00     0.000 C 
HETATM   28  C14 UNL     1      52.642  21.058  12.611  1.00  0.00     0.004 C 
HETATM   29  C15 UNL     1      52.489  19.997  13.642  1.00  0.00     0.046 C 
ENDBRANCH  20  22
ENDBRANCH  14  18
ENDBRANCH   8  14
TORSDOF 7
ENDMDL
MODEL 4
REMARK VINA RESULT: -6.610481627      2.023      7.402
REMARK  7 active torsions:
REMARK  status: ('A' for Active; 'I' for Inactive)
REMARK    1  A    between atoms: C2_2  and  O1_4 
REMARK    2  A    between atoms: O1_4  and  N1_5 
REMARK       I    between atoms: C4_7  and  N2_8 
REMARK       I    between atoms: C4_7  and  N4_12 
REMARK    3  A    between atoms: N4_12  and  C6_14 
REMARK    4  A    between atoms: C6_14  and  C7_15 
REMARK    5  A    between atoms: C6_14  and  C8_18 
REMARK    6  A    between atoms: C7_15  and  O2_16 
REMARK       I    between atoms: C8_18  and  N5_20 
REMARK    7  A    between atoms: N5_20  and  C9_22 
ROOT
HETATM    1  N1  UNL     1      49.773  22.423  15.051  1.00  0.00    -0.096 N 
ATOM      2  H1  UNL     1      48.933  22.353  14.475  1.00  0.00     0.213 HD
HETATM    3  C4  UNL     1      50.279  23.596  15.247  1.00  0.00     0.707 C 
HETATM    4  N2  UNL     1      51.465  23.640  16.070  1.00  0.00    -0.124 N 
ATOM      5  H2  UNL     1      51.483  23.267  17.019  1.00  0.00     0.197 HD
HETATM    6  C5  UNL     1      52.589  24.227  15.481  1.00  0.00     0.196 C 
HETATM    7  N3  UNL     1      53.509  24.720  14.984  1.00  0.00    -0.171 NA
HETATM    8  N4  UNL     1      49.689  24.732  14.668  1.00  0.00    -0.208 N 
ATOM      9  H4  UNL     1      50.192  25.156  13.889  1.00  0.00     0.178 HD
ENDROOT
BRANCH   1  10
HETATM   10  O1  UNL     1      50.289  21.279  15.564  1.00  0.00    -0.262 OA
BRANCH  10  11
HETATM   11  C2  UNL     1      50.771  20.291  14.674  1.00  0.00     0.144 C 
HETATM   12  C1  UNL     1      49.769  20.204  13.543  1.00  0.00     0.042 C 
HETATM   13  C3  UNL     1      52.153  20.674  14.138  1.00  0.00     0.042 C 
ENDBRANCH  10  11
ENDBRANCH   1  10
BRANCH   8  14
HETATM   14  C6  UNL     1      48.455  25.366  15.051  1.00  0.00     0.215 C 
BRANCH  14  15
HETATM   15  C7  UNL     1      48.323  25.272  16.566  1.00  0.00     0.199 C 
BRANCH  15  16
HETATM   16  O2  UNL     1      47.118  25.779  17.040  1.00  0.00    -0.398 OA
ATOM     17  H2  UNL     1      47.072  25.802  17.988  1.00  0.00     0.209 HD
ENDBRANCH  15  16
ENDBRANCH  14  15
BRANCH  14  18
HETATM   18  C8  UNL     1      48.392  26.758  14.572  1.00  0.00     0.244 C 
HETATM   19  O3  UNL     1      48.282  27.661  15.457  1.00  0.00    -0.271 OA
HETATM   20  N5  UNL     1      48.446  27.165  13.223  1.00  0.00    -0.337 N 
ATOM     21  H5  UNL     1      48.535  26.459  12.493  1.00  0.00     0.164 HD
BRANCH  20  22
HETATM   22  C9  UNL     1      48.379  28.540  12.859  1.00  0.00     0.122 C 
HETATM   23  C10 UNL     1      49.532  29.232  13.473  1.00  0.00     0.091 C 
HETATM   24  N6  UNL     1      50.445  29.784  13.939  1.00  0.00    -0.195 NA
HETATM   25  C11 UNL     1      48.354  28.854  11.414  1.00  0.00     0.046 C 
HETATM   26  C12 UNL     1      47.141  28.384  10.679  1.00  0.00     0.004 C 
HETATM   27  C13 UNL     1      45.854  28.551  11.412  1.00  0.00     0.000 C 
HETATM   28  C14 UNL     1      45.949  28.559  12.891  1.00  0.00     0.004 C 
HETATM   29  C15 UNL     1      47.152  29.212  13.474  1.00  0.00     0.046 C 
ENDBRANCH  20  22
ENDBRANCH  14  18
ENDBRANCH   8  14
TORSDOF 7
ENDMDL
MODEL 5
REMARK VINA RESULT: -5.892435538      1.829      7.191
REMARK  7 active torsions:
REMARK  status: ('A' for Active; 'I' for Inactive)
REMARK    1  A    between atoms: C2_2  and  O1_4 
REMARK    2  A    between atoms: O1_4  and  N1_5 
REMARK       I    between atoms: C4_7  and  N2_8 
REMARK       I    between atoms: C4_7  and  N4_12 
REMARK    3  A    between atoms: N4_12  and  C6_14 
REMARK    4  A    between atoms: C6_14  and  C7_15 
REMARK    5  A    between atoms: C6_14  and  C8_18 
REMARK    6  A    between atoms: C7_15  and  O2_16 
REMARK       I    between atoms: C8_18  and  N5_20 
REMARK    7  A    between atoms: N5_20  and  C9_22 
ROOT
HETATM    1  N1  UNL     1      50.026  21.280  14.004  1.00  0.00    -0.096 N 
ATOM      2  H1  UNL     1      49.265  21.915  14.249  1.00  0.00     0.213 HD
HETATM    3  C4  UNL     1      51.171  21.794  13.697  1.00  0.00     0.707 C 
HETATM    4  N2  UNL     1      52.214  20.853  13.359  1.00  0.00    -0.124 N 
ATOM      5  H2  UNL     1      52.505  20.114  13.998  1.00  0.00     0.197 HD
HETATM    6  C5  UNL     1      52.798  21.022  12.100  1.00  0.00     0.196 C 
HETATM    7  N3  UNL     1      53.275  21.176  11.059  1.00  0.00    -0.171 NA
HETATM    8  N4  UNL     1      51.348  23.188  13.691  1.00  0.00    -0.208 N 
ATOM      9  H4  UNL     1      51.427  23.631  12.775  1.00  0.00     0.178 HD
ENDROOT
BRANCH   1  10
HETATM   10  O1  UNL     1      49.773  19.948  14.021  1.00  0.00    -0.262 OA
BRANCH  10  11
HETATM   11  C2  UNL     1      50.863  19.048  13.980  1.00  0.00     0.144 C 
HETATM   12  C1  UNL     1      50.918  18.375  15.335  1.00  0.00     0.042 C 
HETATM   13  C3  UNL     1      50.665  18.009  12.872  1.00  0.00     0.042 C 
ENDBRANCH  10  11
ENDBRANCH   1  10
BRANCH   8  14
HETATM   14  C6  UNL     1      51.431  24.062  14.832  1.00  0.00     0.215 C 
BRANCH  14  15
HETATM   15  C7  UNL     1      52.652  24.956  14.658  1.00  0.00     0.199 C 
BRANCH  15  16
HETATM   16  O2  UNL     1      53.363  25.141  15.838  1.00  0.00    -0.398 OA
ATOM     17  H2  UNL     1      53.605  24.325  16.258  1.00  0.00     0.209 HD
ENDBRANCH  15  16
ENDBRANCH  14  15
BRANCH  14  18
HETATM   18  C8  UNL     1      50.191  24.840  15.006  1.00  0.00     0.244 C 
HETATM   19  O3  UNL     1      49.124  24.178  15.182  1.00  0.00    -0.271 OA
HETATM   20  N5  UNL     1      50.097  26.247  14.996  1.00  0.00    -0.337 N 
ATOM     21  H5  UNL     1      50.941  26.802  14.857  1.00  0.00     0.164 HD
BRANCH  20  22
HETATM   22  C9  UNL     1      48.849  26.909  15.175  1.00  0.00     0.122 C 
HETATM   23  C10 UNL     1      48.185  26.318  16.357  1.00  0.00     0.091 C 
HETATM   24  N6  UNL     1      47.659  25.872  17.294  1.00  0.00    -0.195 NA
HETATM   25  C11 UNL     1      48.882  28.378  15.336  1.00  0.00     0.046 C 
HETATM   26  C12 UNL     1      49.353  29.142  14.142  1.00  0.00     0.004 C 
HETATM   27  C13 UNL     1      48.857  28.634  12.831  1.00  0.00     0.000 C 
HETATM   28  C14 UNL     1      48.514  27.193  12.785  1.00  0.00     0.004 C 
HETATM   29  C15 UNL     1      47.901  26.618  14.012  1.00  0.00     0.046 C 
ENDBRANCH  20  22
ENDBRANCH  14  18
ENDBRANCH   8  14
TORSDOF 7
ENDMDL
