MODEL 1
REMARK VINA RESULT: -7.310203120      0.000      0.000
REMARK  10 active torsions:
REMARK  status: ('A' for Active; 'I' for Inactive)
REMARK    1  A    between atoms: C1_2  and  C2_4 
REMARK    2  A    between atoms: C3_6  and  C4_7 
REMARK    3  A    between atoms: C4_7  and  C5_8 
REMARK    4  A    between atoms: C4_7  and  C7_13 
REMARK    5  A    between atoms: C5_8  and  S1_9 
REMARK    6  A    between atoms: S1_9  and  S2_10 
REMARK    7  A    between atoms: S2_10  and  C6_11 
REMARK    8  A    between atoms: C8_16  and  O4_17 
REMARK    9  A    between atoms: C9_19  and  O5_20 
REMARK   10  A    between atoms: C10_22  and  O6_23 
ROOT
HETATM    1  C2  UNL     1      50.065  24.049  15.142  1.00  0.00     0.254 C 
HETATM    2  O3  UNL     1      49.199  25.034  14.683  1.00  0.00    -0.364 OA
HETATM    3  C3  UNL     1      49.752  26.291  14.706  1.00  0.00     0.164 C 
HETATM    4  C8  UNL     1      51.086  26.343  15.417  1.00  0.00     0.179 C 
HETATM    5  C9  UNL     1      52.029  25.468  14.613  1.00  0.00     0.181 C 
HETATM    6  C10 UNL     1      51.423  24.092  14.494  1.00  0.00     0.189 C 
ENDROOT
BRANCH   3   7
HETATM    7  C4  UNL     1      48.852  27.350  15.302  1.00  0.00     0.092 C 
BRANCH   7   8
HETATM    8  C5  UNL     1      48.017  27.985  14.205  1.00  0.00     0.099 C 
BRANCH   8   9
HETATM    9  S1  UNL     1      49.019  29.146  13.239  1.00  0.00    -0.096 SA
BRANCH   9  10
HETATM   10  S2  UNL     1      48.358  29.251  11.224  1.00  0.00    -0.083 SA
BRANCH  10  11
HETATM   11  C6  UNL     1      46.604  28.867  11.068  1.00  0.00     0.200 C 
HETATM   12 CL1  UNL     1      45.871  29.644   9.657  1.00  0.00    -0.119 Cl
ENDBRANCH  10  11
ENDBRANCH   9  10
ENDBRANCH   8   9
ENDBRANCH   7   8
BRANCH   7  13
HETATM   13  C7  UNL     1      47.877  26.669  16.234  1.00  0.00     0.360 C 
HETATM   14  F1  UNL     1      48.314  26.635  17.543  1.00  0.00    -0.214 F 
HETATM   15  F2  UNL     1      46.699  27.394  16.172  1.00  0.00    -0.214 F 
ENDBRANCH   7  13
ENDBRANCH   3   7
BRANCH   4  16
HETATM   16  O4  UNL     1      51.562  27.653  15.313  1.00  0.00    -0.390 OA
ATOM     17  H4  UNL     1      51.983  27.867  16.138  1.00  0.00     0.210 HD
ENDBRANCH   4  16
BRANCH   1  18
HETATM   18  C1  UNL     1      49.435  22.722  14.865  1.00  0.00     0.205 C 
HETATM   19  O1  UNL     1      48.364  22.335  15.367  1.00  0.00    -0.646 OA
HETATM   20  O2  UNL     1      50.101  21.857  13.977  1.00  0.00    -0.646 OA
ENDBRANCH   1  18
BRANCH   5  21
HETATM   21  O5  UNL     1      53.308  25.455  15.139  1.00  0.00    -0.390 OA
ATOM     22  H5  UNL     1      53.971  25.597  14.474  1.00  0.00     0.210 HD
ENDBRANCH   5  21
BRANCH   6  23
HETATM   23  O6  UNL     1      52.224  23.159  15.164  1.00  0.00    -0.390 OA
ATOM     24  H6  UNL     1      53.127  23.417  15.020  1.00  0.00     0.210 HD
ENDBRANCH   6  23
TORSDOF 10
ENDMDL
MODEL 2
REMARK VINA RESULT: -6.901447332      4.083      5.833
REMARK  10 active torsions:
REMARK  status: ('A' for Active; 'I' for Inactive)
REMARK    1  A    between atoms: C1_2  and  C2_4 
REMARK    2  A    between atoms: C3_6  and  C4_7 
REMARK    3  A    between atoms: C4_7  and  C5_8 
REMARK    4  A    between atoms: C4_7  and  C7_13 
REMARK    5  A    between atoms: C5_8  and  S1_9 
REMARK    6  A    between atoms: S1_9  and  S2_10 
REMARK    7  A    between atoms: S2_10  and  C6_11 
REMARK    8  A    between atoms: C8_16  and  O4_17 
REMARK    9  A    between atoms: C9_19  and  O5_20 
REMARK   10  A    between atoms: C10_22  and  O6_23 
ROOT
HETATM    1  C2  UNL     1      48.076  28.182  12.805  1.00  0.00     0.254 C 
HETATM    2  O3  UNL     1      47.555  27.539  13.921  1.00  0.00    -0.364 OA
HETATM    3  C3  UNL     1      48.483  27.345  14.914  1.00  0.00     0.164 C 
HETATM    4  C8  UNL     1      49.895  27.683  14.486  1.00  0.00     0.179 C 
HETATM    5  C9  UNL     1      49.898  29.167  14.170  1.00  0.00     0.181 C 
HETATM    6  C10 UNL     1      48.835  29.441  13.136  1.00  0.00     0.189 C 
ENDROOT
BRANCH   3   7
HETATM    7  C4  UNL     1      48.482  25.950  15.497  1.00  0.00     0.092 C 
BRANCH   7   8
HETATM    8  C5  UNL     1      49.795  25.261  15.171  1.00  0.00     0.099 C 
BRANCH   8   9
HETATM    9  S1  UNL     1      49.606  23.461  15.261  1.00  0.00    -0.096 SA
BRANCH   9  10
HETATM   10  S2  UNL     1      51.404  22.465  14.730  1.00  0.00    -0.083 SA
BRANCH  10  11
HETATM   11  C6  UNL     1      51.197  20.674  14.691  1.00  0.00     0.200 C 
HETATM   12 CL1  UNL     1      50.408  20.124  13.205  1.00  0.00    -0.119 Cl
ENDBRANCH  10  11
ENDBRANCH   9  10
ENDBRANCH   8   9
ENDBRANCH   7   8
BRANCH   7  13
HETATM   13  C7  UNL     1      48.429  26.069  17.002  1.00  0.00     0.360 C 
HETATM   14  F1  UNL     1      48.438  27.378  17.442  1.00  0.00    -0.214 F 
HETATM   15  F2  UNL     1      47.246  25.469  17.404  1.00  0.00    -0.214 F 
ENDBRANCH   7  13
ENDBRANCH   3   7
BRANCH   4  16
HETATM   16  O4  UNL     1      50.721  27.504  15.598  1.00  0.00    -0.390 OA
ATOM     17  H4  UNL     1      51.041  28.361  15.854  1.00  0.00     0.210 HD
ENDBRANCH   4  16
BRANCH   1  18
HETATM   18  C1  UNL     1      46.935  28.526  11.902  1.00  0.00     0.205 C 
HETATM   19  O1  UNL     1      46.972  29.415  11.032  1.00  0.00    -0.646 OA
HETATM   20  O2  UNL     1      45.743  27.793  12.051  1.00  0.00    -0.646 OA
ENDBRANCH   1  18
BRANCH   5  21
HETATM   21  O5  UNL     1      51.150  29.619  13.796  1.00  0.00    -0.390 OA
ATOM     22  H5  UNL     1      51.113  30.464  13.364  1.00  0.00     0.210 HD
ENDBRANCH   5  21
BRANCH   6  23
HETATM   23  O6  UNL     1      49.429  29.881  11.947  1.00  0.00    -0.390 OA
ATOM     24  H6  UNL     1      49.467  30.830  11.993  1.00  0.00     0.210 HD
ENDBRANCH   6  23
TORSDOF 10
ENDMDL
MODEL 3
REMARK VINA RESULT: -6.646215970      4.334      6.038
REMARK  10 active torsions:
REMARK  status: ('A' for Active; 'I' for Inactive)
REMARK    1  A    between atoms: C1_2  and  C2_4 
REMARK    2  A    between atoms: C3_6  and  C4_7 
REMARK    3  A    between atoms: C4_7  and  C5_8 
REMARK    4  A    between atoms: C4_7  and  C7_13 
REMARK    5  A    between atoms: C5_8  and  S1_9 
REMARK    6  A    between atoms: S1_9  and  S2_10 
REMARK    7  A    between atoms: S2_10  and  C6_11 
REMARK    8  A    between atoms: C8_16  and  O4_17 
REMARK    9  A    between atoms: C9_19  and  O5_20 
REMARK   10  A    between atoms: C10_22  and  O6_23 
ROOT
HETATM    1  C2  UNL     1      48.600  27.935  12.908  1.00  0.00     0.254 C 
HETATM    2  O3  UNL     1      48.220  26.854  13.695  1.00  0.00    -0.364 OA
HETATM    3  C3  UNL     1      49.180  26.488  14.607  1.00  0.00     0.164 C 
HETATM    4  C8  UNL     1      50.500  27.199  14.403  1.00  0.00     0.179 C 
HETATM    5  C9  UNL     1      50.225  28.674  14.630  1.00  0.00     0.181 C 
HETATM    6  C10 UNL     1      49.117  29.106  13.702  1.00  0.00     0.189 C 
ENDROOT
BRANCH   3   7
HETATM    7  C4  UNL     1      49.444  24.999  14.659  1.00  0.00     0.092 C 
BRANCH   7   8
HETATM    8  C5  UNL     1      50.932  24.740  14.506  1.00  0.00     0.099 C 
BRANCH   8   9
HETATM    9  S1  UNL     1      51.376  23.146  15.243  1.00  0.00    -0.096 SA
BRANCH   9  10
HETATM   10  S2  UNL     1      50.712  21.524  14.044  1.00  0.00    -0.083 SA
BRANCH  10  11
HETATM   11  C6  UNL     1      51.476  19.966  14.533  1.00  0.00     0.200 C 
HETATM   12 CL1  UNL     1      51.085  18.650  13.416  1.00  0.00    -0.119 Cl
ENDBRANCH  10  11
ENDBRANCH   9  10
ENDBRANCH   8   9
ENDBRANCH   7   8
BRANCH   7  13
HETATM   13  C7  UNL     1      49.068  24.504  16.036  1.00  0.00     0.360 C 
HETATM   14  F1  UNL     1      48.270  25.391  16.731  1.00  0.00    -0.214 F 
HETATM   15  F2  UNL     1      48.372  23.321  15.854  1.00  0.00    -0.214 F 
ENDBRANCH   7  13
ENDBRANCH   3   7
BRANCH   4  16
HETATM   16  O4  UNL     1      51.357  26.785  15.425  1.00  0.00    -0.390 OA
ATOM     17  H4  UNL     1      51.939  27.511  15.618  1.00  0.00     0.210 HD
ENDBRANCH   4  16
BRANCH   1  18
HETATM   18  C1  UNL     1      47.406  28.370  12.122  1.00  0.00     0.205 C 
HETATM   19  O1  UNL     1      47.392  29.342  11.346  1.00  0.00    -0.646 OA
HETATM   20  O2  UNL     1      46.220  27.627  12.274  1.00  0.00    -0.646 OA
ENDBRANCH   1  18
BRANCH   5  21
HETATM   21  O5  UNL     1      51.367  29.444  14.510  1.00  0.00    -0.390 OA
ATOM     22  H5  UNL     1      51.387  29.931  13.694  1.00  0.00     0.210 HD
ENDBRANCH   5  21
BRANCH   6  23
HETATM   23  O6  UNL     1      49.606  30.038  12.780  1.00  0.00    -0.390 OA
ATOM     24  H6  UNL     1      50.436  30.352  13.118  1.00  0.00     0.210 HD
ENDBRANCH   6  23
TORSDOF 10
ENDMDL
MODEL 4
REMARK VINA RESULT: -6.636316748      3.972      5.670
REMARK  10 active torsions:
REMARK  status: ('A' for Active; 'I' for Inactive)
REMARK    1  A    between atoms: C1_2  and  C2_4 
REMARK    2  A    between atoms: C3_6  and  C4_7 
REMARK    3  A    between atoms: C4_7  and  C5_8 
REMARK    4  A    between atoms: C4_7  and  C7_13 
REMARK    5  A    between atoms: C5_8  and  S1_9 
REMARK    6  A    between atoms: S1_9  and  S2_10 
REMARK    7  A    between atoms: S2_10  and  C6_11 
REMARK    8  A    between atoms: C8_16  and  O4_17 
REMARK    9  A    between atoms: C9_19  and  O5_20 
REMARK   10  A    between atoms: C10_22  and  O6_23 
ROOT
HETATM    1  C2  UNL     1      47.995  28.247  12.767  1.00  0.00     0.254 C 
HETATM    2  O3  UNL     1      47.429  27.665  13.895  1.00  0.00    -0.364 OA
HETATM    3  C3  UNL     1      48.330  27.482  14.916  1.00  0.00     0.164 C 
HETATM    4  C8  UNL     1      49.760  27.757  14.507  1.00  0.00     0.179 C 
HETATM    5  C9  UNL     1      49.819  29.226  14.133  1.00  0.00     0.181 C 
HETATM    6  C10 UNL     1      48.787  29.493  13.065  1.00  0.00     0.189 C 
ENDROOT
BRANCH   3   7
HETATM    7  C4  UNL     1      48.270  26.112  15.552  1.00  0.00     0.092 C 
BRANCH   7   8
HETATM    8  C5  UNL     1      49.460  25.287  15.096  1.00  0.00     0.099 C 
BRANCH   8   9
HETATM    9  S1  UNL     1      49.181  23.529  15.438  1.00  0.00    -0.096 SA
BRANCH   9  10
HETATM   10  S2  UNL     1      50.931  22.382  15.083  1.00  0.00    -0.083 SA
BRANCH  10  11
HETATM   11  C6  UNL     1      52.197  23.331  14.219  1.00  0.00     0.200 C 
HETATM   12 CL1  UNL     1      52.789  24.691  15.186  1.00  0.00    -0.119 Cl
ENDBRANCH  10  11
ENDBRANCH   9  10
ENDBRANCH   8   9
ENDBRANCH   7   8
BRANCH   7  13
HETATM   13  C7  UNL     1      48.421  26.281  17.046  1.00  0.00     0.360 C 
HETATM   14  F1  UNL     1      48.286  27.591  17.459  1.00  0.00    -0.214 F 
HETATM   15  F2  UNL     1      47.422  25.521  17.632  1.00  0.00    -0.214 F 
ENDBRANCH   7  13
ENDBRANCH   3   7
BRANCH   4  16
HETATM   16  O4  UNL     1      50.556  27.597  15.644  1.00  0.00    -0.390 OA
ATOM     17  H4  UNL     1      51.447  27.453  15.347  1.00  0.00     0.210 HD
ENDBRANCH   4  16
BRANCH   1  18
HETATM   18  C1  UNL     1      46.886  28.590  11.825  1.00  0.00     0.205 C 
HETATM   19  O1  UNL     1      46.955  29.473  10.951  1.00  0.00    -0.646 OA
HETATM   20  O2  UNL     1      45.685  27.864  11.940  1.00  0.00    -0.646 OA
ENDBRANCH   1  18
BRANCH   5  21
HETATM   21  O5  UNL     1      51.093  29.623  13.770  1.00  0.00    -0.390 OA
ATOM     22  H5  UNL     1      51.214  29.623  12.828  1.00  0.00     0.210 HD
ENDBRANCH   5  21
BRANCH   6  23
HETATM   23  O6  UNL     1      49.421  29.866  11.874  1.00  0.00    -0.390 OA
ATOM     24  H6  UNL     1      48.738  29.988  11.224  1.00  0.00     0.210 HD
ENDBRANCH   6  23
TORSDOF 10
ENDMDL
MODEL 5
REMARK VINA RESULT: -6.539775263      4.140      5.805
REMARK  10 active torsions:
REMARK  status: ('A' for Active; 'I' for Inactive)
REMARK    1  A    between atoms: C1_2  and  C2_4 
REMARK    2  A    between atoms: C3_6  and  C4_7 
REMARK    3  A    between atoms: C4_7  and  C5_8 
REMARK    4  A    between atoms: C4_7  and  C7_13 
REMARK    5  A    between atoms: C5_8  and  S1_9 
REMARK    6  A    between atoms: S1_9  and  S2_10 
REMARK    7  A    between atoms: S2_10  and  C6_11 
REMARK    8  A    between atoms: C8_16  and  O4_17 
REMARK    9  A    between atoms: C9_19  and  O5_20 
REMARK   10  A    between atoms: C10_22  and  O6_23 
ROOT
HETATM    1  C2  UNL     1      48.608  27.880  12.939  1.00  0.00     0.254 C 
HETATM    2  O3  UNL     1      48.266  26.772  13.705  1.00  0.00    -0.364 OA
HETATM    3  C3  UNL     1      49.246  26.412  14.598  1.00  0.00     0.164 C 
HETATM    4  C8  UNL     1      50.542  27.165  14.398  1.00  0.00     0.179 C 
HETATM    5  C9  UNL     1      50.229  28.626  14.661  1.00  0.00     0.181 C 
HETATM    6  C10 UNL     1      49.100  29.047  13.754  1.00  0.00     0.189 C 
ENDROOT
BRANCH   3   7
HETATM    7  C4  UNL     1      49.551  24.931  14.615  1.00  0.00     0.092 C 
BRANCH   7   8
HETATM    8  C5  UNL     1      51.052  24.720  14.530  1.00  0.00     0.099 C 
BRANCH   8   9
HETATM    9  S1  UNL     1      51.505  23.105  15.216  1.00  0.00    -0.096 SA
BRANCH   9  10
HETATM   10  S2  UNL     1      50.876  21.521  13.950  1.00  0.00    -0.083 SA
BRANCH  10  11
HETATM   11  C6  UNL     1      52.206  20.946  12.878  1.00  0.00     0.200 C 
HETATM   12 CL1  UNL     1      51.594  20.220  11.383  1.00  0.00    -0.119 Cl
ENDBRANCH  10  11
ENDBRANCH   9  10
ENDBRANCH   8   9
ENDBRANCH   7   8
BRANCH   7  13
HETATM   13  C7  UNL     1      49.121  24.378  15.953  1.00  0.00     0.360 C 
HETATM   14  F1  UNL     1      48.337  25.256  16.675  1.00  0.00    -0.214 F 
HETATM   15  F2  UNL     1      48.387  23.233  15.690  1.00  0.00    -0.214 F 
ENDBRANCH   7  13
ENDBRANCH   3   7
BRANCH   4  16
HETATM   16  O4  UNL     1      51.422  26.753  15.402  1.00  0.00    -0.390 OA
ATOM     17  H4  UNL     1      51.945  27.507  15.647  1.00  0.00     0.210 HD
ENDBRANCH   4  16
BRANCH   1  18
HETATM   18  C1  UNL     1      47.393  28.298  12.175  1.00  0.00     0.205 C 
HETATM   19  O1  UNL     1      46.267  27.785  12.310  1.00  0.00    -0.646 OA
HETATM   20  O2  UNL     1      47.538  29.341  11.241  1.00  0.00    -0.646 OA
ENDBRANCH   1  18
BRANCH   5  21
HETATM   21  O5  UNL     1      51.348  29.430  14.546  1.00  0.00    -0.390 OA
ATOM     22  H5  UNL     1      52.084  28.969  14.162  1.00  0.00     0.210 HD
ENDBRANCH   5  21
BRANCH   6  23
HETATM   23  O6  UNL     1      49.553  30.013  12.848  1.00  0.00    -0.390 OA
ATOM     24  H6  UNL     1      49.025  29.924  12.062  1.00  0.00     0.210 HD
ENDBRANCH   6  23
TORSDOF 10
ENDMDL
