MODEL 1
REMARK VINA RESULT: -6.297247986      0.000      0.000
REMARK  12 active torsions:
REMARK  status: ('A' for Active; 'I' for Inactive)
REMARK    1  A    between atoms: C4_8  and  O2_9 
REMARK    2  A    between atoms: C4_8  and  C5_11 
REMARK    3  A    between atoms: C5_11  and  N1_12 
REMARK    4  A    between atoms: C5_11  and  C6_16 
REMARK    5  A    between atoms: C6_16  and  O3_17 
REMARK    6  A    between atoms: O3_17  and  C7_18 
REMARK    7  A    between atoms: C7_18  and  C8_20 
REMARK    8  A    between atoms: C8_20  and  N2_21 
REMARK    9  A    between atoms: C8_20  and  C9_25 
REMARK   10  A    between atoms: C9_25  and  C10_26 
REMARK   11  A    between atoms: C10_26  and  C11_27 
REMARK   12  A    between atoms: C11_27  and  N3_28 
ROOT
HETATM    1  C6  UNL     1      47.362  29.106  13.771  1.00  0.00     0.217 C 
ENDROOT
BRANCH   1   2
HETATM    2  C5  UNL     1      48.808  28.812  14.180  1.00  0.00     0.271 C 
BRANCH   2   3
HETATM    3  C4  UNL     1      49.013  27.338  14.059  1.00  0.00     0.222 C 
HETATM    4  C2  UNL     1      49.994  26.723  15.031  1.00  0.00     0.151 C 
HETATM    5  C1  UNL     1      50.661  25.477  14.500  1.00  0.00     0.044 C 
HETATM    6 CL1  UNL     1      51.094  27.856  15.801  1.00  0.00    -0.108 Cl
HETATM    7  C3  UNL     1      48.769  26.348  15.829  1.00  0.00     0.245 C 
HETATM    8 CL2  UNL     1      48.638  24.588  16.164  1.00  0.00    -0.068 Cl
HETATM    9 CL3  UNL     1      48.499  27.347  17.257  1.00  0.00    -0.068 Cl
HETATM   10  O1  UNL     1      47.981  26.656  14.722  1.00  0.00    -0.308 OA
BRANCH   3  11
HETATM   11  O2  UNL     1      49.217  26.938  12.742  1.00  0.00    -0.362 OA
ATOM     12  H2  UNL     1      49.785  27.523  12.254  1.00  0.00     0.213 HD
ENDBRANCH   3  11
ENDBRANCH   2   3
BRANCH   2  13
HETATM   13  N1  UNL     1      49.735  29.598  13.424  1.00  0.00    -0.068 N 
ATOM     14  H13 UNL     1      50.253  29.010  12.772  1.00  0.00     0.275 HD
ATOM     15  H12 UNL     1      49.240  30.197  12.763  1.00  0.00     0.275 HD
ATOM     16  H11 UNL     1      50.377  30.150  13.994  1.00  0.00     0.275 HD
ENDBRANCH   2  13
ENDBRANCH   1   2
BRANCH   1  17
HETATM   17  O3  UNL     1      47.366  29.315  12.353  1.00  0.00    -0.318 OA
BRANCH  17  18
HETATM   18  C7  UNL     1      46.450  28.689  11.526  1.00  0.00     0.289 C 
HETATM   19  O4  UNL     1      45.724  27.807  12.008  1.00  0.00    -0.263 OA
BRANCH  18  20
HETATM   20  C8  UNL     1      46.321  29.049  10.094  1.00  0.00     0.282 C 
BRANCH  20  21
HETATM   21  N2  UNL     1      45.000  29.534   9.846  1.00  0.00    -0.066 N 
ATOM     22  H23 UNL     1      44.574  29.941  10.680  1.00  0.00     0.275 HD
ATOM     23  H22 UNL     1      44.998  30.369   9.262  1.00  0.00     0.275 HD
ATOM     24  H21 UNL     1      44.433  28.784   9.450  1.00  0.00     0.275 HD
ENDBRANCH  20  21
BRANCH  20  25
HETATM   25  C9  UNL     1      47.378  30.105   9.806  1.00  0.00     0.045 C 
BRANCH  25  26
HETATM   26  C10 UNL     1      47.535  30.353   8.337  1.00  0.00     0.030 C 
BRANCH  26  27
HETATM   27  C11 UNL     1      46.773  31.584   7.922  1.00  0.00     0.230 C 
BRANCH  27  28
HETATM   28  N3  UNL     1      46.771  31.637   6.468  1.00  0.00    -0.079 N 
ATOM     29  H33 UNL     1      45.941  31.207   6.057  1.00  0.00     0.274 HD
ATOM     30  H32 UNL     1      46.628  32.579   6.105  1.00  0.00     0.274 HD
ATOM     31  H31 UNL     1      47.638  31.213   6.138  1.00  0.00     0.274 HD
ENDBRANCH  27  28
ENDBRANCH  26  27
ENDBRANCH  25  26
ENDBRANCH  20  25
ENDBRANCH  18  20
ENDBRANCH  17  18
ENDBRANCH   1  17
TORSDOF 12
ENDMDL
MODEL 2
REMARK VINA RESULT: -6.199896227      1.458      2.151
REMARK  12 active torsions:
REMARK  status: ('A' for Active; 'I' for Inactive)
REMARK    1  A    between atoms: C4_8  and  O2_9 
REMARK    2  A    between atoms: C4_8  and  C5_11 
REMARK    3  A    between atoms: C5_11  and  N1_12 
REMARK    4  A    between atoms: C5_11  and  C6_16 
REMARK    5  A    between atoms: C6_16  and  O3_17 
REMARK    6  A    between atoms: O3_17  and  C7_18 
REMARK    7  A    between atoms: C7_18  and  C8_20 
REMARK    8  A    between atoms: C8_20  and  N2_21 
REMARK    9  A    between atoms: C8_20  and  C9_25 
REMARK   10  A    between atoms: C9_25  and  C10_26 
REMARK   11  A    between atoms: C10_26  and  C11_27 
REMARK   12  A    between atoms: C11_27  and  N3_28 
ROOT
HETATM    1  C6  UNL     1      47.618  27.751  12.412  1.00  0.00     0.217 C 
ENDROOT
BRANCH   1   2
HETATM    2  C5  UNL     1      47.885  27.823  13.918  1.00  0.00     0.271 C 
BRANCH   2   3
HETATM    3  C4  UNL     1      49.367  27.867  14.105  1.00  0.00     0.222 C 
HETATM    4  C2  UNL     1      49.877  27.438  15.461  1.00  0.00     0.151 C 
HETATM    5  C1  UNL     1      51.186  28.087  15.839  1.00  0.00     0.044 C 
HETATM    6 CL1  UNL     1      48.678  27.435  16.744  1.00  0.00    -0.108 Cl
HETATM    7  C3  UNL     1      50.138  26.107  14.799  1.00  0.00     0.245 C 
HETATM    8 CL2  UNL     1      51.844  25.561  14.927  1.00  0.00    -0.068 Cl
HETATM    9 CL3  UNL     1      48.975  24.850  15.214  1.00  0.00    -0.068 Cl
HETATM   10  O1  UNL     1      49.950  26.714  13.558  1.00  0.00    -0.308 OA
BRANCH   3  11
HETATM   11  O2  UNL     1      49.921  29.062  13.659  1.00  0.00    -0.362 OA
ATOM     12  H2  UNL     1      49.413  29.827  13.901  1.00  0.00     0.213 HD
ENDBRANCH   3  11
ENDBRANCH   2   3
BRANCH   2  13
HETATM   13  N1  UNL     1      47.185  28.916  14.522  1.00  0.00    -0.068 N 
ATOM     14  H13 UNL     1      46.843  28.653  15.446  1.00  0.00     0.275 HD
ATOM     15  H12 UNL     1      47.836  29.657  14.783  1.00  0.00     0.275 HD
ATOM     16  H11 UNL     1      46.425  29.291  13.954  1.00  0.00     0.275 HD
ENDBRANCH   2  13
ENDBRANCH   1   2
BRANCH   1  17
HETATM   17  O3  UNL     1      47.434  29.098  11.958  1.00  0.00    -0.318 OA
BRANCH  17  18
HETATM   18  C7  UNL     1      47.913  29.520  10.731  1.00  0.00     0.289 C 
HETATM   19  O4  UNL     1      49.055  29.999  10.674  1.00  0.00    -0.263 OA
BRANCH  18  20
HETATM   20  C8  UNL     1      47.098  29.411   9.498  1.00  0.00     0.282 C 
BRANCH  20  21
HETATM   21  N2  UNL     1      45.716  29.556   9.831  1.00  0.00    -0.066 N 
ATOM     22  H23 UNL     1      45.558  30.299  10.512  1.00  0.00     0.275 HD
ATOM     23  H22 UNL     1      45.172  29.947   9.062  1.00  0.00     0.275 HD
ATOM     24  H21 UNL     1      45.348  28.658  10.146  1.00  0.00     0.275 HD
ENDBRANCH  20  21
BRANCH  20  25
HETATM   25  C9  UNL     1      47.573  30.506   8.554  1.00  0.00     0.045 C 
BRANCH  25  26
HETATM   26  C10 UNL     1      46.436  31.330   8.035  1.00  0.00     0.030 C 
BRANCH  26  27
HETATM   27  C11 UNL     1      46.908  32.271   6.958  1.00  0.00     0.230 C 
BRANCH  27  28
HETATM   28  N3  UNL     1      46.778  31.585   5.680  1.00  0.00    -0.079 N 
ATOM     29  H33 UNL     1      47.449  30.824   5.570  1.00  0.00     0.274 HD
ATOM     30  H32 UNL     1      45.927  31.027   5.615  1.00  0.00     0.274 HD
ATOM     31  H31 UNL     1      46.849  32.285   4.942  1.00  0.00     0.274 HD
ENDBRANCH  27  28
ENDBRANCH  26  27
ENDBRANCH  25  26
ENDBRANCH  20  25
ENDBRANCH  18  20
ENDBRANCH  17  18
ENDBRANCH   1  17
TORSDOF 12
ENDMDL
MODEL 3
REMARK VINA RESULT: -6.179497466      4.960      7.592
REMARK  12 active torsions:
REMARK  status: ('A' for Active; 'I' for Inactive)
REMARK    1  A    between atoms: C4_8  and  O2_9 
REMARK    2  A    between atoms: C4_8  and  C5_11 
REMARK    3  A    between atoms: C5_11  and  N1_12 
REMARK    4  A    between atoms: C5_11  and  C6_16 
REMARK    5  A    between atoms: C6_16  and  O3_17 
REMARK    6  A    between atoms: O3_17  and  C7_18 
REMARK    7  A    between atoms: C7_18  and  C8_20 
REMARK    8  A    between atoms: C8_20  and  N2_21 
REMARK    9  A    between atoms: C8_20  and  C9_25 
REMARK   10  A    between atoms: C9_25  and  C10_26 
REMARK   11  A    between atoms: C10_26  and  C11_27 
REMARK   12  A    between atoms: C11_27  and  N3_28 
ROOT
HETATM    1  C6  UNL     1      51.107  24.195  13.815  1.00  0.00     0.217 C 
ENDROOT
BRANCH   1   2
HETATM    2  C5  UNL     1      51.137  25.597  14.429  1.00  0.00     0.271 C 
BRANCH   2   3
HETATM    3  C4  UNL     1      49.801  25.837  15.053  1.00  0.00     0.222 C 
HETATM    4  C2  UNL     1      49.594  27.200  15.672  1.00  0.00     0.151 C 
HETATM    5  C1  UNL     1      48.596  27.197  16.805  1.00  0.00     0.044 C 
HETATM    6 CL1  UNL     1      51.064  28.100  16.010  1.00  0.00    -0.108 Cl
HETATM    7  C3  UNL     1      48.896  27.539  14.377  1.00  0.00     0.245 C 
HETATM    8 CL2  UNL     1      47.211  28.122  14.598  1.00  0.00    -0.068 Cl
HETATM    9 CL3  UNL     1      49.842  28.552  13.287  1.00  0.00    -0.068 Cl
HETATM   10  O1  UNL     1      48.867  26.182  14.064  1.00  0.00    -0.308 OA
BRANCH   3  11
HETATM   11  O2  UNL     1      49.407  24.790  15.880  1.00  0.00    -0.362 OA
ATOM     12  H2  UNL     1      49.717  24.878  16.773  1.00  0.00     0.213 HD
ENDBRANCH   3  11
ENDBRANCH   2   3
BRANCH   2  13
HETATM   13  N1  UNL     1      52.241  25.753  15.326  1.00  0.00    -0.068 N 
ATOM     14  H13 UNL     1      52.042  26.479  16.014  1.00  0.00     0.275 HD
ATOM     15  H12 UNL     1      52.315  24.944  15.945  1.00  0.00     0.275 HD
ATOM     16  H11 UNL     1      53.133  25.932  14.865  1.00  0.00     0.275 HD
ENDBRANCH   2  13
ENDBRANCH   1   2
BRANCH   1  17
HETATM   17  O3  UNL     1      51.649  23.301  14.796  1.00  0.00    -0.318 OA
BRANCH  17  18
HETATM   18  C7  UNL     1      51.141  22.026  14.973  1.00  0.00     0.289 C 
HETATM   19  O4  UNL     1      50.169  21.876  15.729  1.00  0.00    -0.263 OA
BRANCH  18  20
HETATM   20  C8  UNL     1      51.727  20.852  14.284  1.00  0.00     0.282 C 
BRANCH  20  21
HETATM   21  N2  UNL     1      51.737  19.737  15.176  1.00  0.00    -0.066 N 
ATOM     22  H23 UNL     1      51.767  20.025  16.155  1.00  0.00     0.275 HD
ATOM     23  H22 UNL     1      50.842  19.249  15.197  1.00  0.00     0.275 HD
ATOM     24  H21 UNL     1      52.509  19.116  14.933  1.00  0.00     0.275 HD
ENDBRANCH  20  21
BRANCH  20  25
HETATM   25  C9  UNL     1      50.871  20.588  13.053  1.00  0.00     0.045 C 
BRANCH  25  26
HETATM   26  C10 UNL     1      51.702  20.449  11.814  1.00  0.00     0.030 C 
BRANCH  26  27
HETATM   27  C11 UNL     1      53.082  21.011  12.034  1.00  0.00     0.230 C 
BRANCH  27  28
HETATM   28  N3  UNL     1      53.387  21.891  10.915  1.00  0.00    -0.079 N 
ATOM     29  H33 UNL     1      53.935  21.432  10.188  1.00  0.00     0.274 HD
ATOM     30  H32 UNL     1      52.567  22.111  10.349  1.00  0.00     0.274 HD
ATOM     31  H31 UNL     1      53.844  22.723  11.288  1.00  0.00     0.274 HD
ENDBRANCH  27  28
ENDBRANCH  26  27
ENDBRANCH  25  26
ENDBRANCH  20  25
ENDBRANCH  18  20
ENDBRANCH  17  18
ENDBRANCH   1  17
TORSDOF 12
ENDMDL
MODEL 4
REMARK VINA RESULT: -6.178035427      4.696      7.627
REMARK  12 active torsions:
REMARK  status: ('A' for Active; 'I' for Inactive)
REMARK    1  A    between atoms: C4_8  and  O2_9 
REMARK    2  A    between atoms: C4_8  and  C5_11 
REMARK    3  A    between atoms: C5_11  and  N1_12 
REMARK    4  A    between atoms: C5_11  and  C6_16 
REMARK    5  A    between atoms: C6_16  and  O3_17 
REMARK    6  A    between atoms: O3_17  and  C7_18 
REMARK    7  A    between atoms: C7_18  and  C8_20 
REMARK    8  A    between atoms: C8_20  and  N2_21 
REMARK    9  A    between atoms: C8_20  and  C9_25 
REMARK   10  A    between atoms: C9_25  and  C10_26 
REMARK   11  A    between atoms: C10_26  and  C11_27 
REMARK   12  A    between atoms: C11_27  and  N3_28 
ROOT
HETATM    1  C6  UNL     1      51.003  24.548  14.640  1.00  0.00     0.217 C 
ENDROOT
BRANCH   1   2
HETATM    2  C5  UNL     1      49.890  25.264  15.409  1.00  0.00     0.271 C 
BRANCH   2   3
HETATM    3  C4  UNL     1      49.361  26.345  14.524  1.00  0.00     0.222 C 
HETATM    4  C2  UNL     1      48.973  27.634  15.209  1.00  0.00     0.151 C 
HETATM    5  C1  UNL     1      47.890  28.395  14.482  1.00  0.00     0.044 C 
HETATM    6 CL1  UNL     1      48.727  27.514  16.944  1.00  0.00    -0.108 Cl
HETATM    7  C3  UNL     1      50.330  28.126  14.768  1.00  0.00     0.245 C 
HETATM    8 CL2  UNL     1      50.266  29.625  13.780  1.00  0.00    -0.068 Cl
HETATM    9 CL3  UNL     1      51.530  28.197  16.057  1.00  0.00    -0.068 Cl
HETATM   10  O1  UNL     1      50.425  27.027  13.917  1.00  0.00    -0.308 OA
BRANCH   3  11
HETATM   11  O2  UNL     1      48.394  25.877  13.639  1.00  0.00    -0.362 OA
ATOM     12  H2  UNL     1      48.254  26.452  12.895  1.00  0.00     0.213 HD
ENDBRANCH   3  11
ENDBRANCH   2   3
BRANCH   2  13
HETATM   13  N1  UNL     1      48.895  24.343  15.871  1.00  0.00    -0.068 N 
ATOM     14  H13 UNL     1      48.016  24.492  15.377  1.00  0.00     0.275 HD
ATOM     15  H12 UNL     1      49.112  23.397  15.558  1.00  0.00     0.275 HD
ATOM     16  H11 UNL     1      48.745  24.360  16.880  1.00  0.00     0.275 HD
ENDBRANCH   2  13
ENDBRANCH   1   2
BRANCH   1  17
HETATM   17  O3  UNL     1      51.061  23.208  15.146  1.00  0.00    -0.318 OA
BRANCH  17  18
HETATM   18  C7  UNL     1      50.753  22.120  14.349  1.00  0.00     0.289 C 
HETATM   19  O4  UNL     1      49.560  21.866  14.130  1.00  0.00    -0.263 OA
BRANCH  18  20
HETATM   20  C8  UNL     1      51.809  21.263  13.760  1.00  0.00     0.282 C 
BRANCH  20  21
HETATM   21  N2  UNL     1      52.342  20.406  14.772  1.00  0.00    -0.066 N 
ATOM     22  H23 UNL     1      52.265  19.419  14.522  1.00  0.00     0.275 HD
ATOM     23  H22 UNL     1      53.358  20.461  14.830  1.00  0.00     0.275 HD
ATOM     24  H21 UNL     1      51.892  20.615  15.663  1.00  0.00     0.275 HD
ENDBRANCH  20  21
BRANCH  20  25
HETATM   25  C9  UNL     1      51.161  20.475  12.630  1.00  0.00     0.045 C 
BRANCH  25  26
HETATM   26  C10 UNL     1      52.121  20.212  11.511  1.00  0.00     0.030 C 
BRANCH  26  27
HETATM   27  C11 UNL     1      53.156  21.304  11.430  1.00  0.00     0.230 C 
BRANCH  27  28
HETATM   28  N3  UNL     1      54.315  20.767  10.732  1.00  0.00    -0.079 N 
ATOM     29  H33 UNL     1      54.511  21.256   9.858  1.00  0.00     0.274 HD
ATOM     30  H32 UNL     1      55.194  20.976  11.204  1.00  0.00     0.274 HD
ATOM     31  H31 UNL     1      54.164  19.767  10.600  1.00  0.00     0.274 HD
ENDBRANCH  27  28
ENDBRANCH  26  27
ENDBRANCH  25  26
ENDBRANCH  20  25
ENDBRANCH  18  20
ENDBRANCH  17  18
ENDBRANCH   1  17
TORSDOF 12
ENDMDL
MODEL 5
REMARK VINA RESULT: -5.812636098      4.696      8.069
REMARK  12 active torsions:
REMARK  status: ('A' for Active; 'I' for Inactive)
REMARK    1  A    between atoms: C4_8  and  O2_9 
REMARK    2  A    between atoms: C4_8  and  C5_11 
REMARK    3  A    between atoms: C5_11  and  N1_12 
REMARK    4  A    between atoms: C5_11  and  C6_16 
REMARK    5  A    between atoms: C6_16  and  O3_17 
REMARK    6  A    between atoms: O3_17  and  C7_18 
REMARK    7  A    between atoms: C7_18  and  C8_20 
REMARK    8  A    between atoms: C8_20  and  N2_21 
REMARK    9  A    between atoms: C8_20  and  C9_25 
REMARK   10  A    between atoms: C9_25  and  C10_26 
REMARK   11  A    between atoms: C10_26  and  C11_27 
REMARK   12  A    between atoms: C11_27  and  N3_28 
ROOT
HETATM    1  C6  UNL     1      51.135  24.704  14.585  1.00  0.00     0.217 C 
ENDROOT
BRANCH   1   2
HETATM    2  C5  UNL     1      49.948  25.297  15.348  1.00  0.00     0.271 C 
BRANCH   2   3
HETATM    3  C4  UNL     1      49.360  26.371  14.492  1.00  0.00     0.222 C 
HETATM    4  C2  UNL     1      48.955  27.641  15.205  1.00  0.00     0.151 C 
HETATM    5  C1  UNL     1      47.829  28.377  14.521  1.00  0.00     0.044 C 
HETATM    6 CL1  UNL     1      48.766  27.494  16.945  1.00  0.00    -0.108 Cl
HETATM    7  C3  UNL     1      50.282  28.178  14.729  1.00  0.00     0.245 C 
HETATM    8 CL2  UNL     1      50.144  29.685  13.761  1.00  0.00    -0.068 Cl
HETATM    9 CL3  UNL     1      51.520  28.271  15.981  1.00  0.00    -0.068 Cl
HETATM   10  O1  UNL     1      50.385  27.093  13.861  1.00  0.00    -0.308 OA
BRANCH   3  11
HETATM   11  O2  UNL     1      48.381  25.885  13.631  1.00  0.00    -0.362 OA
ATOM     12  H2  UNL     1      48.587  26.017  12.714  1.00  0.00     0.213 HD
ENDBRANCH   3  11
ENDBRANCH   2   3
BRANCH   2  13
HETATM   13  N1  UNL     1      49.017  24.283  15.740  1.00  0.00    -0.068 N 
ATOM     14  H13 UNL     1      48.080  24.513  15.410  1.00  0.00     0.275 HD
ATOM     15  H12 UNL     1      49.181  23.425  15.212  1.00  0.00     0.275 HD
ATOM     16  H11 UNL     1      49.005  24.089  16.741  1.00  0.00     0.275 HD
ENDBRANCH   2  13
ENDBRANCH   1   2
BRANCH   1  17
HETATM   17  O3  UNL     1      51.553  23.540  15.309  1.00  0.00    -0.318 OA
BRANCH  17  18
HETATM   18  C7  UNL     1      51.189  22.268  14.906  1.00  0.00     0.289 C 
HETATM   19  O4  UNL     1      50.762  21.476  15.759  1.00  0.00    -0.263 OA
BRANCH  18  20
HETATM   20  C8  UNL     1      51.297  21.838  13.491  1.00  0.00     0.282 C 
BRANCH  20  21
HETATM   21  N2  UNL     1      52.663  21.550  13.187  1.00  0.00    -0.066 N 
ATOM     22  H23 UNL     1      53.306  21.989  13.846  1.00  0.00     0.275 HD
ATOM     23  H22 UNL     1      52.904  20.577  13.377  1.00  0.00     0.275 HD
ATOM     24  H21 UNL     1      52.857  21.815  12.222  1.00  0.00     0.275 HD
ENDBRANCH  20  21
BRANCH  20  25
HETATM   25  C9  UNL     1      50.407  20.613  13.331  1.00  0.00     0.045 C 
BRANCH  25  26
HETATM   26  C10 UNL     1      51.171  19.432  12.817  1.00  0.00     0.030 C 
BRANCH  26  27
HETATM   27  C11 UNL     1      51.014  18.254  13.744  1.00  0.00     0.230 C 
BRANCH  27  28
HETATM   28  N3  UNL     1      51.565  18.630  15.038  1.00  0.00    -0.079 N 
ATOM     29  H33 UNL     1      51.586  19.640  15.181  1.00  0.00     0.274 HD
ATOM     30  H32 UNL     1      50.947  18.396  15.814  1.00  0.00     0.274 HD
ATOM     31  H31 UNL     1      52.486  18.199  15.122  1.00  0.00     0.274 HD
ENDBRANCH  27  28
ENDBRANCH  26  27
ENDBRANCH  25  26
ENDBRANCH  20  25
ENDBRANCH  18  20
ENDBRANCH  17  18
ENDBRANCH   1  17
TORSDOF 12
ENDMDL
