MODEL 1
REMARK VINA RESULT: -6.340284277      0.000      0.000
REMARK  5 active torsions:
REMARK  status: ('A' for Active; 'I' for Inactive)
REMARK    1  A    between atoms: N2_3  and  C2_5 
REMARK    2  A    between atoms: C2_5  and  C3_6 
REMARK    3  A    between atoms: C3_6  and  C4_7 
REMARK    4  A    between atoms: C4_7  and  N3_8 
REMARK    5  A    between atoms: C5_13  and  N7_14 
ROOT
HETATM    1  N1  UNL     1      51.499  27.991  15.743  1.00  0.00    -0.172 NA
HETATM    2  C1  UNL     1      50.589  28.367  15.112  1.00  0.00     0.177 C 
HETATM    3  N2  UNL     1      49.513  28.834  14.360  1.00  0.00    -0.329 N 
ATOM      4  H2  UNL     1      49.610  29.692  13.817  1.00  0.00     0.171 HD
ENDROOT
BRANCH   3   5
HETATM    5  C2  UNL     1      48.279  28.127  14.343  1.00  0.00     0.133 C 
BRANCH   5   6
HETATM    6  C3  UNL     1      47.215  28.744  13.448  1.00  0.00     0.042 C 
BRANCH   6   7
HETATM    7  C4  UNL     1      47.281  28.010  12.126  1.00  0.00     0.167 C 
BRANCH   7   8
HETATM    8  N3  UNL     1      46.887  28.848  11.011  1.00  0.00    -0.109 N 
HETATM    9  N4  UNL     1      45.643  29.040  10.564  1.00  0.00     0.009 NA
HETATM   10  N5  UNL     1      45.713  29.871   9.530  1.00  0.00     0.007 NA
HETATM   11  N6  UNL     1      46.966  30.224   9.290  1.00  0.00    -0.117 N 
HETATM   12  C5  UNL     1      47.697  29.581  10.221  1.00  0.00     0.703 A 
ATOM     13  H6  UNL     1      47.305  30.848   8.558  1.00  0.00     0.202 HD
BRANCH  12  14
HETATM   14  N7  UNL     1      48.977  29.602  10.408  1.00  0.00    -0.232 N 
ATOM     15  H72 UNL     1      49.503  29.942  11.213  1.00  0.00     0.174 HD
ATOM     16  H71 UNL     1      49.621  29.246   9.701  1.00  0.00     0.174 HD
ENDBRANCH  12  14
ENDBRANCH   7   8
ENDBRANCH   6   7
ENDBRANCH   5   6
ENDBRANCH   3   5
TORSDOF 5
ENDMDL
MODEL 2
REMARK VINA RESULT: -6.257229431      1.243      2.000
REMARK  5 active torsions:
REMARK  status: ('A' for Active; 'I' for Inactive)
REMARK    1  A    between atoms: N2_3  and  C2_5 
REMARK    2  A    between atoms: C2_5  and  C3_6 
REMARK    3  A    between atoms: C3_6  and  C4_7 
REMARK    4  A    between atoms: C4_7  and  N3_8 
REMARK    5  A    between atoms: C5_13  and  N7_14 
ROOT
HETATM    1  N1  UNL     1      50.427  28.401  15.086  1.00  0.00    -0.172 NA
HETATM    2  C1  UNL     1      49.306  28.241  14.798  1.00  0.00     0.177 C 
HETATM    3  N2  UNL     1      47.969  28.031  14.464  1.00  0.00    -0.329 N 
ATOM      4  H2  UNL     1      47.405  27.387  15.019  1.00  0.00     0.171 HD
ENDROOT
BRANCH   3   5
HETATM    5  C2  UNL     1      47.383  28.705  13.358  1.00  0.00     0.133 C 
BRANCH   5   6
HETATM    6  C3  UNL     1      48.372  29.121  12.281  1.00  0.00     0.042 C 
BRANCH   6   7
HETATM    7  C4  UNL     1      47.918  28.461  10.996  1.00  0.00     0.167 C 
BRANCH   7   8
HETATM    8  N3  UNL     1      47.444  29.424  10.022  1.00  0.00    -0.109 N 
HETATM    9  N4  UNL     1      48.199  30.169   9.210  1.00  0.00     0.009 NA
HETATM   10  N5  UNL     1      47.381  30.920   8.480  1.00  0.00     0.007 NA
HETATM   11  N6  UNL     1      46.117  30.687   8.793  1.00  0.00    -0.117 N 
HETATM   12  C5  UNL     1      46.162  29.748   9.759  1.00  0.00     0.703 A 
ATOM     13  H6  UNL     1      45.288  31.123   8.391  1.00  0.00     0.202 HD
BRANCH  12  14
HETATM   14  N7  UNL     1      45.184  29.186  10.393  1.00  0.00    -0.232 N 
ATOM     15  H72 UNL     1      45.203  28.663  11.269  1.00  0.00     0.174 HD
ATOM     16  H71 UNL     1      44.229  29.224  10.036  1.00  0.00     0.174 HD
ENDBRANCH  12  14
ENDBRANCH   7   8
ENDBRANCH   6   7
ENDBRANCH   5   6
ENDBRANCH   3   5
TORSDOF 5
ENDMDL
MODEL 3
REMARK VINA RESULT: -6.068544234      0.792      1.716
REMARK  5 active torsions:
REMARK  status: ('A' for Active; 'I' for Inactive)
REMARK    1  A    between atoms: N2_3  and  C2_5 
REMARK    2  A    between atoms: C2_5  and  C3_6 
REMARK    3  A    between atoms: C3_6  and  C4_7 
REMARK    4  A    between atoms: C4_7  and  N3_8 
REMARK    5  A    between atoms: C5_13  and  N7_14 
ROOT
HETATM    1  N1  UNL     1      51.508  28.304  15.492  1.00  0.00    -0.172 NA
HETATM    2  C1  UNL     1      50.401  28.337  15.116  1.00  0.00     0.177 C 
HETATM    3  N2  UNL     1      49.077  28.358  14.679  1.00  0.00    -0.329 N 
ATOM      4  H2  UNL     1      48.372  27.818  15.180  1.00  0.00     0.171 HD
ENDROOT
BRANCH   3   5
HETATM    5  C2  UNL     1      48.702  29.123  13.541  1.00  0.00     0.133 C 
BRANCH   5   6
HETATM    6  C3  UNL     1      47.290  28.854  13.043  1.00  0.00     0.042 C 
BRANCH   6   7
HETATM    7  C4  UNL     1      47.426  28.132  11.719  1.00  0.00     0.167 C 
BRANCH   7   8
HETATM    8  N3  UNL     1      47.455  29.046  10.595  1.00  0.00    -0.109 N 
HETATM    9  N4  UNL     1      48.545  29.574  10.030  1.00  0.00     0.009 NA
HETATM   10  N5  UNL     1      48.141  30.358   9.037  1.00  0.00     0.007 NA
HETATM   11  N6  UNL     1      46.821  30.358   8.940  1.00  0.00    -0.117 N 
HETATM   12  C5  UNL     1      46.396  29.533   9.917  1.00  0.00     0.703 A 
ATOM     13  H6  UNL     1      46.249  30.871   8.270  1.00  0.00     0.202 HD
BRANCH  12  14
HETATM   14  N7  UNL     1      45.187  29.199  10.233  1.00  0.00    -0.232 N 
ATOM     15  H72 UNL     1      44.325  29.735  10.126  1.00  0.00     0.174 HD
ATOM     16  H71 UNL     1      44.980  28.292  10.650  1.00  0.00     0.174 HD
ENDBRANCH  12  14
ENDBRANCH   7   8
ENDBRANCH   6   7
ENDBRANCH   5   6
ENDBRANCH   3   5
TORSDOF 5
ENDMDL
MODEL 4
REMARK VINA RESULT: -5.890992169      1.404      2.385
REMARK  5 active torsions:
REMARK  status: ('A' for Active; 'I' for Inactive)
REMARK    1  A    between atoms: N2_3  and  C2_5 
REMARK    2  A    between atoms: C2_5  and  C3_6 
REMARK    3  A    between atoms: C3_6  and  C4_7 
REMARK    4  A    between atoms: C4_7  and  N3_8 
REMARK    5  A    between atoms: C5_13  and  N7_14 
ROOT
HETATM    1  N1  UNL     1      46.793  27.555  15.890  1.00  0.00    -0.172 NA
HETATM    2  C1  UNL     1      47.737  27.958  15.330  1.00  0.00     0.177 C 
HETATM    3  N2  UNL     1      48.872  28.440  14.681  1.00  0.00    -0.329 N 
ATOM      4  H2  UNL     1      49.787  28.337  15.119  1.00  0.00     0.171 HD
ENDROOT
BRANCH   3   5
HETATM    5  C2  UNL     1      48.768  29.076  13.413  1.00  0.00     0.133 C 
BRANCH   5   6
HETATM    6  C3  UNL     1      47.402  28.946  12.757  1.00  0.00     0.042 C 
BRANCH   6   7
HETATM    7  C4  UNL     1      47.621  28.239  11.435  1.00  0.00     0.167 C 
BRANCH   7   8
HETATM    8  N3  UNL     1      47.525  29.142  10.307  1.00  0.00    -0.109 N 
HETATM    9  N4  UNL     1      48.545  29.664   9.620  1.00  0.00     0.009 NA
HETATM   10  N5  UNL     1      48.033  30.440   8.670  1.00  0.00     0.007 NA
HETATM   11  N6  UNL     1      46.711  30.440   8.720  1.00  0.00    -0.117 N 
HETATM   12  C5  UNL     1      46.397  29.625   9.746  1.00  0.00     0.703 A 
ATOM     13  H6  UNL     1      46.068  30.947   8.113  1.00  0.00     0.202 HD
BRANCH  12  14
HETATM   14  N7  UNL     1      45.230  29.295  10.197  1.00  0.00    -0.232 N 
ATOM     15  H72 UNL     1      44.658  29.763  10.900  1.00  0.00     0.174 HD
ATOM     16  H71 UNL     1      44.744  28.467   9.853  1.00  0.00     0.174 HD
ENDBRANCH  12  14
ENDBRANCH   7   8
ENDBRANCH   6   7
ENDBRANCH   5   6
ENDBRANCH   3   5
TORSDOF 5
ENDMDL
MODEL 5
REMARK VINA RESULT: -5.840813853      1.393      2.476
REMARK  5 active torsions:
REMARK  status: ('A' for Active; 'I' for Inactive)
REMARK    1  A    between atoms: N2_3  and  C2_5 
REMARK    2  A    between atoms: C2_5  and  C3_6 
REMARK    3  A    between atoms: C3_6  and  C4_7 
REMARK    4  A    between atoms: C4_7  and  N3_8 
REMARK    5  A    between atoms: C5_13  and  N7_14 
ROOT
HETATM    1  N1  UNL     1      52.953  28.271  17.174  1.00  0.00    -0.172 NA
HETATM    2  C1  UNL     1      52.201  28.004  16.320  1.00  0.00     0.177 C 
HETATM    3  N2  UNL     1      51.317  27.671  15.295  1.00  0.00    -0.329 N 
ATOM      4  H2  UNL     1      51.369  26.748  14.864  1.00  0.00     0.171 HD
ENDROOT
BRANCH   3   5
HETATM    5  C2  UNL     1      50.343  28.604  14.845  1.00  0.00     0.133 C 
BRANCH   5   6
HETATM    6  C3  UNL     1      49.046  27.974  14.363  1.00  0.00     0.042 C 
BRANCH   6   7
HETATM    7  C4  UNL     1      48.160  29.108  13.894  1.00  0.00     0.167 C 
BRANCH   7   8
HETATM    8  N3  UNL     1      48.109  29.204  12.449  1.00  0.00    -0.109 N 
HETATM    9  N4  UNL     1      48.995  29.824  11.663  1.00  0.00     0.009 NA
HETATM   10  N5  UNL     1      48.583  29.684  10.408  1.00  0.00     0.007 NA
HETATM   11  N6  UNL     1      47.456  28.993  10.353  1.00  0.00    -0.117 N 
HETATM   12  C5  UNL     1      47.163  28.695  11.634  1.00  0.00     0.703 A 
ATOM     13  H6  UNL     1      46.923  28.742   9.521  1.00  0.00     0.202 HD
BRANCH  12  14
HETATM   14  N7  UNL     1      46.159  28.029  12.106  1.00  0.00    -0.232 N 
ATOM     15  H72 UNL     1      45.214  28.354  12.312  1.00  0.00     0.174 HD
ATOM     16  H71 UNL     1      46.239  27.037  12.329  1.00  0.00     0.174 HD
ENDBRANCH  12  14
ENDBRANCH   7   8
ENDBRANCH   6   7
ENDBRANCH   5   6
ENDBRANCH   3   5
TORSDOF 5
ENDMDL
