MODEL 1
REMARK VINA RESULT: -5.862878264      0.000      0.000
REMARK  4 active torsions:
REMARK  status: ('A' for Active; 'I' for Inactive)
REMARK    1  A    between atoms: N1_1  and  C1_5 
REMARK    2  A    between atoms: C1_5  and  C2_6 
REMARK    3  A    between atoms: C2_6  and  N2_7 
REMARK    4  A    between atoms: N2_7  and  N3_9 
ROOT
HETATM    1  N3  UNL     1      48.589  28.391  12.574  1.00  0.00    -0.289 N 
ATOM      2  H3  UNL     1      49.555  28.635  12.359  1.00  0.00     0.188 HD
HETATM    3  C3  UNL     1      47.617  28.710  11.766  1.00  0.00     0.139 A 
HETATM    4  C4  UNL     1      46.307  28.395  12.030  1.00  0.00     0.157 A 
HETATM    5  N4  UNL     1      45.342  28.749  11.161  1.00  0.00    -0.306 N 
ATOM      6  H4  UNL     1      44.373  28.507  11.369  1.00  0.00     0.186 HD
HETATM    7  N5  UNL     1      45.616  29.401  10.042  1.00  0.00    -0.274 N 
ATOM      8  H5  UNL     1      44.869  29.661   9.397  1.00  0.00     0.189 HD
HETATM    9  C5  UNL     1      46.892  29.715   9.772  1.00  0.00     0.208 A 
HETATM   10  N6  UNL     1      47.184  30.414   8.575  1.00  0.00    -0.062 NA
HETATM   11  N7  UNL     1      47.878  29.372  10.626  1.00  0.00    -0.313 N 
ATOM     12  H7  UNL     1      48.841  29.621  10.402  1.00  0.00     0.170 HD
ENDROOT
BRANCH   1  13
HETATM   13  N2  UNL     1      48.260  27.703  13.744  1.00  0.00    -0.333 N 
ATOM     14  H2  UNL     1      47.562  26.959  13.728  1.00  0.00     0.180 HD
BRANCH  13  15
HETATM   15  C2  UNL     1      48.917  28.056  14.971  1.00  0.00     0.166 C 
BRANCH  15  16
HETATM   16  C1  UNL     1      50.250  28.723  14.735  1.00  0.00     0.250 C 
BRANCH  16  17
HETATM   17  N1  UNL     1      51.281  28.007  15.353  1.00  0.00    -0.078 N 
ATOM     18  H13 UNL     1      51.851  28.607  15.949  1.00  0.00     0.274 HD
ATOM     19  H12 UNL     1      50.924  27.374  16.069  1.00  0.00     0.274 HD
ATOM     20  H11 UNL     1      51.847  27.515  14.662  1.00  0.00     0.274 HD
ENDBRANCH  16  17
ENDBRANCH  15  16
ENDBRANCH  13  15
ENDBRANCH   1  13
TORSDOF 4
ENDMDL
MODEL 2
REMARK VINA RESULT: -5.600730807      0.842      1.681
REMARK  4 active torsions:
REMARK  status: ('A' for Active; 'I' for Inactive)
REMARK    1  A    between atoms: N1_1  and  C1_5 
REMARK    2  A    between atoms: C1_5  and  C2_6 
REMARK    3  A    between atoms: C2_6  and  N2_7 
REMARK    4  A    between atoms: N2_7  and  N3_9 
ROOT
HETATM    1  N3  UNL     1      47.326  27.770  13.152  1.00  0.00    -0.289 N 
ATOM      2  H3  UNL     1      46.419  27.513  13.541  1.00  0.00     0.188 HD
HETATM    3  C3  UNL     1      47.417  28.436  12.036  1.00  0.00     0.139 A 
HETATM    4  C4  UNL     1      48.624  28.795  11.488  1.00  0.00     0.157 A 
HETATM    5  N4  UNL     1      48.660  29.484  10.333  1.00  0.00    -0.306 N 
ATOM      6  H4  UNL     1      49.564  29.744   9.938  1.00  0.00     0.186 HD
HETATM    7  N5  UNL     1      47.554  29.833   9.694  1.00  0.00    -0.274 N 
ATOM      8  H5  UNL     1      47.604  30.354   8.818  1.00  0.00     0.189 HD
HETATM    9  C5  UNL     1      46.368  29.489  10.219  1.00  0.00     0.208 A 
HETATM   10  N6  UNL     1      45.185  29.863   9.534  1.00  0.00    -0.062 NA
HETATM   11  N7  UNL     1      46.304  28.799  11.375  1.00  0.00    -0.313 N 
ATOM     12  H7  UNL     1      45.392  28.547  11.756  1.00  0.00     0.170 HD
ENDROOT
BRANCH   1  13
HETATM   13  N2  UNL     1      48.515  27.419  13.796  1.00  0.00    -0.333 N 
ATOM     14  H2  UNL     1      49.065  26.625  13.470  1.00  0.00     0.180 HD
BRANCH  13  15
HETATM   15  C2  UNL     1      48.953  28.191  14.924  1.00  0.00     0.166 C 
BRANCH  15  16
HETATM   16  C1  UNL     1      50.341  28.752  14.730  1.00  0.00     0.250 C 
BRANCH  16  17
HETATM   17  N1  UNL     1      51.284  28.006  15.443  1.00  0.00    -0.078 N 
ATOM     18  H13 UNL     1      50.844  27.429  16.160  1.00  0.00     0.274 HD
ATOM     19  H12 UNL     1      51.687  27.263  14.872  1.00  0.00     0.274 HD
ATOM     20  H11 UNL     1      52.004  28.612  15.837  1.00  0.00     0.274 HD
ENDBRANCH  16  17
ENDBRANCH  15  16
ENDBRANCH  13  15
ENDBRANCH   1  13
TORSDOF 4
ENDMDL
MODEL 3
REMARK VINA RESULT: -5.400728314      1.612      5.622
REMARK  4 active torsions:
REMARK  status: ('A' for Active; 'I' for Inactive)
REMARK    1  A    between atoms: N1_1  and  C1_5 
REMARK    2  A    between atoms: C1_5  and  C2_6 
REMARK    3  A    between atoms: C2_6  and  N2_7 
REMARK    4  A    between atoms: N2_7  and  N3_9 
ROOT
HETATM    1  N3  UNL     1      46.458  28.646  11.424  1.00  0.00    -0.289 N 
ATOM      2  H3  UNL     1      45.526  28.233  11.447  1.00  0.00     0.188 HD
HETATM    3  C3  UNL     1      47.225  28.640  12.477  1.00  0.00     0.139 A 
HETATM    4  C4  UNL     1      48.484  29.189  12.475  1.00  0.00     0.157 A 
HETATM    5  N4  UNL     1      49.234  29.155  13.592  1.00  0.00    -0.306 N 
ATOM      6  H4  UNL     1      50.168  29.566  13.576  1.00  0.00     0.186 HD
HETATM    7  N5  UNL     1      48.794  28.603  14.711  1.00  0.00    -0.274 N 
ATOM      8  H5  UNL     1      49.378  28.589  15.548  1.00  0.00     0.189 HD
HETATM    9  C5  UNL     1      47.566  28.063  14.727  1.00  0.00     0.208 A 
HETATM   10  N6  UNL     1      47.095  27.472  15.926  1.00  0.00    -0.062 NA
HETATM   11  N7  UNL     1      46.794  28.083  13.622  1.00  0.00    -0.313 N 
ATOM     12  H7  UNL     1      45.863  27.668  13.655  1.00  0.00     0.170 HD
ENDROOT
BRANCH   1  13
HETATM   13  N2  UNL     1      46.958  29.238  10.261  1.00  0.00    -0.333 N 
ATOM     14  H2  UNL     1      47.904  29.032   9.942  1.00  0.00     0.180 HD
BRANCH  13  15
HETATM   15  C2  UNL     1      46.122  30.140   9.521  1.00  0.00     0.166 C 
BRANCH  15  16
HETATM   16  C1  UNL     1      46.889  30.892   8.460  1.00  0.00     0.250 C 
BRANCH  16  17
HETATM   17  N1  UNL     1      46.096  31.890   7.886  1.00  0.00    -0.078 N 
ATOM     18  H13 UNL     1      45.945  32.668   8.528  1.00  0.00     0.274 HD
ATOM     19  H12 UNL     1      46.596  32.392   7.151  1.00  0.00     0.274 HD
ATOM     20  H11 UNL     1      45.215  31.504   7.547  1.00  0.00     0.274 HD
ENDBRANCH  16  17
ENDBRANCH  15  16
ENDBRANCH  13  15
ENDBRANCH   1  13
TORSDOF 4
ENDMDL
MODEL 4
REMARK VINA RESULT: -5.330474615      1.154      5.316
REMARK  4 active torsions:
REMARK  status: ('A' for Active; 'I' for Inactive)
REMARK    1  A    between atoms: N1_1  and  C1_5 
REMARK    2  A    between atoms: C1_5  and  C2_6 
REMARK    3  A    between atoms: C2_6  and  N2_7 
REMARK    4  A    between atoms: N2_7  and  N3_9 
ROOT
HETATM    1  N3  UNL     1      47.796  29.225  11.005  1.00  0.00    -0.289 N 
ATOM      2  H3  UNL     1      48.592  29.609  10.495  1.00  0.00     0.188 HD
HETATM    3  C3  UNL     1      47.901  28.873  12.255  1.00  0.00     0.139 A 
HETATM    4  C4  UNL     1      46.847  28.354  12.965  1.00  0.00     0.157 A 
HETATM    5  N4  UNL     1      47.012  28.006  14.255  1.00  0.00    -0.306 N 
ATOM      6  H4  UNL     1      46.220  27.622  14.771  1.00  0.00     0.186 HD
HETATM    7  N5  UNL     1      48.173  28.150  14.874  1.00  0.00    -0.274 N 
ATOM      8  H5  UNL     1      48.277  27.879  15.852  1.00  0.00     0.189 HD
HETATM    9  C5  UNL     1      49.211  28.656  14.191  1.00  0.00     0.208 A 
HETATM   10  N6  UNL     1      50.454  28.809  14.854  1.00  0.00    -0.062 NA
HETATM   11  N7  UNL     1      49.074  29.012  12.898  1.00  0.00    -0.313 N 
ATOM     12  H7  UNL     1      49.875  29.395  12.397  1.00  0.00     0.170 HD
ENDROOT
BRANCH   1  13
HETATM   13  N2  UNL     1      46.554  29.059  10.387  1.00  0.00    -0.333 N 
ATOM     14  H2  UNL     1      46.070  28.163  10.433  1.00  0.00     0.180 HD
BRANCH  13  15
HETATM   15  C2  UNL     1      45.968  30.166   9.685  1.00  0.00     0.166 C 
BRANCH  15  16
HETATM   16  C1  UNL     1      46.910  30.763   8.668  1.00  0.00     0.250 C 
BRANCH  16  17
HETATM   17  N1  UNL     1      46.257  31.720   7.886  1.00  0.00    -0.078 N 
ATOM     18  H13 UNL     1      46.554  31.677   6.911  1.00  0.00     0.274 HD
ATOM     19  H12 UNL     1      45.271  31.493   7.757  1.00  0.00     0.274 HD
ATOM     20  H11 UNL     1      46.381  32.655   8.276  1.00  0.00     0.274 HD
ENDBRANCH  16  17
ENDBRANCH  15  16
ENDBRANCH  13  15
ENDBRANCH   1  13
TORSDOF 4
ENDMDL
MODEL 5
REMARK VINA RESULT: -5.171341973      1.513      2.335
REMARK  4 active torsions:
REMARK  status: ('A' for Active; 'I' for Inactive)
REMARK    1  A    between atoms: N1_1  and  C1_5 
REMARK    2  A    between atoms: C1_5  and  C2_6 
REMARK    3  A    between atoms: C2_6  and  N2_7 
REMARK    4  A    between atoms: N2_7  and  N3_9 
ROOT
HETATM    1  N3  UNL     1      45.875  28.661  11.900  1.00  0.00    -0.289 N 
ATOM      2  H3  UNL     1      44.869  28.830  11.902  1.00  0.00     0.188 HD
HETATM    3  C3  UNL     1      46.635  29.127  10.950  1.00  0.00     0.139 A 
HETATM    4  C4  UNL     1      47.991  28.914  10.920  1.00  0.00     0.157 A 
HETATM    5  N4  UNL     1      48.729  29.419   9.914  1.00  0.00    -0.306 N 
ATOM      6  H4  UNL     1      49.736  29.254   9.905  1.00  0.00     0.186 HD
HETATM    7  N5  UNL     1      48.184  30.123   8.935  1.00  0.00    -0.274 N 
ATOM      8  H5  UNL     1      48.761  30.496   8.180  1.00  0.00     0.189 HD
HETATM    9  C5  UNL     1      46.860  30.339   8.952  1.00  0.00     0.208 A 
HETATM   10  N6  UNL     1      46.278  31.092   7.903  1.00  0.00    -0.062 NA
HETATM   11  N7  UNL     1      46.098  29.844   9.948  1.00  0.00    -0.313 N 
ATOM     12  H7  UNL     1      45.093  30.019   9.941  1.00  0.00     0.170 HD
ENDROOT
BRANCH   1  13
HETATM   13  N2  UNL     1      46.486  27.922  12.916  1.00  0.00    -0.333 N 
ATOM     14  H2  UNL     1      46.593  26.911  12.827  1.00  0.00     0.180 HD
BRANCH  13  15
HETATM   15  C2  UNL     1      46.963  28.603  14.086  1.00  0.00     0.166 C 
BRANCH  15  16
HETATM   16  C1  UNL     1      48.353  28.166  14.477  1.00  0.00     0.250 C 
BRANCH  16  17
HETATM   17  N1  UNL     1      48.619  26.874  14.013  1.00  0.00    -0.078 N 
ATOM     18  H13 UNL     1      48.224  26.163  14.629  1.00  0.00     0.274 HD
ATOM     19  H12 UNL     1      48.086  26.659  13.169  1.00  0.00     0.274 HD
ATOM     20  H11 UNL     1      49.619  26.736  13.872  1.00  0.00     0.274 HD
ENDBRANCH  16  17
ENDBRANCH  15  16
ENDBRANCH  13  15
ENDBRANCH   1  13
TORSDOF 4
ENDMDL
