MODEL 1
REMARK VINA RESULT: -5.826807793      0.000      0.000
REMARK  5 active torsions:
REMARK  status: ('A' for Active; 'I' for Inactive)
REMARK    1  A    between atoms: C2_3  and  N2_4 
REMARK    2  A    between atoms: C3_10  and  C4_11 
REMARK    3  A    between atoms: C4_11  and  C5_12 
REMARK    4  A    between atoms: C5_12  and  C6_13 
REMARK    5  A    between atoms: C6_13  and  N4_14 
ROOT
HETATM    1  N1  UNL     1      45.462  29.697   9.842  1.00  0.00    -0.191 NA
HETATM    2  C1  UNL     1      46.538  29.429  10.169  1.00  0.00     0.142 C 
HETATM    3  C2  UNL     1      47.895  29.072  10.593  1.00  0.00     0.378 C 
HETATM    4  N3  UNL     1      48.097  29.555  11.928  1.00  0.00    -0.320 N 
ATOM      5  H3  UNL     1      48.413  30.492  12.178  1.00  0.00     0.165 HD
HETATM    6  C3  UNL     1      47.817  28.618  12.754  1.00  0.00     0.092 C 
HETATM    7  N5  UNL     1      47.429  27.471  12.006  1.00  0.00    -0.288 N 
ATOM      8  H5  UNL     1      46.863  26.687  12.333  1.00  0.00     0.183 HD
HETATM    9  N6  UNL     1      47.986  27.639  10.726  1.00  0.00    -0.064 NA
ENDROOT
BRANCH   3  10
HETATM   10  N2  UNL     1      48.863  29.599   9.653  1.00  0.00    -0.022 N 
ATOM     11  H23 UNL     1      49.032  28.958   8.878  1.00  0.00     0.280 HD
ATOM     12  H22 UNL     1      48.490  30.383   9.119  1.00  0.00     0.280 HD
ATOM     13  H21 UNL     1      49.725  29.844  10.141  1.00  0.00     0.280 HD
ENDBRANCH   3  10
BRANCH   6  14
HETATM   14  C4  UNL     1      47.895  28.709  14.254  1.00  0.00     0.079 C 
BRANCH  14  15
HETATM   15  C5  UNL     1      49.089  27.888  14.730  1.00  0.00     0.034 C 
BRANCH  15  16
HETATM   16  C6  UNL     1      50.346  28.704  14.733  1.00  0.00     0.230 C 
BRANCH  16  17
HETATM   17  N4  UNL     1      51.379  27.983  15.453  1.00  0.00    -0.079 N 
ATOM     18  H43 UNL     1      51.146  27.853  16.438  1.00  0.00     0.274 HD
ATOM     19  H42 UNL     1      51.426  27.001  15.184  1.00  0.00     0.274 HD
ATOM     20  H41 UNL     1      52.271  28.462  15.327  1.00  0.00     0.274 HD
ENDBRANCH  16  17
ENDBRANCH  15  16
ENDBRANCH  14  15
ENDBRANCH   6  14
TORSDOF 5
ENDMDL
MODEL 2
REMARK VINA RESULT: -5.271424359      1.434      2.473
REMARK  5 active torsions:
REMARK  status: ('A' for Active; 'I' for Inactive)
REMARK    1  A    between atoms: C2_3  and  N2_4 
REMARK    2  A    between atoms: C3_10  and  C4_11 
REMARK    3  A    between atoms: C4_11  and  C5_12 
REMARK    4  A    between atoms: C5_12  and  C6_13 
REMARK    5  A    between atoms: C6_13  and  N4_14 
ROOT
HETATM    1  N1  UNL     1      48.265  29.593  10.230  1.00  0.00    -0.191 NA
HETATM    2  C1  UNL     1      47.737  29.107  11.137  1.00  0.00     0.142 C 
HETATM    3  C2  UNL     1      47.080  28.504  12.300  1.00  0.00     0.378 C 
HETATM    4  N3  UNL     1      47.959  27.521  12.863  1.00  0.00    -0.320 N 
ATOM      5  H3  UNL     1      48.026  26.547  12.568  1.00  0.00     0.165 HD
HETATM    6  C3  UNL     1      48.647  28.066  13.796  1.00  0.00     0.092 C 
HETATM    7  N5  UNL     1      48.247  29.428  13.902  1.00  0.00    -0.288 N 
ATOM      8  H5  UNL     1      48.784  30.197  14.304  1.00  0.00     0.183 HD
HETATM    9  N6  UNL     1      46.959  29.496  13.341  1.00  0.00    -0.064 NA
ENDROOT
BRANCH   3  10
HETATM   10  N2  UNL     1      45.797  27.953  11.915  1.00  0.00    -0.022 N 
ATOM     11  H23 UNL     1      45.174  27.839  12.715  1.00  0.00     0.280 HD
ATOM     12  H22 UNL     1      45.237  28.622  11.386  1.00  0.00     0.280 HD
ATOM     13  H21 UNL     1      45.931  27.079  11.407  1.00  0.00     0.280 HD
ENDBRANCH   3  10
BRANCH   6  14
HETATM   14  C4  UNL     1      49.688  27.384  14.641  1.00  0.00     0.079 C 
BRANCH  14  15
HETATM   15  C5  UNL     1      50.698  28.427  15.106  1.00  0.00     0.034 C 
BRANCH  15  16
HETATM   16  C6  UNL     1      51.802  27.801  15.902  1.00  0.00     0.230 C 
BRANCH  16  17
HETATM   17  N4  UNL     1      52.205  26.560  15.265  1.00  0.00    -0.079 N 
ATOM     18  H43 UNL     1      52.498  25.855  15.941  1.00  0.00     0.274 HD
ATOM     19  H42 UNL     1      51.414  26.057  14.864  1.00  0.00     0.274 HD
ATOM     20  H41 UNL     1      52.928  26.758  14.574  1.00  0.00     0.274 HD
ENDBRANCH  16  17
ENDBRANCH  15  16
ENDBRANCH  14  15
ENDBRANCH   6  14
TORSDOF 5
ENDMDL
MODEL 3
REMARK VINA RESULT: -4.864685757      1.561      1.769
REMARK  5 active torsions:
REMARK  status: ('A' for Active; 'I' for Inactive)
REMARK    1  A    between atoms: C2_3  and  N2_4 
REMARK    2  A    between atoms: C3_10  and  C4_11 
REMARK    3  A    between atoms: C4_11  and  C5_12 
REMARK    4  A    between atoms: C5_12  and  C6_13 
REMARK    5  A    between atoms: C6_13  and  N4_14 
ROOT
HETATM    1  N1  UNL     1      45.320  29.605  10.071  1.00  0.00    -0.191 NA
HETATM    2  C1  UNL     1      46.452  29.386  10.158  1.00  0.00     0.142 C 
HETATM    3  C2  UNL     1      47.882  29.091  10.282  1.00  0.00     0.378 C 
HETATM    4  N3  UNL     1      48.384  29.753  11.451  1.00  0.00    -0.320 N 
ATOM      5  H3  UNL     1      48.719  30.715  11.490  1.00  0.00     0.165 HD
HETATM    6  C3  UNL     1      48.344  28.938  12.438  1.00  0.00     0.092 C 
HETATM    7  N5  UNL     1      47.826  27.698  11.967  1.00  0.00    -0.288 N 
ATOM      8  H5  UNL     1      47.383  26.967  12.523  1.00  0.00     0.183 HD
HETATM    9  N6  UNL     1      48.052  27.689  10.578  1.00  0.00    -0.064 NA
ENDROOT
BRANCH   3  10
HETATM   10  N2  UNL     1      48.577  29.484   9.074  1.00  0.00    -0.022 N 
ATOM     11  H23 UNL     1      48.875  28.678   8.525  1.00  0.00     0.280 HD
ATOM     12  H22 UNL     1      47.947  29.904   8.391  1.00  0.00     0.280 HD
ATOM     13  H21 UNL     1      49.357  30.100   9.304  1.00  0.00     0.280 HD
ENDBRANCH   3  10
BRANCH   6  14
HETATM   14  C4  UNL     1      48.778  29.234  13.848  1.00  0.00     0.079 C 
BRANCH  14  15
HETATM   15  C5  UNL     1      48.406  28.048  14.732  1.00  0.00     0.034 C 
BRANCH  15  16
HETATM   16  C6  UNL     1      47.037  28.213  15.318  1.00  0.00     0.230 C 
BRANCH  16  17
HETATM   17  N4  UNL     1      46.767  27.106  16.216  1.00  0.00    -0.079 N 
ATOM     18  H43 UNL     1      47.514  26.968  16.897  1.00  0.00     0.274 HD
ATOM     19  H42 UNL     1      46.012  27.313  16.869  1.00  0.00     0.274 HD
ATOM     20  H41 UNL     1      46.584  26.266  15.667  1.00  0.00     0.274 HD
ENDBRANCH  16  17
ENDBRANCH  15  16
ENDBRANCH  14  15
ENDBRANCH   6  14
TORSDOF 5
ENDMDL
MODEL 4
REMARK VINA RESULT: -4.798922383      1.604      5.018
REMARK  5 active torsions:
REMARK  status: ('A' for Active; 'I' for Inactive)
REMARK    1  A    between atoms: C2_3  and  N2_4 
REMARK    2  A    between atoms: C3_10  and  C4_11 
REMARK    3  A    between atoms: C4_11  and  C5_12 
REMARK    4  A    between atoms: C5_12  and  C6_13 
REMARK    5  A    between atoms: C6_13  and  N4_14 
ROOT
HETATM    1  N1  UNL     1      50.327  29.015  14.613  1.00  0.00    -0.191 NA
HETATM    2  C1  UNL     1      49.253  28.614  14.457  1.00  0.00     0.142 C 
HETATM    3  C2  UNL     1      47.900  28.095  14.240  1.00  0.00     0.378 C 
HETATM    4  N3  UNL     1      47.209  28.982  13.350  1.00  0.00    -0.320 N 
ATOM      5  H3  UNL     1      46.697  29.819  13.626  1.00  0.00     0.165 HD
HETATM    6  C3  UNL     1      47.342  28.551  12.151  1.00  0.00     0.092 C 
HETATM    7  N5  UNL     1      48.113  27.356  12.194  1.00  0.00    -0.288 N 
ATOM      8  H5  UNL     1      48.651  26.944  11.431  1.00  0.00     0.183 HD
HETATM    9  N6  UNL     1      47.981  26.858  13.503  1.00  0.00    -0.064 NA
ENDROOT
BRANCH   3  10
HETATM   10  N2  UNL     1      47.221  27.935  15.509  1.00  0.00    -0.022 N 
ATOM     11  H23 UNL     1      47.282  28.775  16.084  1.00  0.00     0.280 HD
ATOM     12  H22 UNL     1      46.208  27.904  15.399  1.00  0.00     0.280 HD
ATOM     13  H21 UNL     1      47.578  27.113  15.995  1.00  0.00     0.280 HD
ENDBRANCH   3  10
BRANCH   6  14
HETATM   14  C4  UNL     1      46.771  29.190  10.914  1.00  0.00     0.079 C 
BRANCH  14  15
HETATM   15  C5  UNL     1      47.918  29.526   9.966  1.00  0.00     0.034 C 
BRANCH  15  16
HETATM   16  C6  UNL     1      47.431  30.282   8.767  1.00  0.00     0.230 C 
BRANCH  16  17
HETATM   17  N4  UNL     1      46.167  30.918   9.087  1.00  0.00    -0.079 N 
ATOM     18  H43 UNL     1      45.893  30.771  10.058  1.00  0.00     0.274 HD
ATOM     19  H42 UNL     1      46.240  31.935   9.110  1.00  0.00     0.274 HD
ATOM     20  H41 UNL     1      45.455  30.596   8.431  1.00  0.00     0.274 HD
ENDBRANCH  16  17
ENDBRANCH  15  16
ENDBRANCH  14  15
ENDBRANCH   6  14
TORSDOF 5
ENDMDL
MODEL 5
REMARK VINA RESULT: -4.770913864      1.872      4.985
REMARK  5 active torsions:
REMARK  status: ('A' for Active; 'I' for Inactive)
REMARK    1  A    between atoms: C2_3  and  N2_4 
REMARK    2  A    between atoms: C3_10  and  C4_11 
REMARK    3  A    between atoms: C4_11  and  C5_12 
REMARK    4  A    between atoms: C5_12  and  C6_13 
REMARK    5  A    between atoms: C6_13  and  N4_14 
ROOT
HETATM    1  N1  UNL     1      46.757  28.008  15.980  1.00  0.00    -0.191 NA
HETATM    2  C1  UNL     1      47.512  27.825  15.124  1.00  0.00     0.142 C 
HETATM    3  C2  UNL     1      48.469  27.616  14.034  1.00  0.00     0.378 C 
HETATM    4  N3  UNL     1      47.742  27.512  12.802  1.00  0.00    -0.320 N 
ATOM      5  H3  UNL     1      47.333  26.657  12.425  1.00  0.00     0.165 HD
HETATM    6  C3  UNL     1      47.689  28.668  12.253  1.00  0.00     0.092 C 
HETATM    7  N5  UNL     1      48.388  29.585  13.088  1.00  0.00    -0.288 N 
ATOM      8  H5  UNL     1      48.276  30.599  13.115  1.00  0.00     0.183 HD
HETATM    9  N6  UNL     1      49.264  28.807  13.867  1.00  0.00    -0.064 NA
ENDROOT
BRANCH   3  10
HETATM   10  N2  UNL     1      49.282  26.447  14.305  1.00  0.00    -0.022 N 
ATOM     11  H23 UNL     1      49.971  26.623  15.035  1.00  0.00     0.280 HD
ATOM     12  H22 UNL     1      48.751  25.714  14.774  1.00  0.00     0.280 HD
ATOM     13  H21 UNL     1      49.714  26.115  13.443  1.00  0.00     0.280 HD
ENDBRANCH   3  10
BRANCH   6  14
HETATM   14  C4  UNL     1      47.016  28.997  10.949  1.00  0.00     0.079 C 
BRANCH  14  15
HETATM   15  C5  UNL     1      48.083  29.417   9.943  1.00  0.00     0.034 C 
BRANCH  15  16
HETATM   16  C6  UNL     1      47.487  30.185   8.803  1.00  0.00     0.230 C 
BRANCH  16  17
HETATM   17  N4  UNL     1      46.172  30.664   9.188  1.00  0.00    -0.079 N 
ATOM     18  H43 UNL     1      45.427  30.035   8.888  1.00  0.00     0.274 HD
ATOM     19  H42 UNL     1      46.017  30.603  10.194  1.00  0.00     0.274 HD
ATOM     20  H41 UNL     1      46.044  31.612   8.834  1.00  0.00     0.274 HD
ENDBRANCH  16  17
ENDBRANCH  15  16
ENDBRANCH  14  15
ENDBRANCH   6  14
TORSDOF 5
ENDMDL
