MODEL 1
REMARK VINA RESULT: -6.965553016      0.000      0.000
REMARK  8 active torsions:
REMARK  status: ('A' for Active; 'I' for Inactive)
REMARK    1  A    between atoms: C3_5  and  C4_6 
REMARK    2  A    between atoms: C4_6  and  C5_7 
REMARK    3  A    between atoms: C6_10  and  C7_11 
REMARK    4  A    between atoms: C7_11  and  C8_12 
REMARK    5  A    between atoms: C9_14  and  C10_15 
REMARK    6  A    between atoms: C10_15  and  C11_16 
REMARK    7  A    between atoms: C15_22  and  C16_23 
REMARK    8  A    between atoms: C16_23  and  O1_24 
ROOT
HETATM    1  C5  UNL     1      16.206 -12.701  21.372  1.00  0.00     0.109 A 
HETATM    2  N2  UNL     1      16.907 -13.424  22.314  1.00  0.00    -0.344 N 
ATOM      3  H2  UNL     1      16.486 -14.021  23.027  1.00  0.00     0.167 HD
HETATM    4  C6  UNL     1      18.233 -13.223  22.154  1.00  0.00     0.034 A 
HETATM    5  C9  UNL     1      18.387 -12.366  21.110  1.00  0.00     0.036 A 
HETATM    6  N3  UNL     1      17.148 -12.070  20.659  1.00  0.00    -0.339 N 
HETATM    7  C12 UNL     1      16.867 -11.191  19.546  1.00  0.00     0.158 C 
ENDROOT
BRANCH   1   8
HETATM    8  C4  UNL     1      14.765 -12.658  21.224  1.00  0.00     0.079 C 
BRANCH   8   9
HETATM    9  C3  UNL     1      13.847 -12.049  21.862  1.00  0.00     0.046 A 
HETATM   10  N1  UNL     1      12.876 -12.676  22.567  1.00  0.00    -0.355 N 
HETATM   11  C2  UNL     1      12.041 -11.791  23.136  1.00  0.00     0.036 A 
ATOM     12  H1  UNL     1      12.790 -13.689  22.655  1.00  0.00     0.166 HD
HETATM   13  C1  UNL     1      11.001 -12.108  23.879  1.00  0.00     0.044 C 
HETATM   14  C15 UNL     1      12.452 -10.515  22.809  1.00  0.00     0.023 A 
HETATM   15  C13 UNL     1      13.601 -10.689  22.001  1.00  0.00    -0.004 A 
HETATM   16  C14 UNL     1      14.308  -9.695  21.525  1.00  0.00     0.026 C 
BRANCH  14  17
HETATM   17  C16 UNL     1      11.891  -9.349  23.172  1.00  0.00     0.148 C 
BRANCH  17  18
HETATM   18  O1  UNL     1      11.702  -8.761  24.328  1.00  0.00    -0.367 OA
HETATM   19  C17 UNL     1      12.379  -7.525  24.684  1.00  0.00     0.208 C 
ENDBRANCH  17  18
ENDBRANCH  14  17
ENDBRANCH   8   9
ENDBRANCH   1   8
BRANCH   4  20
HETATM   20  C7  UNL     1      19.270 -13.879  23.041  1.00  0.00     0.070 C 
BRANCH  20  21
HETATM   21  C8  UNL     1      18.753 -13.937  24.440  1.00  0.00     0.091 C 
HETATM   22 BR1  UNL     1      20.245 -13.937  25.676  1.00  0.00    -0.096 Br
ENDBRANCH  20  21
ENDBRANCH   4  20
BRANCH   5  23
HETATM   23  C10 UNL     1      19.675 -11.882  20.535  1.00  0.00     0.070 C 
BRANCH  23  24
HETATM   24  C11 UNL     1      20.255 -12.883  19.556  1.00  0.00     0.091 C 
HETATM   25 BR2  UNL     1      20.416 -12.008  17.841  1.00  0.00    -0.096 Br
ENDBRANCH  23  24
ENDBRANCH   5  23
TORSDOF 8
ENDMDL
MODEL 2
REMARK VINA RESULT: -6.674269938      4.030      7.215
REMARK  8 active torsions:
REMARK  status: ('A' for Active; 'I' for Inactive)
REMARK    1  A    between atoms: C3_5  and  C4_6 
REMARK    2  A    between atoms: C4_6  and  C5_7 
REMARK    3  A    between atoms: C6_10  and  C7_11 
REMARK    4  A    between atoms: C7_11  and  C8_12 
REMARK    5  A    between atoms: C9_14  and  C10_15 
REMARK    6  A    between atoms: C10_15  and  C11_16 
REMARK    7  A    between atoms: C15_22  and  C16_23 
REMARK    8  A    between atoms: C16_23  and  O1_24 
ROOT
HETATM    1  C5  UNL     1      16.573 -11.618  20.578  1.00  0.00     0.109 A 
HETATM    2  N2  UNL     1      15.746 -10.598  20.996  1.00  0.00    -0.344 N 
ATOM      3  H2  UNL     1      16.045  -9.784  21.534  1.00  0.00     0.167 HD
HETATM    4  C6  UNL     1      14.481 -10.836  20.588  1.00  0.00     0.034 A 
HETATM    5  C9  UNL     1      14.492 -12.013  19.910  1.00  0.00     0.036 A 
HETATM    6  N3  UNL     1      15.767 -12.460  19.920  1.00  0.00    -0.339 N 
HETATM    7  C12 UNL     1      16.212 -13.687  19.298  1.00  0.00     0.158 C 
ENDROOT
BRANCH   1   8
HETATM    8  C4  UNL     1      17.998 -11.720  20.824  1.00  0.00     0.079 C 
BRANCH   8   9
HETATM    9  C3  UNL     1      18.695 -12.471  21.579  1.00  0.00     0.046 A 
HETATM   10  N1  UNL     1      18.215 -13.071  22.695  1.00  0.00    -0.355 N 
HETATM   11  C2  UNL     1      19.166 -13.802  23.300  1.00  0.00     0.036 A 
ATOM     12  H1  UNL     1      17.257 -12.979  23.032  1.00  0.00     0.166 HD
HETATM   13  C1  UNL     1      18.993 -14.495  24.406  1.00  0.00     0.044 C 
HETATM   14  C15 UNL     1      20.337 -13.699  22.576  1.00  0.00     0.023 A 
HETATM   15  C13 UNL     1      20.026 -12.853  21.484  1.00  0.00    -0.004 A 
HETATM   16  C14 UNL     1      20.881 -12.549  20.539  1.00  0.00     0.026 C 
BRANCH  14  17
HETATM   17  C16 UNL     1      21.522 -14.272  22.840  1.00  0.00     0.148 C 
BRANCH  17  18
HETATM   18  O1  UNL     1      22.601 -13.867  23.466  1.00  0.00    -0.367 OA
HETATM   19  C17 UNL     1      22.680 -13.827  24.917  1.00  0.00     0.208 C 
ENDBRANCH  17  18
ENDBRANCH  14  17
ENDBRANCH   8   9
ENDBRANCH   1   8
BRANCH   4  20
HETATM   20  C7  UNL     1      13.334  -9.895  20.895  1.00  0.00     0.070 C 
BRANCH  20  21
HETATM   21  C8  UNL     1      13.145  -9.819  22.373  1.00  0.00     0.091 C 
HETATM   22 BR1  UNL     1      11.971 -11.250  22.944  1.00  0.00    -0.096 Br
ENDBRANCH  20  21
ENDBRANCH   4  20
BRANCH   5  23
HETATM   23  C10 UNL     1      13.332 -12.667  19.236  1.00  0.00     0.070 C 
BRANCH  23  24
HETATM   24  C11 UNL     1      12.713 -13.736  20.115  1.00  0.00     0.091 C 
HETATM   25 BR2  UNL     1      12.443 -15.310  19.028  1.00  0.00    -0.096 Br
ENDBRANCH  23  24
ENDBRANCH   5  23
TORSDOF 8
ENDMDL
MODEL 3
REMARK VINA RESULT: -6.670644357      4.098      7.132
REMARK  8 active torsions:
REMARK  status: ('A' for Active; 'I' for Inactive)
REMARK    1  A    between atoms: C3_5  and  C4_6 
REMARK    2  A    between atoms: C4_6  and  C5_7 
REMARK    3  A    between atoms: C6_10  and  C7_11 
REMARK    4  A    between atoms: C7_11  and  C8_12 
REMARK    5  A    between atoms: C9_14  and  C10_15 
REMARK    6  A    between atoms: C10_15  and  C11_16 
REMARK    7  A    between atoms: C15_22  and  C16_23 
REMARK    8  A    between atoms: C16_23  and  O1_24 
ROOT
HETATM    1  C5  UNL     1      16.980 -13.523  21.686  1.00  0.00     0.109 A 
HETATM    2  N2  UNL     1      15.744 -14.064  21.968  1.00  0.00    -0.344 N 
ATOM      3  H2  UNL     1      15.587 -14.960  22.430  1.00  0.00     0.167 HD
HETATM    4  C6  UNL     1      14.770 -13.230  21.542  1.00  0.00     0.034 A 
HETATM    5  C9  UNL     1      15.379 -12.154  20.980  1.00  0.00     0.036 A 
HETATM    6  N3  UNL     1      16.711 -12.359  21.082  1.00  0.00    -0.339 N 
HETATM    7  C12 UNL     1      17.722 -11.440  20.608  1.00  0.00     0.158 C 
ENDROOT
BRANCH   1   8
HETATM    8  C4  UNL     1      18.265 -14.121  21.988  1.00  0.00     0.079 C 
BRANCH   8   9
HETATM    9  C3  UNL     1      18.869 -14.372  23.080  1.00  0.00     0.046 A 
HETATM   10  N1  UNL     1      18.262 -14.891  24.174  1.00  0.00    -0.355 N 
HETATM   11  C2  UNL     1      19.135 -15.050  25.183  1.00  0.00     0.036 A 
ATOM     12  H1  UNL     1      17.272 -15.130  24.225  1.00  0.00     0.166 HD
HETATM   13  C1  UNL     1      18.832 -15.532  26.370  1.00  0.00     0.044 C 
HETATM   14  C15 UNL     1      20.380 -14.625  24.768  1.00  0.00     0.023 A 
HETATM   15  C13 UNL     1      20.201 -14.198  23.430  1.00  0.00    -0.004 A 
HETATM   16  C14 UNL     1      21.176 -13.760  22.674  1.00  0.00     0.026 C 
BRANCH  14  17
HETATM   17  C16 UNL     1      21.525 -14.612  25.471  1.00  0.00     0.148 C 
BRANCH  17  18
HETATM   18  O1  UNL     1      22.054 -13.762  26.317  1.00  0.00    -0.367 OA
HETATM   19  C17 UNL     1      21.313 -12.621  26.828  1.00  0.00     0.208 C 
ENDBRANCH  17  18
ENDBRANCH  14  17
ENDBRANCH   8   9
ENDBRANCH   1   8
BRANCH   4  20
HETATM   20  C7  UNL     1      13.298 -13.546  21.705  1.00  0.00     0.070 C 
BRANCH  20  21
HETATM   21  C8  UNL     1      12.989 -14.825  21.003  1.00  0.00     0.091 C 
HETATM   22 BR1  UNL     1      12.993 -14.525  19.089  1.00  0.00    -0.096 Br
ENDBRANCH  20  21
ENDBRANCH   4  20
BRANCH   5  23
HETATM   23  C10 UNL     1      14.713 -10.950  20.405  1.00  0.00     0.070 C 
BRANCH  23  24
HETATM   24  C11 UNL     1      14.251 -10.000  21.492  1.00  0.00     0.091 C 
HETATM   25 BR2  UNL     1      12.323  -9.900  21.408  1.00  0.00    -0.096 Br
ENDBRANCH  23  24
ENDBRANCH   5  23
TORSDOF 8
ENDMDL
MODEL 4
REMARK VINA RESULT: -6.665928282      2.298      3.412
REMARK  8 active torsions:
REMARK  status: ('A' for Active; 'I' for Inactive)
REMARK    1  A    between atoms: C3_5  and  C4_6 
REMARK    2  A    between atoms: C4_6  and  C5_7 
REMARK    3  A    between atoms: C6_10  and  C7_11 
REMARK    4  A    between atoms: C7_11  and  C8_12 
REMARK    5  A    between atoms: C9_14  and  C10_15 
REMARK    6  A    between atoms: C10_15  and  C11_16 
REMARK    7  A    between atoms: C15_22  and  C16_23 
REMARK    8  A    between atoms: C16_23  and  O1_24 
ROOT
HETATM    1  C5  UNL     1      15.099 -10.789  20.502  1.00  0.00     0.109 A 
HETATM    2  N2  UNL     1      16.221 -11.115  21.234  1.00  0.00    -0.344 N 
ATOM      3  H2  UNL     1      16.390 -10.839  22.202  1.00  0.00     0.167 HD
HETATM    4  C6  UNL     1      17.063 -11.854  20.479  1.00  0.00     0.034 A 
HETATM    5  C9  UNL     1      16.485 -12.000  19.258  1.00  0.00     0.036 A 
HETATM    6  N3  UNL     1      15.303 -11.348  19.302  1.00  0.00    -0.339 N 
HETATM    7  C12 UNL     1      14.368 -11.265  18.202  1.00  0.00     0.158 C 
ENDROOT
BRANCH   1   8
HETATM    8  C4  UNL     1      13.972 -10.005  20.966  1.00  0.00     0.079 C 
BRANCH   8   9
HETATM    9  C3  UNL     1      13.248 -10.063  22.011  1.00  0.00     0.046 A 
HETATM   10  N1  UNL     1      12.908  -8.982  22.753  1.00  0.00    -0.355 N 
HETATM   11  C2  UNL     1      12.141  -9.333  23.799  1.00  0.00     0.036 A 
ATOM     12  H1  UNL     1      13.196  -8.026  22.545  1.00  0.00     0.166 HD
HETATM   13  C1  UNL     1      11.661  -8.496  24.694  1.00  0.00     0.044 C 
HETATM   14  C15 UNL     1      11.951 -10.700  23.774  1.00  0.00     0.023 A 
HETATM   15  C13 UNL     1      12.656 -11.154  22.634  1.00  0.00    -0.004 A 
HETATM   16  C14 UNL     1      12.678 -12.405  22.248  1.00  0.00     0.026 C 
BRANCH  14  17
HETATM   17  C16 UNL     1      11.250 -11.451  24.640  1.00  0.00     0.148 C 
BRANCH  17  18
HETATM   18  O1  UNL     1      11.313 -11.628  25.938  1.00  0.00    -0.367 OA
HETATM   19  C17 UNL     1      10.848 -12.849  26.573  1.00  0.00     0.208 C 
ENDBRANCH  17  18
ENDBRANCH  14  17
ENDBRANCH   8   9
ENDBRANCH   1   8
BRANCH   4  20
HETATM   20  C7  UNL     1      18.389 -12.366  21.001  1.00  0.00     0.070 C 
BRANCH  20  21
HETATM   21  C8  UNL     1      19.459 -11.379  20.675  1.00  0.00     0.091 C 
HETATM   22 BR1  UNL     1      20.702 -12.171  19.418  1.00  0.00    -0.096 Br
ENDBRANCH  20  21
ENDBRANCH   4  20
BRANCH   5  23
HETATM   23  C10 UNL     1      17.024 -12.774  18.102  1.00  0.00     0.070 C 
BRANCH  23  24
HETATM   24  C11 UNL     1      17.715 -11.868  17.103  1.00  0.00     0.091 C 
HETATM   25 BR2  UNL     1      16.978 -12.244  15.357  1.00  0.00    -0.096 Br
ENDBRANCH  23  24
ENDBRANCH   5  23
TORSDOF 8
ENDMDL
MODEL 5
REMARK VINA RESULT: -6.615645415      4.124      7.053
REMARK  8 active torsions:
REMARK  status: ('A' for Active; 'I' for Inactive)
REMARK    1  A    between atoms: C3_5  and  C4_6 
REMARK    2  A    between atoms: C4_6  and  C5_7 
REMARK    3  A    between atoms: C6_10  and  C7_11 
REMARK    4  A    between atoms: C7_11  and  C8_12 
REMARK    5  A    between atoms: C9_14  and  C10_15 
REMARK    6  A    between atoms: C10_15  and  C11_16 
REMARK    7  A    between atoms: C15_22  and  C16_23 
REMARK    8  A    between atoms: C16_23  and  O1_24 
ROOT
HETATM    1  C5  UNL     1      17.011 -11.348  19.810  1.00  0.00     0.109 A 
HETATM    2  N2  UNL     1      15.761 -10.968  20.248  1.00  0.00    -0.344 N 
ATOM      3  H2  UNL     1      15.551 -10.606  21.179  1.00  0.00     0.167 HD
HETATM    4  C6  UNL     1      14.855 -11.145  19.263  1.00  0.00     0.034 A 
HETATM    5  C9  UNL     1      15.521 -11.645  18.189  1.00  0.00     0.036 A 
HETATM    6  N3  UNL     1      16.818 -11.756  18.549  1.00  0.00    -0.339 N 
HETATM    7  C12 UNL     1      17.871 -12.246  17.687  1.00  0.00     0.158 C 
ENDROOT
BRANCH   1   8
HETATM    8  C4  UNL     1      18.238 -11.306  20.580  1.00  0.00     0.079 C 
BRANCH   8   9
HETATM    9  C3  UNL     1      18.817 -12.154  21.333  1.00  0.00     0.046 A 
HETATM   10  N1  UNL     1      18.218 -12.758  22.387  1.00  0.00    -0.355 N 
HETATM   11  C2  UNL     1      19.061 -13.602  23.005  1.00  0.00     0.036 A 
ATOM     12  H1  UNL     1      17.253 -12.595  22.673  1.00  0.00     0.166 HD
HETATM   13  C1  UNL     1      18.759 -14.327  24.062  1.00  0.00     0.044 C 
HETATM   14  C15 UNL     1      20.279 -13.573  22.355  1.00  0.00     0.023 A 
HETATM   15  C13 UNL     1      20.112 -12.652  21.294  1.00  0.00    -0.004 A 
HETATM   16  C14 UNL     1      21.047 -12.383  20.417  1.00  0.00     0.026 C 
BRANCH  14  17
HETATM   17  C16 UNL     1      21.390 -14.265  22.655  1.00  0.00     0.148 C 
BRANCH  17  18
HETATM   18  O1  UNL     1      22.467 -13.986  23.349  1.00  0.00    -0.367 OA
HETATM   19  C17 UNL     1      22.442 -13.870  24.798  1.00  0.00     0.208 C 
ENDBRANCH  17  18
ENDBRANCH  14  17
ENDBRANCH   8   9
ENDBRANCH   1   8
BRANCH   4  20
HETATM   20  C7  UNL     1      13.386 -10.820  19.437  1.00  0.00     0.070 C 
BRANCH  20  21
HETATM   21  C8  UNL     1      12.869 -11.520  20.648  1.00  0.00     0.091 C 
HETATM   22 BR1  UNL     1      12.200 -10.210  21.910  1.00  0.00    -0.096 Br
ENDBRANCH  20  21
ENDBRANCH   4  20
BRANCH   5  23
HETATM   23  C10 UNL     1      14.946 -11.964  16.850  1.00  0.00     0.070 C 
BRANCH  23  24
HETATM   24  C11 UNL     1      15.041 -10.779  15.910  1.00  0.00     0.091 C 
HETATM   25 BR2  UNL     1      15.927 -11.374  14.299  1.00  0.00    -0.096 Br
ENDBRANCH  23  24
ENDBRANCH   5  23
TORSDOF 8
ENDMDL
