MODEL 1
REMARK VINA RESULT: -6.283363436      0.000      0.000
REMARK  4 active torsions:
REMARK  status: ('A' for Active; 'I' for Inactive)
REMARK    1  A    between atoms: O1_2  and  C2_3 
REMARK    2  A    between atoms: C2_3  and  N1_4 
REMARK    3  A    between atoms: C7_9  and  N2_10 
REMARK       I    between atoms: N2_10  and  C8_12 
REMARK       I    between atoms: C8_12  and  N3_14 
REMARK    4  A    between atoms: N3_14  and  C9_16 
ROOT
HETATM    1  C9  UNL     1     -24.905  53.563  51.317  1.00  0.00     0.189 C 
HETATM    2  C10 UNL     1     -25.359  54.611  50.328  1.00  0.00     0.048 C 
HETATM    3  C11 UNL     1     -24.294  54.253  52.468  1.00  0.00     0.084 C 
HETATM    4  N4  UNL     1     -23.802  54.806  53.364  1.00  0.00    -0.195 NA
ENDROOT
BRANCH   1   5
HETATM    5  N3  UNL     1     -23.963  52.681  50.671  1.00  0.00    -0.326 N 
HETATM    6  C8  UNL     1     -24.344  51.402  50.192  1.00  0.00     0.317 C 
HETATM    7  N2  UNL     1     -23.419  50.544  49.559  1.00  0.00    -0.335 N 
HETATM    8  O2  UNL     1     -25.526  51.001  50.321  1.00  0.00    -0.247 OA
ATOM      9  H2  UNL     1     -22.460  50.875  49.456  1.00  0.00     0.164 HD
ATOM     10  H3  UNL     1     -22.996  52.986  50.555  1.00  0.00     0.165 HD
BRANCH   7  11
HETATM   11  C7  UNL     1     -23.733  49.239  49.051  1.00  0.00     0.127 C 
HETATM   12  C5  UNL     1     -22.553  48.300  49.070  1.00  0.00     0.039 C 
HETATM   13  C4  UNL     1     -23.030  46.991  49.666  1.00  0.00     0.036 C 
HETATM   14  C6  UNL     1     -22.166  47.827  47.701  1.00  0.00     0.247 C 
HETATM   15  C3  UNL     1     -23.598  46.274  48.440  1.00  0.00     0.240 C 
HETATM   16  N1  UNL     1     -23.380  47.131  47.305  1.00  0.00    -0.043 N 
HETATM   17  C13 UNL     1     -24.492  48.027  47.087  1.00  0.00     0.279 C 
HETATM   18  C12 UNL     1     -24.283  49.412  47.651  1.00  0.00     0.219 C 
HETATM   19  F1  UNL     1     -23.581  50.260  46.863  1.00  0.00    -0.245 F 
BRANCH  16  20
HETATM   20  C2  UNL     1     -23.040  46.404  46.105  1.00  0.00     0.404 C 
BRANCH  20  21
HETATM   21  O1  UNL     1     -21.753  46.482  45.683  1.00  0.00    -0.369 OA
HETATM   22  C1  UNL     1     -21.086  45.322  45.424  1.00  0.00     0.203 C 
ENDBRANCH  20  21
ENDBRANCH  16  20
ENDBRANCH   7  11
ENDBRANCH   1   5
TORSDOF 4
ENDMDL
MODEL 2
REMARK VINA RESULT: -6.222832275      0.960      1.087
REMARK  4 active torsions:
REMARK  status: ('A' for Active; 'I' for Inactive)
REMARK    1  A    between atoms: O1_2  and  C2_3 
REMARK    2  A    between atoms: C2_3  and  N1_4 
REMARK    3  A    between atoms: C7_9  and  N2_10 
REMARK       I    between atoms: N2_10  and  C8_12 
REMARK       I    between atoms: C8_12  and  N3_14 
REMARK    4  A    between atoms: N3_14  and  C9_16 
ROOT
HETATM    1  C9  UNL     1     -24.873  53.717  51.378  1.00  0.00     0.189 C 
HETATM    2  C10 UNL     1     -25.137  54.780  50.337  1.00  0.00     0.048 C 
HETATM    3  C11 UNL     1     -24.241  54.363  52.543  1.00  0.00     0.084 C 
HETATM    4  N4  UNL     1     -23.732  54.880  53.450  1.00  0.00    -0.195 NA
ENDROOT
BRANCH   1   5
HETATM    5  N3  UNL     1     -24.017  52.702  50.809  1.00  0.00    -0.326 N 
HETATM    6  C8  UNL     1     -24.533  51.469  50.336  1.00  0.00     0.317 C 
HETATM    7  N2  UNL     1     -23.692  50.482  49.780  1.00  0.00    -0.335 N 
HETATM    8  O2  UNL     1     -25.762  51.227  50.403  1.00  0.00    -0.247 OA
ATOM      9  H2  UNL     1     -22.694  50.684  49.728  1.00  0.00     0.164 HD
ATOM     10  H3  UNL     1     -23.014  52.878  50.746  1.00  0.00     0.165 HD
BRANCH   7  11
HETATM   11  C7  UNL     1     -24.142  49.213  49.283  1.00  0.00     0.127 C 
HETATM   12  C5  UNL     1     -23.129  48.112  49.473  1.00  0.00     0.039 C 
HETATM   13  C4  UNL     1     -23.863  46.921  50.053  1.00  0.00     0.036 C 
HETATM   14  C6  UNL     1     -22.669  47.518  48.176  1.00  0.00     0.247 C 
HETATM   15  C3  UNL     1     -24.394  46.233  48.793  1.00  0.00     0.240 C 
HETATM   16  N1  UNL     1     -23.923  46.990  47.663  1.00  0.00    -0.043 N 
HETATM   17  C13 UNL     1     -24.855  48.027  47.286  1.00  0.00     0.279 C 
HETATM   18  C12 UNL     1     -24.500  49.393  47.823  1.00  0.00     0.219 C 
HETATM   19  F1  UNL     1     -23.595  50.087  47.095  1.00  0.00    -0.245 F 
BRANCH  16  20
HETATM   20  C2  UNL     1     -23.566  46.160  46.537  1.00  0.00     0.404 C 
BRANCH  20  21
HETATM   21  O1  UNL     1     -24.103  46.489  45.336  1.00  0.00    -0.369 OA
HETATM   22  C1  UNL     1     -24.624  45.492  44.566  1.00  0.00     0.203 C 
ENDBRANCH  20  21
ENDBRANCH  16  20
ENDBRANCH   7  11
ENDBRANCH   1   5
TORSDOF 4
ENDMDL
MODEL 3
REMARK VINA RESULT: -6.189161477      2.204      2.635
REMARK  4 active torsions:
REMARK  status: ('A' for Active; 'I' for Inactive)
REMARK    1  A    between atoms: O1_2  and  C2_3 
REMARK    2  A    between atoms: C2_3  and  N1_4 
REMARK    3  A    between atoms: C7_9  and  N2_10 
REMARK       I    between atoms: N2_10  and  C8_12 
REMARK       I    between atoms: C8_12  and  N3_14 
REMARK    4  A    between atoms: N3_14  and  C9_16 
ROOT
HETATM    1  C9  UNL     1     -24.839  53.834  51.398  1.00  0.00     0.189 C 
HETATM    2  C10 UNL     1     -25.246  54.904  50.412  1.00  0.00     0.048 C 
HETATM    3  C11 UNL     1     -24.214  54.494  52.559  1.00  0.00     0.084 C 
HETATM    4  N4  UNL     1     -23.711  55.023  53.463  1.00  0.00    -0.195 NA
ENDROOT
BRANCH   1   5
HETATM    5  N3  UNL     1     -23.923  52.923  50.753  1.00  0.00    -0.326 N 
HETATM    6  C8  UNL     1     -24.009  51.520  50.940  1.00  0.00     0.317 C 
HETATM    7  N2  UNL     1     -23.112  50.634  50.307  1.00  0.00    -0.335 N 
HETATM    8  O2  UNL     1     -24.896  51.031  51.682  1.00  0.00    -0.247 OA
ATOM      9  H2  UNL     1     -22.394  51.037  49.705  1.00  0.00     0.164 HD
ATOM     10  H3  UNL     1     -23.194  53.299  50.147  1.00  0.00     0.165 HD
BRANCH   7  11
HETATM   11  C7  UNL     1     -23.139  49.206  50.449  1.00  0.00     0.127 C 
HETATM   12  C5  UNL     1     -22.034  48.681  51.333  1.00  0.00     0.039 C 
HETATM   13  C4  UNL     1     -22.662  47.702  52.303  1.00  0.00     0.036 C 
HETATM   14  C6  UNL     1     -21.104  47.757  50.608  1.00  0.00     0.247 C 
HETATM   15  C3  UNL     1     -22.650  46.403  51.493  1.00  0.00     0.240 C 
HETATM   16  N1  UNL     1     -22.020  46.693  50.232  1.00  0.00    -0.043 N 
HETATM   17  C13 UNL     1     -22.981  47.108  49.236  1.00  0.00     0.279 C 
HETATM   18  C12 UNL     1     -23.074  48.605  49.061  1.00  0.00     0.219 C 
HETATM   19  F1  UNL     1     -22.146  49.155  48.244  1.00  0.00    -0.245 F 
BRANCH  16  20
HETATM   20  C2  UNL     1     -21.191  45.613  49.754  1.00  0.00     0.404 C 
BRANCH  20  21
HETATM   21  O1  UNL     1     -20.006  45.422  50.386  1.00  0.00    -0.369 OA
HETATM   22  C1  UNL     1     -19.447  44.179  50.351  1.00  0.00     0.203 C 
ENDBRANCH  20  21
ENDBRANCH  16  20
ENDBRANCH   7  11
ENDBRANCH   1   5
TORSDOF 4
ENDMDL
MODEL 4
REMARK VINA RESULT: -6.131241435      3.319      7.264
REMARK  4 active torsions:
REMARK  status: ('A' for Active; 'I' for Inactive)
REMARK    1  A    between atoms: O1_2  and  C2_3 
REMARK    2  A    between atoms: C2_3  and  N1_4 
REMARK    3  A    between atoms: C7_9  and  N2_10 
REMARK       I    between atoms: N2_10  and  C8_12 
REMARK       I    between atoms: C8_12  and  N3_14 
REMARK    4  A    between atoms: N3_14  and  C9_16 
ROOT
HETATM    1  C9  UNL     1     -20.672  46.698  51.196  1.00  0.00     0.189 C 
HETATM    2  C10 UNL     1     -21.052  45.652  50.174  1.00  0.00     0.048 C 
HETATM    3  C11 UNL     1     -20.029  46.016  52.334  1.00  0.00     0.084 C 
HETATM    4  N4  UNL     1     -19.535  45.467  53.231  1.00  0.00    -0.195 NA
ENDROOT
BRANCH   1   5
HETATM    5  N3  UNL     1     -21.860  47.407  51.609  1.00  0.00    -0.326 N 
HETATM    6  C8  UNL     1     -21.949  48.820  51.542  1.00  0.00     0.317 C 
HETATM    7  N2  UNL     1     -23.114  49.507  51.947  1.00  0.00    -0.335 N 
HETATM    8  O2  UNL     1     -20.982  49.498  51.116  1.00  0.00    -0.247 OA
ATOM      9  H2  UNL     1     -23.896  48.951  52.291  1.00  0.00     0.164 HD
ATOM     10  H3  UNL     1     -22.658  46.875  51.960  1.00  0.00     0.165 HD
BRANCH   7  11
HETATM   11  C7  UNL     1     -23.274  50.933  51.907  1.00  0.00     0.127 C 
HETATM   12  C5  UNL     1     -24.355  51.430  52.835  1.00  0.00     0.039 C 
HETATM   13  C4  UNL     1     -23.783  52.606  53.600  1.00  0.00     0.036 C 
HETATM   14  C6  UNL     1     -25.469  52.120  52.109  1.00  0.00     0.247 C 
HETATM   15  C3  UNL     1     -24.053  53.768  52.642  1.00  0.00     0.240 C 
HETATM   16  N1  UNL     1     -24.751  53.229  51.503  1.00  0.00    -0.043 N 
HETATM   17  C13 UNL     1     -23.838  52.806  50.467  1.00  0.00     0.279 C 
HETATM   18  C12 UNL     1     -23.552  51.323  50.471  1.00  0.00     0.219 C 
HETATM   19  F1  UNL     1     -24.466  50.552  49.836  1.00  0.00    -0.245 F 
BRANCH  16  20
HETATM   20  C2  UNL     1     -25.764  54.119  50.990  1.00  0.00     0.404 C 
BRANCH  20  21
HETATM   21  O1  UNL     1     -25.723  54.398  49.663  1.00  0.00    -0.369 OA
HETATM   22  C1  UNL     1     -26.658  53.826  48.853  1.00  0.00     0.203 C 
ENDBRANCH  20  21
ENDBRANCH  16  20
ENDBRANCH   7  11
ENDBRANCH   1   5
TORSDOF 4
ENDMDL
MODEL 5
REMARK VINA RESULT: -6.111619647      4.437      7.503
REMARK  4 active torsions:
REMARK  status: ('A' for Active; 'I' for Inactive)
REMARK    1  A    between atoms: O1_2  and  C2_3 
REMARK    2  A    between atoms: C2_3  and  N1_4 
REMARK    3  A    between atoms: C7_9  and  N2_10 
REMARK       I    between atoms: N2_10  and  C8_12 
REMARK       I    between atoms: C8_12  and  N3_14 
REMARK    4  A    between atoms: N3_14  and  C9_16 
ROOT
HETATM    1  C9  UNL     1     -27.889  51.559  44.719  1.00  0.00     0.189 C 
HETATM    2  C10 UNL     1     -26.835  51.856  43.679  1.00  0.00     0.048 C 
HETATM    3  C11 UNL     1     -29.213  51.730  44.094  1.00  0.00     0.084 C 
HETATM    4  N4  UNL     1     -30.251  51.881  43.595  1.00  0.00    -0.195 NA
ENDROOT
BRANCH   1   5
HETATM    5  N3  UNL     1     -27.714  52.457  45.837  1.00  0.00    -0.326 N 
HETATM    6  C8  UNL     1     -26.708  52.248  46.813  1.00  0.00     0.317 C 
HETATM    7  N2  UNL     1     -26.541  53.130  47.903  1.00  0.00    -0.335 N 
HETATM    8  O2  UNL     1     -25.935  51.262  46.729  1.00  0.00    -0.247 OA
ATOM      9  H2  UNL     1     -27.171  53.929  47.966  1.00  0.00     0.164 HD
ATOM     10  H3  UNL     1     -28.331  53.265  45.926  1.00  0.00     0.165 HD
BRANCH   7  11
HETATM   11  C7  UNL     1     -25.546  52.981  48.927  1.00  0.00     0.127 C 
HETATM   12  C5  UNL     1     -25.933  51.975  49.982  1.00  0.00     0.039 C 
HETATM   13  C4  UNL     1     -24.736  51.075  50.205  1.00  0.00     0.036 C 
HETATM   14  C6  UNL     1     -26.050  52.583  51.347  1.00  0.00     0.247 C 
HETATM   15  C3  UNL     1     -23.932  51.868  51.238  1.00  0.00     0.240 C 
HETATM   16  N1  UNL     1     -24.689  53.053  51.549  1.00  0.00    -0.043 N 
HETATM   17  C13 UNL     1     -24.342  54.154  50.681  1.00  0.00     0.279 C 
HETATM   18  C12 UNL     1     -25.297  54.348  49.527  1.00  0.00     0.219 C 
HETATM   19  F1  UNL     1     -26.414  55.059  49.810  1.00  0.00    -0.245 F 
BRANCH  16  20
HETATM   20  C2  UNL     1     -24.606  53.426  52.941  1.00  0.00     0.404 C 
BRANCH  20  21
HETATM   21  O1  UNL     1     -23.543  52.957  53.641  1.00  0.00    -0.369 OA
HETATM   22  C1  UNL     1     -23.761  52.462  54.892  1.00  0.00     0.203 C 
ENDBRANCH  20  21
ENDBRANCH  16  20
ENDBRANCH   7  11
ENDBRANCH   1   5
TORSDOF 4
ENDMDL
