MODEL 1
REMARK VINA RESULT: -7.166968399      0.000      0.000
REMARK  4 active torsions:
REMARK  status: ('A' for Active; 'I' for Inactive)
REMARK    1  A    between atoms: C8_10  and  C9_11 
REMARK       I    between atoms: C9_11  and  N1_13 
REMARK    2  A    between atoms: N1_13  and  C10_15 
REMARK    3  A    between atoms: C10_15  and  C11_16 
REMARK       I    between atoms: C11_16  and  N2_18 
REMARK    4  A    between atoms: N2_18  and  C12_20 
ROOT
HETATM    1  C1  UNL     1     -23.623  53.217  54.108  1.00  0.00     0.015 C 
HETATM    2  C2  UNL     1     -24.277  53.383  53.108  1.00  0.00    -0.073 C 
HETATM    3  C3  UNL     1     -25.069  53.590  51.878  1.00  0.00     0.168 C 
HETATM    4  F1  UNL     1     -25.987  54.589  52.029  1.00  0.00    -0.229 F 
HETATM    5  C4  UNL     1     -24.150  53.923  50.724  1.00  0.00     0.090 C 
HETATM    6  C5  UNL     1     -24.941  53.409  49.540  1.00  0.00     0.143 C 
HETATM    7  O1  UNL     1     -25.981  54.274  49.293  1.00  0.00    -0.384 OA
HETATM    8  C6  UNL     1     -26.879  53.471  48.572  1.00  0.00     0.169 C 
HETATM    9  C7  UNL     1     -26.923  52.166  49.336  1.00  0.00     0.048 C 
HETATM   10  C8  UNL     1     -25.583  52.137  50.022  1.00  0.00     0.073 C 
HETATM   11  C15 UNL     1     -25.680  52.265  51.509  1.00  0.00     0.079 C 
ENDROOT
BRANCH  10  12
HETATM   12  C9  UNL     1     -24.748  50.988  49.590  1.00  0.00     0.229 C 
HETATM   13  O2  UNL     1     -24.934  50.493  48.442  1.00  0.00    -0.273 OA
HETATM   14  N1  UNL     1     -23.745  50.429  50.432  1.00  0.00    -0.352 N 
ATOM     15  H1  UNL     1     -23.573  50.809  51.362  1.00  0.00     0.162 HD
BRANCH  14  16
HETATM   16  C10 UNL     1     -22.976  49.311  49.935  1.00  0.00     0.225 C 
BRANCH  16  17
HETATM   17  C11 UNL     1     -23.195  48.083  50.726  1.00  0.00     0.235 C 
HETATM   18  O3  UNL     1     -23.890  47.175  50.201  1.00  0.00    -0.272 OA
HETATM   19  N2  UNL     1     -22.628  47.970  52.019  1.00  0.00    -0.356 N 
ATOM     20  H2  UNL     1     -22.070  48.731  52.407  1.00  0.00     0.162 HD
BRANCH  19  21
HETATM   21  C12 UNL     1     -22.850  46.767  52.780  1.00  0.00     0.076 C 
HETATM   22  C13 UNL     1     -23.404  47.177  54.133  1.00  0.00     0.032 C 
HETATM   23  C14 UNL     1     -21.573  45.964  52.948  1.00  0.00     0.032 C 
ENDBRANCH  19  21
ENDBRANCH  16  17
ENDBRANCH  14  16
ENDBRANCH  10  12
TORSDOF 4
ENDMDL
MODEL 2
REMARK VINA RESULT: -7.108613392      0.806      1.086
REMARK  4 active torsions:
REMARK  status: ('A' for Active; 'I' for Inactive)
REMARK    1  A    between atoms: C8_10  and  C9_11 
REMARK       I    between atoms: C9_11  and  N1_13 
REMARK    2  A    between atoms: N1_13  and  C10_15 
REMARK    3  A    between atoms: C10_15  and  C11_16 
REMARK       I    between atoms: C11_16  and  N2_18 
REMARK    4  A    between atoms: N2_18  and  C12_20 
ROOT
HETATM    1  C1  UNL     1     -23.620  53.142  54.071  1.00  0.00     0.015 C 
HETATM    2  C2  UNL     1     -24.269  53.334  53.073  1.00  0.00    -0.073 C 
HETATM    3  C3  UNL     1     -25.057  53.572  51.846  1.00  0.00     0.168 C 
HETATM    4  F1  UNL     1     -25.923  54.617  51.995  1.00  0.00    -0.229 F 
HETATM    5  C4  UNL     1     -24.129  53.850  50.685  1.00  0.00     0.090 C 
HETATM    6  C5  UNL     1     -24.952  53.368  49.509  1.00  0.00     0.143 C 
HETATM    7  O1  UNL     1     -25.948  54.283  49.261  1.00  0.00    -0.384 OA
HETATM    8  C6  UNL     1     -26.890  53.522  48.551  1.00  0.00     0.169 C 
HETATM    9  C7  UNL     1     -26.996  52.226  49.325  1.00  0.00     0.048 C 
HETATM   10  C8  UNL     1     -25.655  52.134  50.004  1.00  0.00     0.073 C 
HETATM   11  C15 UNL     1     -25.737  52.277  51.491  1.00  0.00     0.079 C 
ENDROOT
BRANCH  10  12
HETATM   12  C9  UNL     1     -24.882  50.941  49.576  1.00  0.00     0.229 C 
HETATM   13  O2  UNL     1     -25.065  50.477  48.415  1.00  0.00    -0.273 OA
HETATM   14  N1  UNL     1     -23.942  50.306  50.436  1.00  0.00    -0.352 N 
ATOM     15  H1  UNL     1     -23.774  50.659  51.378  1.00  0.00     0.162 HD
BRANCH  14  16
HETATM   16  C10 UNL     1     -23.231  49.149  49.942  1.00  0.00     0.225 C 
BRANCH  16  17
HETATM   17  C11 UNL     1     -22.521  48.425  51.016  1.00  0.00     0.235 C 
HETATM   18  O3  UNL     1     -21.337  48.772  51.261  1.00  0.00    -0.272 OA
HETATM   19  N2  UNL     1     -23.181  47.387  51.719  1.00  0.00    -0.356 N 
ATOM     20  H2  UNL     1     -24.143  47.137  51.488  1.00  0.00     0.162 HD
BRANCH  19  21
HETATM   21  C12 UNL     1     -22.477  46.688  52.763  1.00  0.00     0.076 C 
HETATM   22  C13 UNL     1     -22.336  45.239  52.331  1.00  0.00     0.032 C 
HETATM   23  C14 UNL     1     -23.206  46.779  54.091  1.00  0.00     0.032 C 
ENDBRANCH  19  21
ENDBRANCH  16  17
ENDBRANCH  14  16
ENDBRANCH  10  12
TORSDOF 4
ENDMDL
MODEL 3
REMARK VINA RESULT: -7.024141151      1.431      1.649
REMARK  4 active torsions:
REMARK  status: ('A' for Active; 'I' for Inactive)
REMARK    1  A    between atoms: C8_10  and  C9_11 
REMARK       I    between atoms: C9_11  and  N1_13 
REMARK    2  A    between atoms: N1_13  and  C10_15 
REMARK    3  A    between atoms: C10_15  and  C11_16 
REMARK       I    between atoms: C11_16  and  N2_18 
REMARK    4  A    between atoms: N2_18  and  C12_20 
ROOT
HETATM    1  C1  UNL     1     -23.873  52.832  54.761  1.00  0.00     0.015 C 
HETATM    2  C2  UNL     1     -24.365  52.784  53.661  1.00  0.00    -0.073 C 
HETATM    3  C3  UNL     1     -24.960  52.730  52.309  1.00  0.00     0.168 C 
HETATM    4  F1  UNL     1     -26.137  53.418  52.247  1.00  0.00    -0.229 F 
HETATM    5  C4  UNL     1     -23.991  53.299  51.298  1.00  0.00     0.090 C 
HETATM    6  C5  UNL     1     -24.387  52.557  50.038  1.00  0.00     0.143 C 
HETATM    7  O1  UNL     1     -25.572  53.075  49.573  1.00  0.00    -0.384 OA
HETATM    8  C6  UNL     1     -26.066  52.033  48.772  1.00  0.00     0.169 C 
HETATM    9  C7  UNL     1     -25.865  50.785  49.603  1.00  0.00     0.048 C 
HETATM   10  C8  UNL     1     -24.711  51.161  50.494  1.00  0.00     0.073 C 
HETATM   11  C15 UNL     1     -25.094  51.278  51.935  1.00  0.00     0.079 C 
ENDROOT
BRANCH  10  12
HETATM   12  C9  UNL     1     -23.521  50.299  50.276  1.00  0.00     0.229 C 
HETATM   13  O2  UNL     1     -23.301  49.840  49.120  1.00  0.00    -0.273 OA
HETATM   14  N1  UNL     1     -22.622  49.979  51.333  1.00  0.00    -0.352 N 
ATOM     15  H1  UNL     1     -22.775  50.336  52.276  1.00  0.00     0.162 HD
BRANCH  14  16
HETATM   16  C10 UNL     1     -21.488  49.134  51.036  1.00  0.00     0.225 C 
BRANCH  16  17
HETATM   17  C11 UNL     1     -21.552  47.839  51.745  1.00  0.00     0.235 C 
HETATM   18  O3  UNL     1     -20.676  46.982  51.460  1.00  0.00    -0.272 OA
HETATM   19  N2  UNL     1     -22.573  47.610  52.700  1.00  0.00    -0.356 N 
ATOM     20  H2  UNL     1     -23.263  48.333  52.901  1.00  0.00     0.162 HD
BRANCH  19  21
HETATM   21  C12 UNL     1     -22.624  46.343  53.382  1.00  0.00     0.076 C 
HETATM   22  C13 UNL     1     -23.518  45.421  52.572  1.00  0.00     0.032 C 
HETATM   23  C14 UNL     1     -23.151  46.487  54.798  1.00  0.00     0.032 C 
ENDBRANCH  19  21
ENDBRANCH  16  17
ENDBRANCH  14  16
ENDBRANCH  10  12
TORSDOF 4
ENDMDL
MODEL 4
REMARK VINA RESULT: -7.007740069      3.628      6.821
REMARK  4 active torsions:
REMARK  status: ('A' for Active; 'I' for Inactive)
REMARK    1  A    between atoms: C8_10  and  C9_11 
REMARK       I    between atoms: C9_11  and  N1_13 
REMARK    2  A    between atoms: N1_13  and  C10_15 
REMARK    3  A    between atoms: C10_15  and  C11_16 
REMARK       I    between atoms: C11_16  and  N2_18 
REMARK    4  A    between atoms: N2_18  and  C12_20 
ROOT
HETATM    1  C1  UNL     1     -26.870  50.562  45.923  1.00  0.00     0.015 C 
HETATM    2  C2  UNL     1     -25.938  49.797  45.964  1.00  0.00    -0.073 C 
HETATM    3  C3  UNL     1     -24.790  48.868  46.009  1.00  0.00     0.168 C 
HETATM    4  F1  UNL     1     -24.872  47.914  45.036  1.00  0.00    -0.229 F 
HETATM    5  C4  UNL     1     -23.499  49.638  45.852  1.00  0.00     0.090 C 
HETATM    6  C5  UNL     1     -22.520  48.756  46.599  1.00  0.00     0.143 C 
HETATM    7  O1  UNL     1     -22.249  47.647  45.832  1.00  0.00    -0.384 OA
HETATM    8  C6  UNL     1     -21.786  46.726  46.784  1.00  0.00     0.169 C 
HETATM    9  C7  UNL     1     -22.763  46.839  47.933  1.00  0.00     0.048 C 
HETATM   10  C8  UNL     1     -23.285  48.245  47.788  1.00  0.00     0.073 C 
HETATM   11  C15 UNL     1     -24.729  48.299  47.402  1.00  0.00     0.079 C 
ENDROOT
BRANCH  10  12
HETATM   12  C9  UNL     1     -22.964  49.094  48.963  1.00  0.00     0.229 C 
HETATM   13  O2  UNL     1     -21.908  48.862  49.617  1.00  0.00    -0.273 OA
HETATM   14  N1  UNL     1     -23.812  50.162  49.372  1.00  0.00    -0.352 N 
ATOM     15  H1  UNL     1     -24.670  50.372  48.862  1.00  0.00     0.162 HD
BRANCH  14  16
HETATM   16  C10 UNL     1     -23.427  50.941  50.526  1.00  0.00     0.225 C 
BRANCH  16  17
HETATM   17  C11 UNL     1     -24.437  51.959  50.879  1.00  0.00     0.235 C 
HETATM   18  O3  UNL     1     -25.558  51.546  51.274  1.00  0.00    -0.272 OA
HETATM   19  N2  UNL     1     -24.119  53.335  50.765  1.00  0.00    -0.356 N 
ATOM     20  H2  UNL     1     -23.197  53.626  50.440  1.00  0.00     0.162 HD
BRANCH  19  21
HETATM   21  C12 UNL     1     -25.114  54.317  51.111  1.00  0.00     0.076 C 
HETATM   22  C13 UNL     1     -25.889  54.650  49.849  1.00  0.00     0.032 C 
HETATM   23  C14 UNL     1     -24.488  55.568  51.699  1.00  0.00     0.032 C 
ENDBRANCH  19  21
ENDBRANCH  16  17
ENDBRANCH  14  16
ENDBRANCH  10  12
TORSDOF 4
ENDMDL
MODEL 5
REMARK VINA RESULT: -7.006199132      1.623      3.091
REMARK  4 active torsions:
REMARK  status: ('A' for Active; 'I' for Inactive)
REMARK    1  A    between atoms: C8_10  and  C9_11 
REMARK       I    between atoms: C9_11  and  N1_13 
REMARK    2  A    between atoms: N1_13  and  C10_15 
REMARK    3  A    between atoms: C10_15  and  C11_16 
REMARK       I    between atoms: C11_16  and  N2_18 
REMARK    4  A    between atoms: N2_18  and  C12_20 
ROOT
HETATM    1  C1  UNL     1     -26.499  53.657  48.133  1.00  0.00     0.015 C 
HETATM    2  C2  UNL     1     -26.152  53.523  49.280  1.00  0.00    -0.073 C 
HETATM    3  C3  UNL     1     -25.734  53.352  50.687  1.00  0.00     0.168 C 
HETATM    4  F1  UNL     1     -26.148  54.392  51.468  1.00  0.00    -0.229 F 
HETATM    5  C4  UNL     1     -26.292  52.058  51.235  1.00  0.00     0.090 C 
HETATM    6  C5  UNL     1     -25.268  51.704  52.293  1.00  0.00     0.143 C 
HETATM    7  O1  UNL     1     -25.443  52.534  53.375  1.00  0.00    -0.384 OA
HETATM    8  C6  UNL     1     -24.195  52.469  54.014  1.00  0.00     0.169 C 
HETATM    9  C7  UNL     1     -23.186  52.607  52.895  1.00  0.00     0.048 C 
HETATM   10  C8  UNL     1     -23.943  52.093  51.699  1.00  0.00     0.073 C 
HETATM   11  C15 UNL     1     -24.242  53.157  50.691  1.00  0.00     0.079 C 
ENDROOT
BRANCH  10  12
HETATM   12  C9  UNL     1     -23.313  50.887  51.104  1.00  0.00     0.229 C 
HETATM   13  O2  UNL     1     -23.554  50.603  49.897  1.00  0.00    -0.273 OA
HETATM   14  N1  UNL     1     -22.445  50.045  51.855  1.00  0.00    -0.352 N 
ATOM     15  H1  UNL     1     -22.233  50.251  52.831  1.00  0.00     0.162 HD
BRANCH  14  16
HETATM   16  C10 UNL     1     -21.873  48.890  51.201  1.00  0.00     0.225 C 
BRANCH  16  17
HETATM   17  C11 UNL     1     -22.512  47.628  51.628  1.00  0.00     0.235 C 
HETATM   18  O3  UNL     1     -23.073  46.937  50.739  1.00  0.00    -0.272 OA
HETATM   19  N2  UNL     1     -22.472  47.247  52.991  1.00  0.00    -0.356 N 
ATOM     20  H2  UNL     1     -22.006  47.838  53.680  1.00  0.00     0.162 HD
BRANCH  19  21
HETATM   21  C12 UNL     1     -23.100  46.015  53.394  1.00  0.00     0.076 C 
HETATM   22  C13 UNL     1     -23.687  46.230  54.778  1.00  0.00     0.032 C 
HETATM   23  C14 UNL     1     -22.115  44.860  53.407  1.00  0.00     0.032 C 
ENDBRANCH  19  21
ENDBRANCH  16  17
ENDBRANCH  14  16
ENDBRANCH  10  12
TORSDOF 4
ENDMDL
