MODEL 1
REMARK VINA RESULT: -5.791242291      0.000      0.000
REMARK  6 active torsions:
REMARK  status: ('A' for Active; 'I' for Inactive)
REMARK    1  A    between atoms: O1_1  and  C1_3 
REMARK    2  A    between atoms: C1_3  and  C2_4 
REMARK    3  A    between atoms: C2_4  and  C3_5 
REMARK    4  A    between atoms: C2_4  and  N2_14 
REMARK    5  A    between atoms: C3_5  and  O2_6 
REMARK    6  A    between atoms: C3_5  and  C4_8 
ROOT
HETATM    1  C2  UNL     1     -23.665  52.266  52.186  1.00  0.00     0.141 C 
ENDROOT
BRANCH   1   2
HETATM    2  C1  UNL     1     -23.813  52.888  53.569  1.00  0.00     0.192 C 
BRANCH   2   3
HETATM    3  O1  UNL     1     -22.738  52.691  54.393  1.00  0.00    -0.399 OA
ATOM      4  H1  UNL     1     -22.950  52.268  55.217  1.00  0.00     0.209 HD
ENDBRANCH   2   3
ENDBRANCH   1   2
BRANCH   1   5
HETATM    5  C3  UNL     1     -23.991  50.802  52.201  1.00  0.00     0.188 C 
BRANCH   5   6
HETATM    6  O2  UNL     1     -24.025  50.377  53.528  1.00  0.00    -0.388 OA
ATOM      7  H2  UNL     1     -24.780  50.772  53.947  1.00  0.00     0.210 HD
ENDBRANCH   5   6
BRANCH   5   8
HETATM    8  C4  UNL     1     -23.054  49.970  51.403  1.00  0.00     0.017 C 
HETATM    9  N1  UNL     1     -22.265  49.094  51.857  1.00  0.00    -0.374 N 
HETATM   10  C5  UNL     1     -21.486  48.454  50.872  1.00  0.00     0.061 C 
ATOM     11  H1  UNL     1     -22.198  48.870  52.850  1.00  0.00     0.164 HD
HETATM   12  C6  UNL     1     -21.758  49.191  49.602  1.00  0.00     0.050 C 
HETATM   13  C7  UNL     1     -22.928  50.056  49.925  1.00  0.00     0.060 C 
ENDBRANCH   5   8
ENDBRANCH   1   5
BRANCH   1  14
HETATM   14  N2  UNL     1     -24.374  53.045  51.279  1.00  0.00    -0.383 N 
HETATM   15  C8  UNL     1     -24.548  54.419  51.426  1.00  0.00     0.124 C 
HETATM   16  C9  UNL     1     -25.241  54.798  50.104  1.00  0.00     0.041 C 
HETATM   17  C10 UNL     1     -26.203  53.626  49.936  1.00  0.00     0.097 C 
HETATM   18 BR1  UNL     1     -26.616  53.326  48.070  1.00  0.00    -0.086 Br
HETATM   19  C11 UNL     1     -25.349  52.474  50.436  1.00  0.00     0.074 C 
ENDBRANCH   1  14
TORSDOF 6
ENDMDL
MODEL 2
REMARK VINA RESULT: -5.770394153      3.001      4.522
REMARK  6 active torsions:
REMARK  status: ('A' for Active; 'I' for Inactive)
REMARK    1  A    between atoms: O1_1  and  C1_3 
REMARK    2  A    between atoms: C1_3  and  C2_4 
REMARK    3  A    between atoms: C2_4  and  C3_5 
REMARK    4  A    between atoms: C2_4  and  N2_14 
REMARK    5  A    between atoms: C3_5  and  O2_6 
REMARK    6  A    between atoms: C3_5  and  C4_8 
ROOT
HETATM    1  C2  UNL     1     -22.673  48.605  50.124  1.00  0.00     0.141 C 
ENDROOT
BRANCH   1   2
HETATM    2  C1  UNL     1     -22.152  48.526  48.694  1.00  0.00     0.192 C 
BRANCH   2   3
HETATM    3  O1  UNL     1     -21.390  47.419  48.434  1.00  0.00    -0.399 OA
ATOM      4  H1  UNL     1     -21.583  46.998  47.604  1.00  0.00     0.209 HD
ENDBRANCH   2   3
ENDBRANCH   1   2
BRANCH   1   5
HETATM    5  C3  UNL     1     -21.554  48.749  51.112  1.00  0.00     0.188 C 
BRANCH   5   6
HETATM    6  O2  UNL     1     -20.417  49.171  50.425  1.00  0.00    -0.388 OA
ATOM      7  H2  UNL     1     -20.242  50.073  50.667  1.00  0.00     0.210 HD
ENDBRANCH   5   6
BRANCH   5   8
HETATM    8  C4  UNL     1     -21.275  47.513  51.888  1.00  0.00     0.017 C 
HETATM    9  N1  UNL     1     -20.139  46.996  52.081  1.00  0.00    -0.374 N 
HETATM   10  C5  UNL     1     -20.165  45.819  52.856  1.00  0.00     0.061 C 
ATOM     11  H1  UNL     1     -19.278  47.396  51.709  1.00  0.00     0.164 HD
HETATM   12  C6  UNL     1     -21.610  45.489  53.038  1.00  0.00     0.050 C 
HETATM   13  C7  UNL     1     -22.326  46.708  52.563  1.00  0.00     0.060 C 
ENDBRANCH   5   8
ENDBRANCH   1   5
BRANCH   1  14
HETATM   14  N2  UNL     1     -23.665  49.578  50.173  1.00  0.00    -0.383 N 
HETATM   15  C8  UNL     1     -24.467  49.905  49.082  1.00  0.00     0.124 C 
HETATM   16  C9  UNL     1     -25.475  50.888  49.707  1.00  0.00     0.041 C 
HETATM   17  C10 UNL     1     -24.560  51.695  50.624  1.00  0.00     0.097 C 
HETATM   18 BR1  UNL     1     -25.542  52.418  52.125  1.00  0.00    -0.086 Br
HETATM   19  C11 UNL     1     -23.625  50.611  51.131  1.00  0.00     0.074 C 
ENDBRANCH   1  14
TORSDOF 6
ENDMDL
MODEL 3
REMARK VINA RESULT: -5.745316796      4.644      5.851
REMARK  6 active torsions:
REMARK  status: ('A' for Active; 'I' for Inactive)
REMARK    1  A    between atoms: O1_1  and  C1_3 
REMARK    2  A    between atoms: C1_3  and  C2_4 
REMARK    3  A    between atoms: C2_4  and  C3_5 
REMARK    4  A    between atoms: C2_4  and  N2_14 
REMARK    5  A    between atoms: C3_5  and  O2_6 
REMARK    6  A    between atoms: C3_5  and  C4_8 
ROOT
HETATM    1  C2  UNL     1     -24.575  49.155  46.942  1.00  0.00     0.141 C 
ENDROOT
BRANCH   1   2
HETATM    2  C1  UNL     1     -25.589  49.253  45.810  1.00  0.00     0.192 C 
BRANCH   2   3
HETATM    3  O1  UNL     1     -25.796  48.079  45.137  1.00  0.00    -0.399 OA
ATOM      4  H1  UNL     1     -26.023  48.188  44.221  1.00  0.00     0.209 HD
ENDBRANCH   2   3
ENDBRANCH   1   2
BRANCH   1   5
HETATM    5  C3  UNL     1     -23.167  49.178  46.427  1.00  0.00     0.188 C 
BRANCH   5   6
HETATM    6  O2  UNL     1     -23.187  49.681  45.127  1.00  0.00    -0.388 OA
ATOM      7  H2  UNL     1     -23.217  48.947  44.525  1.00  0.00     0.210 HD
ENDBRANCH   5   6
BRANCH   5   8
HETATM    8  C4  UNL     1     -22.489  47.856  46.472  1.00  0.00     0.017 C 
HETATM    9  N1  UNL     1     -22.290  47.088  45.488  1.00  0.00    -0.374 N 
HETATM   10  C5  UNL     1     -21.622  45.892  45.818  1.00  0.00     0.061 C 
ATOM     11  H1  UNL     1     -22.587  47.314  44.540  1.00  0.00     0.164 HD
HETATM   12  C6  UNL     1     -21.535  45.877  47.309  1.00  0.00     0.050 C 
HETATM   13  C7  UNL     1     -21.934  47.255  47.712  1.00  0.00     0.060 C 
ENDBRANCH   5   8
ENDBRANCH   1   5
BRANCH   1  14
HETATM   14  N2  UNL     1     -24.895  50.113  47.898  1.00  0.00    -0.383 N 
HETATM   15  C8  UNL     1     -24.646  49.946  49.258  1.00  0.00     0.124 C 
HETATM   16  C9  UNL     1     -25.028  51.325  49.827  1.00  0.00     0.041 C 
HETATM   17  C10 UNL     1     -26.282  51.635  49.014  1.00  0.00     0.097 C 
HETATM   18 BR1  UNL     1     -26.549  53.543  48.846  1.00  0.00    -0.086 Br
HETATM   19  C11 UNL     1     -25.895  51.077  47.656  1.00  0.00     0.074 C 
ENDBRANCH   1  14
TORSDOF 6
ENDMDL
MODEL 4
REMARK VINA RESULT: -5.735568155      2.687      4.023
REMARK  6 active torsions:
REMARK  status: ('A' for Active; 'I' for Inactive)
REMARK    1  A    between atoms: O1_1  and  C1_3 
REMARK    2  A    between atoms: C1_3  and  C2_4 
REMARK    3  A    between atoms: C2_4  and  C3_5 
REMARK    4  A    between atoms: C2_4  and  N2_14 
REMARK    5  A    between atoms: C3_5  and  O2_6 
REMARK    6  A    between atoms: C3_5  and  C4_8 
ROOT
HETATM    1  C2  UNL     1     -22.706  49.107  50.318  1.00  0.00     0.141 C 
ENDROOT
BRANCH   1   2
HETATM    2  C1  UNL     1     -22.334  49.012  48.844  1.00  0.00     0.192 C 
BRANCH   2   3
HETATM    3  O1  UNL     1     -21.738  47.832  48.490  1.00  0.00    -0.399 OA
ATOM      4  H1  UNL     1     -22.308  47.230  48.027  1.00  0.00     0.209 HD
ENDBRANCH   2   3
ENDBRANCH   1   2
BRANCH   1   5
HETATM    5  C3  UNL     1     -21.501  48.990  51.202  1.00  0.00     0.188 C 
BRANCH   5   6
HETATM    6  O2  UNL     1     -20.369  49.256  50.433  1.00  0.00    -0.388 OA
ATOM      7  H2  UNL     1     -20.385  50.174  50.190  1.00  0.00     0.210 HD
ENDBRANCH   5   6
BRANCH   5   8
HETATM    8  C4  UNL     1     -21.381  47.674  51.882  1.00  0.00     0.017 C 
HETATM    9  N1  UNL     1     -20.307  47.045  52.101  1.00  0.00    -0.374 N 
HETATM   10  C5  UNL     1     -20.486  45.815  52.766  1.00  0.00     0.061 C 
ATOM     11  H1  UNL     1     -19.392  47.396  51.820  1.00  0.00     0.164 HD
HETATM   12  C6  UNL     1     -21.962  45.601  52.827  1.00  0.00     0.050 C 
HETATM   13  C7  UNL     1     -22.540  46.913  52.417  1.00  0.00     0.060 C 
ENDBRANCH   5   8
ENDBRANCH   1   5
BRANCH   1  14
HETATM   14  N2  UNL     1     -23.491  50.241  50.497  1.00  0.00    -0.383 N 
HETATM   15  C8  UNL     1     -23.503  50.983  51.675  1.00  0.00     0.124 C 
HETATM   16  C9  UNL     1     -24.386  52.185  51.291  1.00  0.00     0.041 C 
HETATM   17  C10 UNL     1     -25.470  51.494  50.469  1.00  0.00     0.097 C 
HETATM   18 BR1  UNL     1     -26.243  52.708  49.176  1.00  0.00    -0.086 Br
HETATM   19  C11 UNL     1     -24.654  50.450  49.727  1.00  0.00     0.074 C 
ENDBRANCH   1  14
TORSDOF 6
ENDMDL
MODEL 5
REMARK VINA RESULT: -5.705155103      3.678      5.767
REMARK  6 active torsions:
REMARK  status: ('A' for Active; 'I' for Inactive)
REMARK    1  A    between atoms: O1_1  and  C1_3 
REMARK    2  A    between atoms: C1_3  and  C2_4 
REMARK    3  A    between atoms: C2_4  and  C3_5 
REMARK    4  A    between atoms: C2_4  and  N2_14 
REMARK    5  A    between atoms: C3_5  and  O2_6 
REMARK    6  A    between atoms: C3_5  and  C4_8 
ROOT
HETATM    1  C2  UNL     1     -25.638  51.769  48.357  1.00  0.00     0.141 C 
ENDROOT
BRANCH   1   2
HETATM    2  C1  UNL     1     -26.355  51.728  47.014  1.00  0.00     0.192 C 
BRANCH   2   3
HETATM    3  O1  UNL     1     -26.024  52.751  46.168  1.00  0.00    -0.399 OA
ATOM      4  H1  UNL     1     -26.200  52.573  45.251  1.00  0.00     0.209 HD
ENDBRANCH   2   3
ENDBRANCH   1   2
BRANCH   1   5
HETATM    5  C3  UNL     1     -26.449  52.488  49.394  1.00  0.00     0.188 C 
BRANCH   5   6
HETATM    6  O2  UNL     1     -27.304  53.374  48.741  1.00  0.00    -0.388 OA
ATOM      7  H2  UNL     1     -28.111  52.914  48.539  1.00  0.00     0.210 HD
ENDBRANCH   5   6
BRANCH   5   8
HETATM    8  C4  UNL     1     -25.631  53.196  50.413  1.00  0.00     0.017 C 
HETATM    9  N1  UNL     1     -25.182  52.698  51.484  1.00  0.00    -0.374 N 
HETATM   10  C5  UNL     1     -24.435  53.599  52.268  1.00  0.00     0.061 C 
ATOM     11  H1  UNL     1     -25.347  51.729  51.757  1.00  0.00     0.164 HD
HETATM   12  C6  UNL     1     -24.589  54.931  51.610  1.00  0.00     0.050 C 
HETATM   13  C7  UNL     1     -25.215  54.617  50.294  1.00  0.00     0.060 C 
ENDBRANCH   5   8
ENDBRANCH   1   5
BRANCH   1  14
HETATM   14  N2  UNL     1     -25.236  50.478  48.677  1.00  0.00    -0.383 N 
HETATM   15  C8  UNL     1     -26.125  49.473  49.053  1.00  0.00     0.124 C 
HETATM   16  C9  UNL     1     -25.204  48.241  49.130  1.00  0.00     0.041 C 
HETATM   17  C10 UNL     1     -23.964  48.849  49.779  1.00  0.00     0.097 C 
HETATM   18 BR1  UNL     1     -22.370  47.867  49.290  1.00  0.00    -0.086 Br
HETATM   19  C11 UNL     1     -23.921  50.210  49.109  1.00  0.00     0.074 C 
ENDBRANCH   1  14
TORSDOF 6
ENDMDL
