MODEL 1
REMARK VINA RESULT: -6.507241218      0.000      0.000
REMARK  4 active torsions:
REMARK  status: ('A' for Active; 'I' for Inactive)
REMARK       I    between atoms: C2_2  and  N1_4 
REMARK    1  A    between atoms: N1_4  and  C3_6 
REMARK    2  A    between atoms: C3_6  and  C5_8 
REMARK       I    between atoms: C5_8  and  N2_10 
REMARK    3  A    between atoms: C8_13  and  C9_14 
REMARK    4  A    between atoms: C11_18  and  C12_19 
ROOT
HETATM    1  C5  UNL     1     -26.123  49.876  48.808  1.00  0.00     0.242 C 
HETATM    2  O2  UNL     1     -27.132  49.160  49.039  1.00  0.00    -0.271 OA
HETATM    3  N2  UNL     1     -24.851  49.300  49.019  1.00  0.00    -0.340 N 
HETATM    4  C6  UNL     1     -24.856  47.885  49.474  1.00  0.00     0.127 C 
HETATM    5  C7  UNL     1     -24.172  47.062  48.385  1.00  0.00     0.035 C 
HETATM    6  C8  UNL     1     -23.759  47.978  47.249  1.00  0.00     0.090 C 
HETATM    7  C10 UNL     1     -22.826  49.016  47.777  1.00  0.00     0.047 C 
HETATM    8  C11 UNL     1     -23.576  49.859  48.807  1.00  0.00     0.145 C 
ENDROOT
BRANCH   1   9
HETATM    9  C3  UNL     1     -26.392  51.244  48.335  1.00  0.00     0.172 C 
HETATM   10  C4  UNL     1     -25.847  51.491  46.916  1.00  0.00     0.042 C 
BRANCH   9  11
HETATM   11  N1  UNL     1     -25.643  52.227  49.149  1.00  0.00    -0.348 N 
HETATM   12  C2  UNL     1     -26.023  53.570  49.228  1.00  0.00     0.214 C 
HETATM   13  C1  UNL     1     -25.252  54.520  50.051  1.00  0.00     0.117 C 
HETATM   14  O1  UNL     1     -27.038  53.991  48.592  1.00  0.00    -0.274 OA
ATOM     15  H1  UNL     1     -24.824  51.915  49.670  1.00  0.00     0.163 HD
ENDBRANCH   9  11
ENDBRANCH   1   9
BRANCH   8  16
HETATM   16  C12 UNL     1     -22.650  50.141  49.909  1.00  0.00     0.090 C 
HETATM   17  C13 UNL     1     -21.562  49.192  50.228  1.00  0.00     0.079 C 
HETATM   18  F1  UNL     1     -23.246  50.598  51.094  1.00  0.00    -0.214 F 
ENDBRANCH   8  16
BRANCH   6  19
HETATM   19  C9  UNL     1     -23.145  47.273  46.128  1.00  0.00     0.177 C 
HETATM   20  O3  UNL     1     -23.871  46.732  45.262  1.00  0.00    -0.648 OA
HETATM   21  O4  UNL     1     -21.764  47.164  45.960  1.00  0.00    -0.648 OA
ENDBRANCH   6  19
TORSDOF 4
ENDMDL
MODEL 2
REMARK VINA RESULT: -6.454377257      3.439      4.301
REMARK  4 active torsions:
REMARK  status: ('A' for Active; 'I' for Inactive)
REMARK       I    between atoms: C2_2  and  N1_4 
REMARK    1  A    between atoms: N1_4  and  C3_6 
REMARK    2  A    between atoms: C3_6  and  C5_8 
REMARK       I    between atoms: C5_8  and  N2_10 
REMARK    3  A    between atoms: C8_13  and  C9_14 
REMARK    4  A    between atoms: C11_18  and  C12_19 
ROOT
HETATM    1  C5  UNL     1     -23.021  50.255  50.865  1.00  0.00     0.242 C 
HETATM    2  O2  UNL     1     -21.909  50.176  51.449  1.00  0.00    -0.271 OA
HETATM    3  N2  UNL     1     -23.235  49.412  49.752  1.00  0.00    -0.340 N 
HETATM    4  C6  UNL     1     -22.112  48.500  49.413  1.00  0.00     0.127 C 
HETATM    5  C7  UNL     1     -22.624  47.073  49.592  1.00  0.00     0.035 C 
HETATM    6  C8  UNL     1     -24.066  47.112  50.057  1.00  0.00     0.090 C 
HETATM    7  C10 UNL     1     -24.886  47.833  49.040  1.00  0.00     0.047 C 
HETATM    8  C11 UNL     1     -24.385  49.274  48.951  1.00  0.00     0.145 C 
ENDROOT
BRANCH   1   9
HETATM    9  C3  UNL     1     -23.979  51.225  51.420  1.00  0.00     0.172 C 
HETATM   10  C4  UNL     1     -24.070  52.509  50.575  1.00  0.00     0.042 C 
BRANCH   9  11
HETATM   11  N1  UNL     1     -23.505  51.727  52.729  1.00  0.00    -0.348 N 
HETATM   12  C2  UNL     1     -24.380  51.982  53.788  1.00  0.00     0.214 C 
HETATM   13  C1  UNL     1     -23.869  52.481  55.079  1.00  0.00     0.117 C 
HETATM   14  O1  UNL     1     -25.628  51.789  53.655  1.00  0.00    -0.274 OA
ATOM     15  H1  UNL     1     -22.507  51.891  52.863  1.00  0.00     0.163 HD
ENDBRANCH   9  11
ENDBRANCH   1   9
BRANCH   8  16
HETATM   16  C12 UNL     1     -24.407  49.664  47.537  1.00  0.00     0.090 C 
HETATM   17  C13 UNL     1     -25.554  50.421  46.991  1.00  0.00     0.079 C 
HETATM   18  F1  UNL     1     -24.019  48.667  46.630  1.00  0.00    -0.214 F 
ENDBRANCH   8  16
BRANCH   6  19
HETATM   19  C9  UNL     1     -24.630  45.791  50.314  1.00  0.00     0.177 C 
HETATM   20  O3  UNL     1     -24.724  44.963  49.378  1.00  0.00    -0.648 OA
HETATM   21  O4  UNL     1     -25.083  45.385  51.570  1.00  0.00    -0.648 OA
ENDBRANCH   6  19
TORSDOF 4
ENDMDL
MODEL 3
REMARK VINA RESULT: -6.451345285      2.464      3.218
REMARK  4 active torsions:
REMARK  status: ('A' for Active; 'I' for Inactive)
REMARK       I    between atoms: C2_2  and  N1_4 
REMARK    1  A    between atoms: N1_4  and  C3_6 
REMARK    2  A    between atoms: C3_6  and  C5_8 
REMARK       I    between atoms: C5_8  and  N2_10 
REMARK    3  A    between atoms: C8_13  and  C9_14 
REMARK    4  A    between atoms: C11_18  and  C12_19 
ROOT
HETATM    1  C5  UNL     1     -25.223  51.315  50.340  1.00  0.00     0.242 C 
HETATM    2  O2  UNL     1     -26.304  51.952  50.430  1.00  0.00    -0.271 OA
HETATM    3  N2  UNL     1     -25.221  50.138  49.559  1.00  0.00    -0.340 N 
HETATM    4  C6  UNL     1     -26.513  49.799  48.908  1.00  0.00     0.127 C 
HETATM    5  C7  UNL     1     -26.282  49.853  47.400  1.00  0.00     0.035 C 
HETATM    6  C8  UNL     1     -24.843  50.242  47.126  1.00  0.00     0.090 C 
HETATM    7  C10 UNL     1     -23.940  49.233  47.753  1.00  0.00     0.047 C 
HETATM    8  C11 UNL     1     -24.153  49.268  49.265  1.00  0.00     0.145 C 
ENDROOT
BRANCH   1   9
HETATM    9  C3  UNL     1     -24.072  51.882  51.063  1.00  0.00     0.172 C 
HETATM   10  C4  UNL     1     -23.631  51.001  52.246  1.00  0.00     0.042 C 
BRANCH   9  11
HETATM   11  N1  UNL     1     -24.453  53.151  51.723  1.00  0.00    -0.348 N 
HETATM   12  C2  UNL     1     -24.427  54.375  51.049  1.00  0.00     0.214 C 
HETATM   13  C1  UNL     1     -24.815  55.620  51.741  1.00  0.00     0.117 C 
HETATM   14  O1  UNL     1     -24.070  54.435  49.832  1.00  0.00    -0.274 OA
ATOM     15  H1  UNL     1     -24.744  53.132  52.700  1.00  0.00     0.163 HD
ENDBRANCH   9  11
ENDBRANCH   1   9
BRANCH   8  16
HETATM   16  C12 UNL     1     -24.112  47.885  49.752  1.00  0.00     0.090 C 
HETATM   17  C13 UNL     1     -22.970  47.416  50.566  1.00  0.00     0.079 C 
HETATM   18  F1  UNL     1     -24.462  46.905  48.812  1.00  0.00    -0.214 F 
ENDBRANCH   8  16
BRANCH   6  19
HETATM   19  C9  UNL     1     -24.537  50.377  45.706  1.00  0.00     0.177 C 
HETATM   20  O3  UNL     1     -23.352  50.270  45.312  1.00  0.00    -0.648 OA
HETATM   21  O4  UNL     1     -25.510  50.625  44.737  1.00  0.00    -0.648 OA
ENDBRANCH   6  19
TORSDOF 4
ENDMDL
MODEL 4
REMARK VINA RESULT: -6.428569650      3.010      3.985
REMARK  4 active torsions:
REMARK  status: ('A' for Active; 'I' for Inactive)
REMARK       I    between atoms: C2_2  and  N1_4 
REMARK    1  A    between atoms: N1_4  and  C3_6 
REMARK    2  A    between atoms: C3_6  and  C5_8 
REMARK       I    between atoms: C5_8  and  N2_10 
REMARK    3  A    between atoms: C8_13  and  C9_14 
REMARK    4  A    between atoms: C11_18  and  C12_19 
ROOT
HETATM    1  C5  UNL     1     -23.884  50.293  49.730  1.00  0.00     0.242 C 
HETATM    2  O2  UNL     1     -22.819  50.915  49.979  1.00  0.00    -0.271 OA
HETATM    3  N2  UNL     1     -23.769  48.971  49.244  1.00  0.00    -0.340 N 
HETATM    4  C6  UNL     1     -22.382  48.458  49.102  1.00  0.00     0.127 C 
HETATM    5  C7  UNL     1     -22.242  47.275  50.057  1.00  0.00     0.035 C 
HETATM    6  C8  UNL     1     -23.549  47.072  50.798  1.00  0.00     0.090 C 
HETATM    7  C10 UNL     1     -24.634  46.813  49.807  1.00  0.00     0.047 C 
HETATM    8  C11 UNL     1     -24.786  48.051  48.924  1.00  0.00     0.145 C 
ENDROOT
BRANCH   1   9
HETATM    9  C3  UNL     1     -25.138  51.021  49.985  1.00  0.00     0.172 C 
HETATM   10  C4  UNL     1     -26.038  51.091  48.738  1.00  0.00     0.042 C 
BRANCH   9  11
HETATM   11  N1  UNL     1     -24.857  52.447  50.266  1.00  0.00    -0.348 N 
HETATM   12  C2  UNL     1     -25.367  53.095  51.394  1.00  0.00     0.214 C 
HETATM   13  C1  UNL     1     -25.065  54.517  51.642  1.00  0.00     0.117 C 
HETATM   14  O1  UNL     1     -26.098  52.469  52.223  1.00  0.00    -0.274 OA
ATOM     15  H1  UNL     1     -24.273  52.973  49.617  1.00  0.00     0.163 HD
ENDBRANCH   9  11
ENDBRANCH   1   9
BRANCH   8  16
HETATM   16  C12 UNL     1     -25.025  47.591  47.552  1.00  0.00     0.090 C 
HETATM   17  C13 UNL     1     -24.701  46.201  47.166  1.00  0.00     0.079 C 
HETATM   18  F1  UNL     1     -24.616  48.474  46.542  1.00  0.00    -0.214 F 
ENDBRANCH   8  16
BRANCH   6  19
HETATM   19  C9  UNL     1     -23.498  45.995  51.781  1.00  0.00     0.177 C 
HETATM   20  O3  UNL     1     -22.391  45.608  52.223  1.00  0.00    -0.648 OA
HETATM   21  O4  UNL     1     -24.637  45.355  52.271  1.00  0.00    -0.648 OA
ENDBRANCH   6  19
TORSDOF 4
ENDMDL
MODEL 5
REMARK VINA RESULT: -6.427812260      4.130      5.647
REMARK  4 active torsions:
REMARK  status: ('A' for Active; 'I' for Inactive)
REMARK       I    between atoms: C2_2  and  N1_4 
REMARK    1  A    between atoms: N1_4  and  C3_6 
REMARK    2  A    between atoms: C3_6  and  C5_8 
REMARK       I    between atoms: C5_8  and  N2_10 
REMARK    3  A    between atoms: C8_13  and  C9_14 
REMARK    4  A    between atoms: C11_18  and  C12_19 
ROOT
HETATM    1  C5  UNL     1     -22.328  48.571  50.648  1.00  0.00     0.242 C 
HETATM    2  O2  UNL     1     -21.258  49.175  50.919  1.00  0.00    -0.271 OA
HETATM    3  N2  UNL     1     -22.405  47.199  50.976  1.00  0.00    -0.340 N 
HETATM    4  C6  UNL     1     -21.199  46.628  51.632  1.00  0.00     0.127 C 
HETATM    5  C7  UNL     1     -21.623  46.172  53.026  1.00  0.00     0.035 C 
HETATM    6  C8  UNL     1     -23.093  46.479  53.230  1.00  0.00     0.090 C 
HETATM    7  C10 UNL     1     -23.887  45.765  52.188  1.00  0.00     0.047 C 
HETATM    8  C11 UNL     1     -23.483  46.307  50.818  1.00  0.00     0.145 C 
ENDROOT
BRANCH   1   9
HETATM    9  C3  UNL     1     -23.389  49.377  50.021  1.00  0.00     0.172 C 
HETATM   10  C4  UNL     1     -23.291  49.380  48.485  1.00  0.00     0.042 C 
BRANCH   9  11
HETATM   11  N1  UNL     1     -23.219  50.807  50.363  1.00  0.00    -0.348 N 
HETATM   12  C2  UNL     1     -24.310  51.652  50.585  1.00  0.00     0.214 C 
HETATM   13  C1  UNL     1     -24.102  53.072  50.925  1.00  0.00     0.117 C 
HETATM   14  O1  UNL     1     -25.497  51.209  50.498  1.00  0.00    -0.274 OA
ATOM     15  H1  UNL     1     -22.277  51.189  50.440  1.00  0.00     0.163 HD
ENDBRANCH   9  11
ENDBRANCH   1   9
BRANCH   8  16
HETATM   16  C12 UNL     1     -23.432  45.173  49.889  1.00  0.00     0.090 C 
HETATM   17  C13 UNL     1     -24.436  45.049  48.810  1.00  0.00     0.079 C 
HETATM   18  F1  UNL     1     -23.209  43.920  50.479  1.00  0.00    -0.214 F 
ENDBRANCH   8  16
BRANCH   6  19
HETATM   19  C9  UNL     1     -23.581  46.131  54.560  1.00  0.00     0.177 C 
HETATM   20  O3  UNL     1     -23.091  46.693  55.568  1.00  0.00    -0.648 OA
HETATM   21  O4  UNL     1     -24.584  45.187  54.782  1.00  0.00    -0.648 OA
ENDBRANCH   6  19
TORSDOF 4
ENDMDL
