MODEL 1
REMARK VINA RESULT: -5.990910241      0.000      0.000
REMARK  6 active torsions:
REMARK  status: ('A' for Active; 'I' for Inactive)
REMARK    1  A    between atoms: N1_1  and  C1_5 
REMARK    2  A    between atoms: C1_5  and  C2_6 
REMARK    3  A    between atoms: C2_6  and  C3_7 
REMARK    4  A    between atoms: C3_7  and  O1_8 
REMARK    5  A    between atoms: O1_8  and  C4_9 
REMARK    6  A    between atoms: C5_10  and  C6_11 
ROOT
HETATM    1  O1  UNL     1      -0.706  30.419  -8.348  1.00  0.00    -0.304 OA
ENDROOT
BRANCH   1   2
HETATM    2  C3  UNL     1      -0.962  29.317  -7.477  1.00  0.00     0.189 C 
BRANCH   2   3
HETATM    3  C2  UNL     1      -2.398  29.291  -7.033  1.00  0.00     0.055 C 
BRANCH   3   4
HETATM    4  C1  UNL     1      -2.531  29.354  -5.539  1.00  0.00     0.231 C 
BRANCH   4   5
HETATM    5  N1  UNL     1      -3.829  29.003  -5.064  1.00  0.00    -0.079 N 
ATOM      6  H13 UNL     1      -4.124  29.635  -4.319  1.00  0.00     0.274 HD
ATOM      7  H12 UNL     1      -4.540  29.222  -5.764  1.00  0.00     0.274 HD
ATOM      8  H11 UNL     1      -3.907  28.031  -4.764  1.00  0.00     0.274 HD
ENDBRANCH   4   5
ENDBRANCH   3   4
ENDBRANCH   2   3
ENDBRANCH   1   2
BRANCH   1   9
HETATM    9  C4  UNL     1      -1.193  30.453  -9.622  1.00  0.00     0.054 C 
HETATM   10  C5  UNL     1      -1.641  30.489 -10.742  1.00  0.00    -0.071 C 
BRANCH  10  11
HETATM   11  C6  UNL     1      -2.206  30.547 -12.092  1.00  0.00     0.067 C 
HETATM   12  C7  UNL     1      -3.471  29.717 -12.077  1.00  0.00     0.017 C 
HETATM   13  C8  UNL     1      -3.413  28.963 -13.380  1.00  0.00     0.001 C 
HETATM   14  C9  UNL     1      -1.930  28.625 -13.468  1.00  0.00     0.001 C 
HETATM   15  C10 UNL     1      -1.300  29.956 -13.126  1.00  0.00     0.017 C 
ENDBRANCH  10  11
ENDBRANCH   1   9
TORSDOF 6
ENDMDL
MODEL 2
REMARK VINA RESULT: -5.638653908      1.075      1.229
REMARK  6 active torsions:
REMARK  status: ('A' for Active; 'I' for Inactive)
REMARK    1  A    between atoms: N1_1  and  C1_5 
REMARK    2  A    between atoms: C1_5  and  C2_6 
REMARK    3  A    between atoms: C2_6  and  C3_7 
REMARK    4  A    between atoms: C3_7  and  O1_8 
REMARK    5  A    between atoms: O1_8  and  C4_9 
REMARK    6  A    between atoms: C5_10  and  C6_11 
ROOT
HETATM    1  O1  UNL     1      -1.602  30.170  -7.650  1.00  0.00    -0.304 OA
ENDROOT
BRANCH   1   2
HETATM    2  C3  UNL     1      -2.234  29.149  -6.878  1.00  0.00     0.189 C 
BRANCH   2   3
HETATM    3  C2  UNL     1      -2.122  29.426  -5.405  1.00  0.00     0.055 C 
BRANCH   3   4
HETATM    4  C1  UNL     1      -3.253  30.276  -4.901  1.00  0.00     0.231 C 
BRANCH   4   5
HETATM    5  N1  UNL     1      -3.478  31.450  -5.679  1.00  0.00    -0.079 N 
ATOM      6  H13 UNL     1      -2.732  31.576  -6.365  1.00  0.00     0.274 HD
ATOM      7  H12 UNL     1      -4.269  31.317  -6.311  1.00  0.00     0.274 HD
ATOM      8  H11 UNL     1      -3.601  32.294  -5.121  1.00  0.00     0.274 HD
ENDBRANCH   4   5
ENDBRANCH   3   4
ENDBRANCH   2   3
ENDBRANCH   1   2
BRANCH   1   9
HETATM    9  C4  UNL     1      -1.939  30.396  -8.952  1.00  0.00     0.054 C 
HETATM   10  C5  UNL     1      -2.242  30.575 -10.107  1.00  0.00    -0.071 C 
BRANCH  10  11
HETATM   11  C6  UNL     1      -2.619  30.769 -11.509  1.00  0.00     0.067 C 
HETATM   12  C7  UNL     1      -3.768  29.828 -11.792  1.00  0.00     0.017 C 
HETATM   13  C8  UNL     1      -3.444  29.275 -13.156  1.00  0.00     0.001 C 
HETATM   14  C9  UNL     1      -1.934  29.099 -13.060  1.00  0.00     0.001 C 
HETATM   15  C10 UNL     1      -1.516  30.423 -12.460  1.00  0.00     0.017 C 
ENDBRANCH  10  11
ENDBRANCH   1   9
TORSDOF 6
ENDMDL
MODEL 3
REMARK VINA RESULT: -5.489024052      1.252      1.549
REMARK  6 active torsions:
REMARK  status: ('A' for Active; 'I' for Inactive)
REMARK    1  A    between atoms: N1_1  and  C1_5 
REMARK    2  A    between atoms: C1_5  and  C2_6 
REMARK    3  A    between atoms: C2_6  and  C3_7 
REMARK    4  A    between atoms: C3_7  and  O1_8 
REMARK    5  A    between atoms: O1_8  and  C4_9 
REMARK    6  A    between atoms: C5_10  and  C6_11 
ROOT
HETATM    1  O1  UNL     1      -1.076  29.750  -7.261  1.00  0.00    -0.304 OA
ENDROOT
BRANCH   1   2
HETATM    2  C3  UNL     1      -1.961  29.301  -6.234  1.00  0.00     0.189 C 
BRANCH   2   3
HETATM    3  C2  UNL     1      -2.784  30.433  -5.685  1.00  0.00     0.055 C 
BRANCH   3   4
HETATM    4  C1  UNL     1      -3.429  30.082  -4.375  1.00  0.00     0.231 C 
BRANCH   4   5
HETATM    5  N1  UNL     1      -4.528  30.924  -4.035  1.00  0.00    -0.079 N 
ATOM      6  H13 UNL     1      -4.838  30.744  -3.080  1.00  0.00     0.274 HD
ATOM      7  H12 UNL     1      -4.223  31.892  -3.936  1.00  0.00     0.274 HD
ATOM      8  H11 UNL     1      -5.311  30.857  -4.686  1.00  0.00     0.274 HD
ENDBRANCH   4   5
ENDBRANCH   3   4
ENDBRANCH   2   3
ENDBRANCH   1   2
BRANCH   1   9
HETATM    9  C4  UNL     1      -1.541  30.173  -8.471  1.00  0.00     0.054 C 
HETATM   10  C5  UNL     1      -1.970  30.554  -9.534  1.00  0.00    -0.071 C 
BRANCH  10  11
HETATM   11  C6  UNL     1      -2.509  31.028 -10.810  1.00  0.00     0.067 C 
HETATM   12  C7  UNL     1      -3.906  30.463 -10.936  1.00  0.00     0.017 C 
HETATM   13  C8  UNL     1      -3.985  30.038 -12.381  1.00  0.00     0.001 C 
HETATM   14  C9  UNL     1      -2.590  29.466 -12.603  1.00  0.00     0.001 C 
HETATM   15  C10 UNL     1      -1.724  30.542 -11.988  1.00  0.00     0.017 C 
ENDBRANCH  10  11
ENDBRANCH   1   9
TORSDOF 6
ENDMDL
MODEL 4
REMARK VINA RESULT: -5.485806104      1.778      2.829
REMARK  6 active torsions:
REMARK  status: ('A' for Active; 'I' for Inactive)
REMARK    1  A    between atoms: N1_1  and  C1_5 
REMARK    2  A    between atoms: C1_5  and  C2_6 
REMARK    3  A    between atoms: C2_6  and  C3_7 
REMARK    4  A    between atoms: C3_7  and  O1_8 
REMARK    5  A    between atoms: O1_8  and  C4_9 
REMARK    6  A    between atoms: C5_10  and  C6_11 
ROOT
HETATM    1  O1  UNL     1      -2.494  28.623  -6.233  1.00  0.00    -0.304 OA
ENDROOT
BRANCH   1   2
HETATM    2  C3  UNL     1      -3.168  29.198  -5.112  1.00  0.00     0.189 C 
BRANCH   2   3
HETATM    3  C2  UNL     1      -2.356  30.299  -4.490  1.00  0.00     0.055 C 
BRANCH   3   4
HETATM    4  C1  UNL     1      -3.183  31.519  -4.200  1.00  0.00     0.231 C 
BRANCH   4   5
HETATM    5  N1  UNL     1      -4.586  31.266  -4.178  1.00  0.00    -0.079 N 
ATOM      6  H13 UNL     1      -5.087  31.964  -4.728  1.00  0.00     0.274 HD
ATOM      7  H12 UNL     1      -4.811  30.430  -4.718  1.00  0.00     0.274 HD
ATOM      8  H11 UNL     1      -4.975  31.202  -3.237  1.00  0.00     0.274 HD
ENDBRANCH   4   5
ENDBRANCH   3   4
ENDBRANCH   2   3
ENDBRANCH   1   2
BRANCH   1   9
HETATM    9  C4  UNL     1      -2.190  29.360  -7.340  1.00  0.00     0.054 C 
HETATM   10  C5  UNL     1      -1.932  30.027  -8.312  1.00  0.00    -0.071 C 
BRANCH  10  11
HETATM   11  C6  UNL     1      -1.628  30.858  -9.479  1.00  0.00     0.067 C 
HETATM   12  C7  UNL     1      -2.878  31.648  -9.796  1.00  0.00     0.017 C 
HETATM   13  C8  UNL     1      -2.959  31.591 -11.301  1.00  0.00     0.001 C 
HETATM   14  C9  UNL     1      -2.518  30.158 -11.573  1.00  0.00     0.001 C 
HETATM   15  C10 UNL     1      -1.292  30.051 -10.694  1.00  0.00     0.017 C 
ENDBRANCH  10  11
ENDBRANCH   1   9
TORSDOF 6
ENDMDL
MODEL 5
REMARK VINA RESULT: -5.260675785      2.246      3.372
REMARK  6 active torsions:
REMARK  status: ('A' for Active; 'I' for Inactive)
REMARK    1  A    between atoms: N1_1  and  C1_5 
REMARK    2  A    between atoms: C1_5  and  C2_6 
REMARK    3  A    between atoms: C2_6  and  C3_7 
REMARK    4  A    between atoms: C3_7  and  O1_8 
REMARK    5  A    between atoms: O1_8  and  C4_9 
REMARK    6  A    between atoms: C5_10  and  C6_11 
ROOT
HETATM    1  O1  UNL     1      -2.023  28.873  -5.538  1.00  0.00    -0.304 OA
ENDROOT
BRANCH   1   2
HETATM    2  C3  UNL     1      -3.150  29.257  -4.749  1.00  0.00     0.189 C 
BRANCH   2   3
HETATM    3  C2  UNL     1      -2.724  29.944  -3.482  1.00  0.00     0.055 C 
BRANCH   3   4
HETATM    4  C1  UNL     1      -3.649  31.067  -3.108  1.00  0.00     0.231 C 
BRANCH   4   5
HETATM    5  N1  UNL     1      -4.610  31.376  -4.115  1.00  0.00    -0.079 N 
ATOM      6  H13 UNL     1      -4.296  32.164  -4.683  1.00  0.00     0.274 HD
ATOM      7  H12 UNL     1      -4.631  30.648  -4.829  1.00  0.00     0.274 HD
ATOM      8  H11 UNL     1      -5.547  31.547  -3.748  1.00  0.00     0.274 HD
ENDBRANCH   4   5
ENDBRANCH   3   4
ENDBRANCH   2   3
ENDBRANCH   1   2
BRANCH   1   9
HETATM    9  C4  UNL     1      -1.981  29.094  -6.883  1.00  0.00     0.054 C 
HETATM   10  C5  UNL     1      -1.932  29.274  -8.076  1.00  0.00    -0.071 C 
BRANCH  10  11
HETATM   11  C6  UNL     1      -1.862  29.469  -9.525  1.00  0.00     0.067 C 
HETATM   12  C7  UNL     1      -1.183  30.800  -9.760  1.00  0.00     0.017 C 
HETATM   13  C8  UNL     1      -1.987  31.413 -10.878  1.00  0.00     0.001 C 
HETATM   14  C9  UNL     1      -3.403  31.002 -10.492  1.00  0.00     0.001 C 
HETATM   15  C10 UNL     1      -3.212  29.538 -10.168  1.00  0.00     0.017 C 
ENDBRANCH  10  11
ENDBRANCH   1   9
TORSDOF 6
ENDMDL
