MODEL 1
REMARK VINA RESULT: -4.823111990      0.000      0.000
REMARK  5 active torsions:
REMARK  status: ('A' for Active; 'I' for Inactive)
REMARK    1  A    between atoms: C2_2  and  C4_4 
REMARK    2  A    between atoms: C4_4  and  N1_5 
REMARK    3  A    between atoms: C4_4  and  C5_9 
REMARK    4  A    between atoms: C5_9  and  N2_10 
REMARK    5  A    between atoms: C5_9  and  N3_14 
ROOT
HETATM    1  C5  UNL     1      -3.008  30.536 -11.021  1.00  0.00     0.447 C 
ENDROOT
BRANCH   1   2
HETATM    2  C4  UNL     1      -2.985  30.217 -12.444  1.00  0.00     0.247 C 
BRANCH   2   3
HETATM    3  C2  UNL     1      -1.770  29.418 -12.816  1.00  0.00     0.012 C 
HETATM    4  C1  UNL     1      -2.120  28.363 -13.875  1.00  0.00     0.012 C 
HETATM    5  C3  UNL     1      -0.627  30.182 -13.393  1.00  0.00     0.012 C 
ENDBRANCH   2   3
BRANCH   2   6
HETATM    6  N1  UNL     1      -4.141  29.459 -12.903  1.00  0.00    -0.071 N 
ATOM      7  H13 UNL     1      -5.022  29.791 -12.511  1.00  0.00     0.274 HD
ATOM      8  H12 UNL     1      -4.367  29.623 -13.884  1.00  0.00     0.274 HD
ATOM      9  H11 UNL     1      -3.951  28.479 -12.692  1.00  0.00     0.274 HD
ENDBRANCH   2   6
ENDBRANCH   1   2
BRANCH   1  10
HETATM   10  N2  UNL     1      -4.329  30.355 -10.478  1.00  0.00    -0.045 N 
ATOM     11  H23 UNL     1      -5.033  30.288 -11.213  1.00  0.00     0.277 HD
ATOM     12  H22 UNL     1      -4.445  29.428 -10.070  1.00  0.00     0.277 HD
ATOM     13  H21 UNL     1      -4.550  31.093  -9.809  1.00  0.00     0.277 HD
ENDBRANCH   1  10
BRANCH   1  14
HETATM   14  N3  UNL     1      -2.102  29.827 -10.167  1.00  0.00     0.121 N 
HETATM   15  C6  UNL     1      -2.935  29.081  -9.239  1.00  0.00     0.275 C 
HETATM   16  C7  UNL     1      -2.118  28.772  -8.036  1.00  0.00     0.032 C 
HETATM   17  C8  UNL     1      -0.983  29.744  -8.120  1.00  0.00     0.032 C 
HETATM   18  C9  UNL     1      -1.283  30.631  -9.332  1.00  0.00     0.275 C 
ENDBRANCH   1  14
TORSDOF 5
ENDMDL
MODEL 2
REMARK VINA RESULT: -4.529007141      1.281      2.134
REMARK  5 active torsions:
REMARK  status: ('A' for Active; 'I' for Inactive)
REMARK    1  A    between atoms: C2_2  and  C4_4 
REMARK    2  A    between atoms: C4_4  and  N1_5 
REMARK    3  A    between atoms: C4_4  and  C5_9 
REMARK    4  A    between atoms: C5_9  and  N2_10 
REMARK    5  A    between atoms: C5_9  and  N3_14 
ROOT
HETATM    1  C5  UNL     1      -2.820  30.301 -11.983  1.00  0.00     0.447 C 
ENDROOT
BRANCH   1   2
HETATM    2  C4  UNL     1      -1.932  29.367 -12.666  1.00  0.00     0.247 C 
BRANCH   2   3
HETATM    3  C2  UNL     1      -2.637  28.635 -13.771  1.00  0.00     0.012 C 
HETATM    4  C1  UNL     1      -1.834  28.723 -15.076  1.00  0.00     0.012 C 
HETATM    5  C3  UNL     1      -2.868  27.177 -13.556  1.00  0.00     0.012 C 
ENDBRANCH   2   3
BRANCH   2   6
HETATM    6  N1  UNL     1      -0.757  29.989 -13.260  1.00  0.00    -0.071 N 
ATOM      7  H13 UNL     1      -0.809  31.008 -13.284  1.00  0.00     0.274 HD
ATOM      8  H12 UNL     1       0.076  29.917 -12.675  1.00  0.00     0.274 HD
ATOM      9  H11 UNL     1      -0.639  29.570 -14.182  1.00  0.00     0.274 HD
ENDBRANCH   2   6
ENDBRANCH   1   2
BRANCH   1  10
HETATM   10  N2  UNL     1      -4.177  30.139 -12.435  1.00  0.00    -0.045 N 
ATOM     11  H23 UNL     1      -4.778  29.763 -11.701  1.00  0.00     0.277 HD
ATOM     12  H22 UNL     1      -4.641  31.037 -12.567  1.00  0.00     0.277 HD
ATOM     13  H21 UNL     1      -4.212  29.568 -13.280  1.00  0.00     0.277 HD
ENDBRANCH   1  10
BRANCH   1  14
HETATM   14  N3  UNL     1      -2.847  30.264 -10.551  1.00  0.00     0.121 N 
HETATM   15  C6  UNL     1      -1.484  30.531 -10.122  1.00  0.00     0.275 C 
HETATM   16  C7  UNL     1      -1.323  29.993  -8.745  1.00  0.00     0.032 C 
HETATM   17  C8  UNL     1      -2.462  29.033  -8.606  1.00  0.00     0.032 C 
HETATM   18  C9  UNL     1      -3.155  29.006  -9.971  1.00  0.00     0.275 C 
ENDBRANCH   1  14
TORSDOF 5
ENDMDL
MODEL 3
REMARK VINA RESULT: -4.224007346      1.401      2.025
REMARK  5 active torsions:
REMARK  status: ('A' for Active; 'I' for Inactive)
REMARK    1  A    between atoms: C2_2  and  C4_4 
REMARK    2  A    between atoms: C4_4  and  N1_5 
REMARK    3  A    between atoms: C4_4  and  C5_9 
REMARK    4  A    between atoms: C5_9  and  N2_10 
REMARK    5  A    between atoms: C5_9  and  N3_14 
ROOT
HETATM    1  C5  UNL     1      -3.056  29.800 -12.331  1.00  0.00     0.447 C 
ENDROOT
BRANCH   1   2
HETATM    2  C4  UNL     1      -2.192  29.520 -13.472  1.00  0.00     0.247 C 
BRANCH   2   3
HETATM    3  C2  UNL     1      -0.853  30.185 -13.334  1.00  0.00     0.012 C 
HETATM    4  C1  UNL     1       0.143  29.253 -12.630  1.00  0.00     0.012 C 
HETATM    5  C3  UNL     1      -0.180  30.586 -14.602  1.00  0.00     0.012 C 
ENDBRANCH   2   3
BRANCH   2   6
HETATM    6  N1  UNL     1      -1.935  28.103 -13.690  1.00  0.00    -0.071 N 
ATOM      7  H13 UNL     1      -2.438  27.498 -13.040  1.00  0.00     0.274 HD
ATOM      8  H12 UNL     1      -2.352  27.745 -14.549  1.00  0.00     0.274 HD
ATOM      9  H11 UNL     1      -0.923  27.980 -13.653  1.00  0.00     0.274 HD
ENDBRANCH   2   6
ENDBRANCH   1   2
BRANCH   1  10
HETATM   10  N2  UNL     1      -3.655  28.589 -11.834  1.00  0.00    -0.045 N 
ATOM     11  H23 UNL     1      -3.894  27.948 -12.590  1.00  0.00     0.277 HD
ATOM     12  H22 UNL     1      -2.975  28.005 -11.347  1.00  0.00     0.277 HD
ATOM     13  H21 UNL     1      -4.462  28.799 -11.246  1.00  0.00     0.277 HD
ENDBRANCH   1  10
BRANCH   1  14
HETATM   14  N3  UNL     1      -2.475  30.474 -11.208  1.00  0.00     0.121 N 
HETATM   15  C6  UNL     1      -2.570  29.542 -10.095  1.00  0.00     0.275 C 
HETATM   16  C7  UNL     1      -2.497  30.326  -8.834  1.00  0.00     0.032 C 
HETATM   17  C8  UNL     1      -2.821  31.722  -9.266  1.00  0.00     0.032 C 
HETATM   18  C9  UNL     1      -3.164  31.628 -10.756  1.00  0.00     0.275 C 
ENDBRANCH   1  14
TORSDOF 5
ENDMDL
MODEL 4
REMARK VINA RESULT: -4.220381775      1.546      2.178
REMARK  5 active torsions:
REMARK  status: ('A' for Active; 'I' for Inactive)
REMARK    1  A    between atoms: C2_2  and  C4_4 
REMARK    2  A    between atoms: C4_4  and  N1_5 
REMARK    3  A    between atoms: C4_4  and  C5_9 
REMARK    4  A    between atoms: C5_9  and  N2_10 
REMARK    5  A    between atoms: C5_9  and  N3_14 
ROOT
HETATM    1  C5  UNL     1      -2.508  30.504 -12.243  1.00  0.00     0.447 C 
ENDROOT
BRANCH   1   2
HETATM    2  C4  UNL     1      -1.707  29.442 -12.842  1.00  0.00     0.247 C 
BRANCH   2   3
HETATM    3  C2  UNL     1      -2.453  28.730 -13.932  1.00  0.00     0.012 C 
HETATM    4  C1  UNL     1      -1.673  28.797 -15.253  1.00  0.00     0.012 C 
HETATM    5  C3  UNL     1      -2.719  27.279 -13.713  1.00  0.00     0.012 C 
ENDBRANCH   2   3
BRANCH   2   6
HETATM    6  N1  UNL     1      -0.452  29.898 -13.422  1.00  0.00    -0.071 N 
ATOM      7  H13 UNL     1      -0.545  30.762 -13.957  1.00  0.00     0.274 HD
ATOM      8  H12 UNL     1       0.209  30.247 -12.728  1.00  0.00     0.274 HD
ATOM      9  H11 UNL     1      -0.085  29.122 -13.972  1.00  0.00     0.274 HD
ENDBRANCH   2   6
ENDBRANCH   1   2
BRANCH   1  10
HETATM   10  N2  UNL     1      -3.893  30.121 -12.172  1.00  0.00    -0.045 N 
ATOM     11  H23 UNL     1      -4.257  30.194 -11.222  1.00  0.00     0.277 HD
ATOM     12  H22 UNL     1      -4.499  30.809 -12.620  1.00  0.00     0.277 HD
ATOM     13  H21 UNL     1      -4.031  29.187 -12.559  1.00  0.00     0.277 HD
ENDBRANCH   1  10
BRANCH   1  14
HETATM   14  N3  UNL     1      -2.132  30.965 -10.939  1.00  0.00     0.121 N 
HETATM   15  C6  UNL     1      -1.864  29.767 -10.159  1.00  0.00     0.275 C 
HETATM   16  C7  UNL     1      -1.998  30.119  -8.720  1.00  0.00     0.032 C 
HETATM   17  C8  UNL     1      -2.783  31.393  -8.739  1.00  0.00     0.032 C 
HETATM   18  C9  UNL     1      -3.143  31.639 -10.207  1.00  0.00     0.275 C 
ENDBRANCH   1  14
TORSDOF 5
ENDMDL
MODEL 5
REMARK VINA RESULT: -4.175364595      1.361      4.284
REMARK  5 active torsions:
REMARK  status: ('A' for Active; 'I' for Inactive)
REMARK    1  A    between atoms: C2_2  and  C4_4 
REMARK    2  A    between atoms: C4_4  and  N1_5 
REMARK    3  A    between atoms: C4_4  and  C5_9 
REMARK    4  A    between atoms: C5_9  and  N2_10 
REMARK    5  A    between atoms: C5_9  and  N3_14 
ROOT
HETATM    1  C5  UNL     1      -2.084  31.072 -11.010  1.00  0.00     0.447 C 
ENDROOT
BRANCH   1   2
HETATM    2  C4  UNL     1      -2.904  30.584  -9.907  1.00  0.00     0.247 C 
BRANCH   2   3
HETATM    3  C2  UNL     1      -2.069  30.198  -8.721  1.00  0.00     0.012 C 
HETATM    4  C1  UNL     1      -2.648  30.799  -7.433  1.00  0.00     0.012 C 
HETATM    5  C3  UNL     1      -1.946  28.737  -8.447  1.00  0.00     0.012 C 
ENDBRANCH   2   3
BRANCH   2   6
HETATM    6  N1  UNL     1      -3.891  31.543  -9.429  1.00  0.00    -0.071 N 
ATOM      7  H13 UNL     1      -3.858  32.435  -9.923  1.00  0.00     0.274 HD
ATOM      8  H12 UNL     1      -4.848  31.293  -9.678  1.00  0.00     0.274 HD
ATOM      9  H11 UNL     1      -3.747  31.634  -8.424  1.00  0.00     0.274 HD
ENDBRANCH   2   6
ENDBRANCH   1   2
BRANCH   1  10
HETATM   10  N2  UNL     1      -0.684  30.923 -10.711  1.00  0.00    -0.045 N 
ATOM     11  H23 UNL     1      -0.530  30.698  -9.728  1.00  0.00     0.277 HD
ATOM     12  H22 UNL     1      -0.299  30.074 -11.124  1.00  0.00     0.277 HD
ATOM     13  H21 UNL     1      -0.162  31.752 -10.996  1.00  0.00     0.277 HD
ENDBRANCH   1  10
BRANCH   1  14
HETATM   14  N3  UNL     1      -2.301  30.496 -12.304  1.00  0.00     0.121 N 
HETATM   15  C6  UNL     1      -3.322  29.477 -12.118  1.00  0.00     0.275 C 
HETATM   16  C7  UNL     1      -3.213  28.508 -13.240  1.00  0.00     0.032 C 
HETATM   17  C8  UNL     1      -1.840  28.751 -13.784  1.00  0.00     0.032 C 
HETATM   18  C9  UNL     1      -1.202  29.790 -12.858  1.00  0.00     0.275 C 
ENDBRANCH   1  14
TORSDOF 5
ENDMDL
