MODEL 1
REMARK VINA RESULT: -5.415713256      0.000      0.000
REMARK  3 active torsions:
REMARK  status: ('A' for Active; 'I' for Inactive)
REMARK    1  A    between atoms: C2_2  and  C3_3 
REMARK    2  A    between atoms: C3_3  and  N1_4 
REMARK    3  A    between atoms: C6_7  and  N2_8 
ROOT
HETATM    1  N1  UNL     1      -1.878  30.171 -12.267  1.00  0.00    -0.370 N 
HETATM    2  C4  UNL     1      -3.189  30.535 -11.937  1.00  0.00     0.065 C 
HETATM    3  C5  UNL     1      -3.527  30.479 -10.473  1.00  0.00     0.078 C 
HETATM    4  C6  UNL     1      -2.485  31.141  -9.624  1.00  0.00     0.194 C 
HETATM    5  C8  UNL     1      -1.152  30.481  -9.941  1.00  0.00     0.078 C 
HETATM    6  C9  UNL     1      -0.823  30.496 -11.409  1.00  0.00     0.065 C 
ENDROOT
BRANCH   4   7
HETATM    7  N2  UNL     1      -2.732  30.874  -8.219  1.00  0.00    -0.074 N 
HETATM    8  C7  UNL     1      -2.096  29.667  -7.760  1.00  0.00     0.267 C 
ATOM      9  H22 UNL     1      -2.463  31.671  -7.643  1.00  0.00     0.277 HD
ATOM     10  H21 UNL     1      -3.732  30.857  -8.021  1.00  0.00     0.277 HD
ENDBRANCH   4   7
BRANCH   1  11
HETATM   11  C3  UNL     1      -1.674  29.235 -13.306  1.00  0.00     0.153 C 
BRANCH  11  12
HETATM   12  C2  UNL     1      -2.913  28.462 -13.564  1.00  0.00    -0.017 C 
HETATM   13  C1  UNL     1      -2.898  27.169 -13.720  1.00  0.00     0.008 C 
ENDBRANCH  11  12
ENDBRANCH   1  11
TORSDOF 3
ENDMDL
MODEL 2
REMARK VINA RESULT: -4.971465353      1.113      1.720
REMARK  3 active torsions:
REMARK  status: ('A' for Active; 'I' for Inactive)
REMARK    1  A    between atoms: C2_2  and  C3_3 
REMARK    2  A    between atoms: C3_3  and  N1_4 
REMARK    3  A    between atoms: C6_7  and  N2_8 
ROOT
HETATM    1  N1  UNL     1      -2.049  30.183 -12.042  1.00  0.00    -0.370 N 
HETATM    2  C4  UNL     1      -3.303  29.850 -11.515  1.00  0.00     0.065 C 
HETATM    3  C5  UNL     1      -3.346  29.648 -10.025  1.00  0.00     0.078 C 
HETATM    4  C6  UNL     1      -2.653  30.750  -9.283  1.00  0.00     0.194 C 
HETATM    5  C8  UNL     1      -1.232  30.838  -9.819  1.00  0.00     0.078 C 
HETATM    6  C9  UNL     1      -1.177  30.999 -11.313  1.00  0.00     0.065 C 
ENDROOT
BRANCH   4   7
HETATM    7  N2  UNL     1      -2.523  30.410  -7.878  1.00  0.00    -0.074 N 
HETATM    8  C7  UNL     1      -1.653  29.286  -7.654  1.00  0.00     0.267 C 
ATOM      9  H22 UNL     1      -2.224  31.219  -7.333  1.00  0.00     0.277 HD
ATOM     10  H21 UNL     1      -3.438  30.255  -7.454  1.00  0.00     0.277 HD
ENDBRANCH   4   7
BRANCH   1  11
HETATM   11  C3  UNL     1      -1.568  29.462 -13.157  1.00  0.00     0.153 C 
BRANCH  11  12
HETATM   12  C2  UNL     1      -0.282  30.027 -13.631  1.00  0.00    -0.017 C 
HETATM   13  C1  UNL     1      -0.134  30.481 -14.842  1.00  0.00     0.008 C 
ENDBRANCH  11  12
ENDBRANCH   1  11
TORSDOF 3
ENDMDL
MODEL 3
REMARK VINA RESULT: -4.963958283      1.184      1.316
REMARK  3 active torsions:
REMARK  status: ('A' for Active; 'I' for Inactive)
REMARK    1  A    between atoms: C2_2  and  C3_3 
REMARK    2  A    between atoms: C3_3  and  N1_4 
REMARK    3  A    between atoms: C6_7  and  N2_8 
ROOT
HETATM    1  N1  UNL     1      -2.524  30.165 -11.455  1.00  0.00    -0.370 N 
HETATM    2  C4  UNL     1      -3.373  29.406 -10.640  1.00  0.00     0.065 C 
HETATM    3  C5  UNL     1      -2.806  29.015  -9.302  1.00  0.00     0.078 C 
HETATM    4  C6  UNL     1      -2.168  30.173  -8.598  1.00  0.00     0.194 C 
HETATM    5  C8  UNL     1      -1.116  30.752  -9.530  1.00  0.00     0.078 C 
HETATM    6  C9  UNL     1      -1.664  31.107 -10.885  1.00  0.00     0.065 C 
ENDROOT
BRANCH   4   7
HETATM    7  N2  UNL     1      -1.446  29.716  -7.425  1.00  0.00    -0.074 N 
HETATM    8  C7  UNL     1      -2.319  29.282  -6.366  1.00  0.00     0.267 C 
ATOM      9  H22 UNL     1      -0.777  28.985  -7.670  1.00  0.00     0.277 HD
ATOM     10  H21 UNL     1      -0.797  30.430  -7.094  1.00  0.00     0.277 HD
ENDBRANCH   4   7
BRANCH   1  11
HETATM   11  C3  UNL     1      -2.340  29.768 -12.798  1.00  0.00     0.153 C 
BRANCH  11  12
HETATM   12  C2  UNL     1      -3.179  28.587 -13.116  1.00  0.00    -0.017 C 
HETATM   13  C1  UNL     1      -2.730  27.595 -13.830  1.00  0.00     0.008 C 
ENDBRANCH  11  12
ENDBRANCH   1  11
TORSDOF 3
ENDMDL
MODEL 4
REMARK VINA RESULT: -4.876200656      1.357      4.608
REMARK  3 active torsions:
REMARK  status: ('A' for Active; 'I' for Inactive)
REMARK    1  A    between atoms: C2_2  and  C3_3 
REMARK    2  A    between atoms: C3_3  and  N1_4 
REMARK    3  A    between atoms: C6_7  and  N2_8 
ROOT
HETATM    1  N1  UNL     1      -2.056  30.333  -9.937  1.00  0.00    -0.370 N 
HETATM    2  C4  UNL     1      -1.435  30.723 -11.130  1.00  0.00     0.065 C 
HETATM    3  C5  UNL     1      -1.782  29.898 -12.339  1.00  0.00     0.078 C 
HETATM    4  C6  UNL     1      -3.258  29.677 -12.470  1.00  0.00     0.194 C 
HETATM    5  C8  UNL     1      -3.742  29.044 -11.175  1.00  0.00     0.078 C 
HETATM    6  C9  UNL     1      -3.364  29.841  -9.956  1.00  0.00     0.065 C 
ENDROOT
BRANCH   4   7
HETATM    7  N2  UNL     1      -3.533  28.702 -13.510  1.00  0.00    -0.074 N 
HETATM    8  C7  UNL     1      -2.351  28.008 -13.951  1.00  0.00     0.267 C 
ATOM      9  H22 UNL     1      -4.254  28.044 -13.213  1.00  0.00     0.277 HD
ATOM     10  H21 UNL     1      -4.017  29.134 -14.297  1.00  0.00     0.277 HD
ENDBRANCH   4   7
BRANCH   1  11
HETATM   11  C3  UNL     1      -1.261  30.168  -8.781  1.00  0.00     0.153 C 
BRANCH  11  12
HETATM   12  C2  UNL     1      -1.885  29.196  -7.850  1.00  0.00    -0.017 C 
HETATM   13  C1  UNL     1      -1.940  29.409  -6.567  1.00  0.00     0.008 C 
ENDBRANCH  11  12
ENDBRANCH   1  11
TORSDOF 3
ENDMDL
MODEL 5
REMARK VINA RESULT: -4.835233053      1.310      4.463
REMARK  3 active torsions:
REMARK  status: ('A' for Active; 'I' for Inactive)
REMARK    1  A    between atoms: C2_2  and  C3_3 
REMARK    2  A    between atoms: C3_3  and  N1_4 
REMARK    3  A    between atoms: C6_7  and  N2_8 
ROOT
HETATM    1  N1  UNL     1      -2.717  30.828 -10.696  1.00  0.00    -0.370 N 
HETATM    2  C4  UNL     1      -1.609  31.071 -11.517  1.00  0.00     0.065 C 
HETATM    3  C5  UNL     1      -1.240  29.954 -12.455  1.00  0.00     0.078 C 
HETATM    4  C6  UNL     1      -2.429  29.415 -13.190  1.00  0.00     0.194 C 
HETATM    5  C8  UNL     1      -3.455  28.990 -12.151  1.00  0.00     0.078 C 
HETATM    6  C9  UNL     1      -3.799  30.088 -11.182  1.00  0.00     0.065 C 
ENDROOT
BRANCH   4   7
HETATM    7  N2  UNL     1      -2.074  28.206 -13.910  1.00  0.00    -0.074 N 
HETATM    8  C7  UNL     1      -3.035  27.149 -13.733  1.00  0.00     0.267 C 
ATOM      9  H22 UNL     1      -1.923  28.401 -14.899  1.00  0.00     0.277 HD
ATOM     10  H21 UNL     1      -1.136  27.894 -13.658  1.00  0.00     0.277 HD
ENDBRANCH   4   7
BRANCH   1  11
HETATM   11  C3  UNL     1      -2.603  31.078  -9.311  1.00  0.00     0.153 C 
BRANCH  11  12
HETATM   12  C2  UNL     1      -1.544  30.231  -8.711  1.00  0.00    -0.017 C 
HETATM   13  C1  UNL     1      -1.789  29.029  -8.273  1.00  0.00     0.008 C 
ENDBRANCH  11  12
ENDBRANCH   1  11
TORSDOF 3
ENDMDL
