MODEL 1
REMARK VINA RESULT: -7.222333461      0.000      0.000
REMARK  15 active torsions:
REMARK  status: ('A' for Active; 'I' for Inactive)
REMARK    1  A    between atoms: C4_4  and  C5_5 
REMARK    2  A    between atoms: C5_5  and  C6_6 
REMARK    3  A    between atoms: C6_6  and  C7_7 
REMARK    4  A    between atoms: C9_9  and  C10_10 
REMARK    5  A    between atoms: C10_10  and  C11_11 
REMARK    6  A    between atoms: C11_11  and  O1_12 
REMARK    7  A    between atoms: C13_17  and  O2_18 
REMARK    8  A    between atoms: O2_18  and  C14_19 
REMARK    9  A    between atoms: C14_19  and  C15_20 
REMARK   10  A    between atoms: C16_22  and  C17_23 
REMARK   11  A    between atoms: C17_23  and  O4_24 
REMARK   12  A    between atoms: C18_26  and  O5_27 
REMARK   13  A    between atoms: C19_29  and  O6_30 
REMARK   14  A    between atoms: C20_32  and  O7_33 
REMARK   15  A    between atoms: C21_35  and  O8_36 
ROOT
HETATM    1  C11 UNL     1      28.738   1.447   3.889  1.00  0.00     0.095 C 
HETATM    2  C12 UNL     1      29.915   0.591   3.971  1.00  0.00     0.096 C 
HETATM    3  N1  UNL     1      30.041  -0.433   4.654  1.00  0.00    -0.372 N 
ATOM      4  H1  UNL     1      30.918  -0.952   4.629  1.00  0.00     0.161 HD
HETATM    5  C13 UNL     1      28.929  -0.911   5.506  1.00  0.00     0.249 C 
HETATM    6  C21 UNL     1      27.650  -0.506   4.822  1.00  0.00     0.170 C 
HETATM    7  C22 UNL     1      27.673   1.035   4.854  1.00  0.00     0.080 C 
ENDROOT
BRANCH   5   8
HETATM    8  O2  UNL     1      29.051  -0.285   6.688  1.00  0.00    -0.362 OA
BRANCH   8   9
HETATM    9  C14 UNL     1      29.775  -0.705   7.713  1.00  0.00     0.205 C 
BRANCH   9  10
HETATM   10  C15 UNL     1      29.157  -0.584   9.064  1.00  0.00     0.177 C 
HETATM   11  O3  UNL     1      30.034  -0.708  10.061  1.00  0.00    -0.371 OA
HETATM   12  C16 UNL     1      29.660  -1.082  11.301  1.00  0.00     0.177 C 
HETATM   13  C18 UNL     1      28.204  -0.793  11.548  1.00  0.00     0.180 C 
HETATM   14  C19 UNL     1      27.421  -1.618  10.541  1.00  0.00     0.180 C 
HETATM   15  C20 UNL     1      27.916  -1.423   9.130  1.00  0.00     0.180 C 
BRANCH  12  16
HETATM   16  C17 UNL     1      30.547  -0.411  12.338  1.00  0.00     0.198 C 
BRANCH  16  17
HETATM   17  O4  UNL     1      30.711   0.925  11.957  1.00  0.00    -0.398 OA
ATOM     18  H4  UNL     1      30.539   1.465  12.719  1.00  0.00     0.209 HD
ENDBRANCH  16  17
ENDBRANCH  12  16
BRANCH  13  19
HETATM   19  O5  UNL     1      27.898   0.544  11.331  1.00  0.00    -0.390 OA
ATOM     20  H5  UNL     1      28.474   1.122  11.818  1.00  0.00     0.210 HD
ENDBRANCH  13  19
BRANCH  14  21
HETATM   21  O6  UNL     1      27.601  -2.957  10.926  1.00  0.00    -0.390 OA
ATOM     22  H6  UNL     1      27.345  -3.477  10.173  1.00  0.00     0.210 HD
ENDBRANCH  14  21
BRANCH  15  23
HETATM   23  O7  UNL     1      26.910  -0.761   8.426  1.00  0.00    -0.390 OA
ATOM     24  H7  UNL     1      26.161  -0.666   9.002  1.00  0.00     0.210 HD
ENDBRANCH  15  23
ENDBRANCH   9  10
ENDBRANCH   8   9
ENDBRANCH   5   8
BRANCH   6  25
HETATM   25  O8  UNL     1      26.568  -0.974   5.531  1.00  0.00    -0.391 OA
ATOM     26  H8  UNL     1      26.310  -1.828   5.204  1.00  0.00     0.210 HD
ENDBRANCH   6  25
BRANCH   1  27
HETATM   27  C10 UNL     1      29.102   2.921   4.045  1.00  0.00     0.071 C 
BRANCH  27  28
HETATM   28  C9  UNL     1      30.426   2.960   4.677  1.00  0.00    -0.021 C 
HETATM   29  C7  UNL     1      30.909   3.959   5.365  1.00  0.00    -0.087 C 
HETATM   30  C8  UNL     1      32.285   3.867   5.962  1.00  0.00     0.043 C 
BRANCH  29  31
HETATM   31  C6  UNL     1      30.182   5.213   5.608  1.00  0.00     0.037 C 
BRANCH  31  32
HETATM   32  C5  UNL     1      29.888   5.285   7.117  1.00  0.00     0.031 C 
BRANCH  32  33
HETATM   33  C4  UNL     1      28.663   4.488   7.355  1.00  0.00    -0.024 C 
HETATM   34  C2  UNL     1      28.695   3.434   8.140  1.00  0.00    -0.091 C 
HETATM   35  C1  UNL     1      27.448   2.652   8.363  1.00  0.00     0.042 C 
HETATM   36  C3  UNL     1      29.972   3.042   8.793  1.00  0.00     0.042 C 
ENDBRANCH  32  33
ENDBRANCH  31  32
ENDBRANCH  29  31
ENDBRANCH  27  28
ENDBRANCH   1  27
BRANCH   1  37
HETATM   37  O1  UNL     1      28.186   1.267   2.600  1.00  0.00    -0.384 OA
ATOM     38  H1  UNL     1      27.531   0.582   2.654  1.00  0.00     0.211 HD
ENDBRANCH   1  37
TORSDOF 15
ENDMDL
MODEL 2
REMARK VINA RESULT: -7.046192859      1.420      2.725
REMARK  15 active torsions:
REMARK  status: ('A' for Active; 'I' for Inactive)
REMARK    1  A    between atoms: C4_4  and  C5_5 
REMARK    2  A    between atoms: C5_5  and  C6_6 
REMARK    3  A    between atoms: C6_6  and  C7_7 
REMARK    4  A    between atoms: C9_9  and  C10_10 
REMARK    5  A    between atoms: C10_10  and  C11_11 
REMARK    6  A    between atoms: C11_11  and  O1_12 
REMARK    7  A    between atoms: C13_17  and  O2_18 
REMARK    8  A    between atoms: O2_18  and  C14_19 
REMARK    9  A    between atoms: C14_19  and  C15_20 
REMARK   10  A    between atoms: C16_22  and  C17_23 
REMARK   11  A    between atoms: C17_23  and  O4_24 
REMARK   12  A    between atoms: C18_26  and  O5_27 
REMARK   13  A    between atoms: C19_29  and  O6_30 
REMARK   14  A    between atoms: C20_32  and  O7_33 
REMARK   15  A    between atoms: C21_35  and  O8_36 
ROOT
HETATM    1  C11 UNL     1      28.751   1.361   3.948  1.00  0.00     0.095 C 
HETATM    2  C12 UNL     1      29.876   0.435   3.969  1.00  0.00     0.096 C 
HETATM    3  N1  UNL     1      29.973  -0.601   4.639  1.00  0.00    -0.372 N 
ATOM      4  H1  UNL     1      30.815  -1.171   4.570  1.00  0.00     0.161 HD
HETATM    5  C13 UNL     1      28.876  -1.018   5.541  1.00  0.00     0.249 C 
HETATM    6  C21 UNL     1      27.593  -0.532   4.920  1.00  0.00     0.170 C 
HETATM    7  C22 UNL     1      27.709   1.004   4.960  1.00  0.00     0.080 C 
ENDROOT
BRANCH   5   8
HETATM    8  O2  UNL     1      29.091  -0.412   6.719  1.00  0.00    -0.362 OA
BRANCH   8   9
HETATM    9  C14 UNL     1      29.731  -0.935   7.752  1.00  0.00     0.205 C 
BRANCH   9  10
HETATM   10  C15 UNL     1      29.123  -0.721   9.095  1.00  0.00     0.177 C 
HETATM   11  O3  UNL     1      30.000  -0.814  10.096  1.00  0.00    -0.371 OA
HETATM   12  C16 UNL     1      29.621  -1.107  11.355  1.00  0.00     0.177 C 
HETATM   13  C18 UNL     1      28.176  -0.763  11.590  1.00  0.00     0.180 C 
HETATM   14  C19 UNL     1      27.364  -1.621  10.633  1.00  0.00     0.180 C 
HETATM   15  C20 UNL     1      27.858  -1.519   9.212  1.00  0.00     0.180 C 
BRANCH  12  16
HETATM   16  C17 UNL     1      30.532  -0.406  12.350  1.00  0.00     0.198 C 
BRANCH  16  17
HETATM   17  O4  UNL     1      30.688   0.917  11.924  1.00  0.00    -0.398 OA
ATOM     18  H4  UNL     1      30.936   1.437  12.680  1.00  0.00     0.209 HD
ENDBRANCH  16  17
ENDBRANCH  12  16
BRANCH  13  19
HETATM   19  O5  UNL     1      27.907   0.568  11.300  1.00  0.00    -0.390 OA
ATOM     20  H5  UNL     1      27.248   0.930  11.879  1.00  0.00     0.210 HD
ENDBRANCH  13  19
BRANCH  14  21
HETATM   21  O6  UNL     1      27.508  -2.941  11.092  1.00  0.00    -0.390 OA
ATOM     22  H6  UNL     1      27.309  -3.495  10.346  1.00  0.00     0.210 HD
ENDBRANCH  14  21
BRANCH  15  23
HETATM   23  O7  UNL     1      26.868  -0.869   8.475  1.00  0.00    -0.390 OA
ATOM     24  H7  UNL     1      26.050  -1.330   8.612  1.00  0.00     0.210 HD
ENDBRANCH  15  23
ENDBRANCH   9  10
ENDBRANCH   8   9
ENDBRANCH   5   8
BRANCH   6  25
HETATM   25  O8  UNL     1      26.519  -0.941   5.677  1.00  0.00    -0.391 OA
ATOM     26  H8  UNL     1      25.874  -0.246   5.728  1.00  0.00     0.210 HD
ENDBRANCH   6  25
BRANCH   1  27
HETATM   27  C10 UNL     1      29.210   2.809   4.095  1.00  0.00     0.071 C 
BRANCH  27  28
HETATM   28  C9  UNL     1      28.890   3.211   5.470  1.00  0.00    -0.021 C 
HETATM   29  C7  UNL     1      29.464   4.181   6.129  1.00  0.00    -0.087 C 
HETATM   30  C8  UNL     1      29.038   4.489   7.538  1.00  0.00     0.043 C 
BRANCH  29  31
HETATM   31  C6  UNL     1      30.534   5.024   5.579  1.00  0.00     0.037 C 
BRANCH  31  32
HETATM   32  C5  UNL     1      29.910   6.388   5.236  1.00  0.00     0.031 C 
BRANCH  32  33
HETATM   33  C4  UNL     1      30.671   6.934   4.090  1.00  0.00    -0.024 C 
HETATM   34  C2  UNL     1      30.149   7.869   3.327  1.00  0.00    -0.091 C 
HETATM   35  C1  UNL     1      30.938   8.402   2.181  1.00  0.00     0.042 C 
HETATM   36  C3  UNL     1      28.785   8.382   3.621  1.00  0.00     0.042 C 
ENDBRANCH  32  33
ENDBRANCH  31  32
ENDBRANCH  29  31
ENDBRANCH  27  28
ENDBRANCH   1  27
BRANCH   1  37
HETATM   37  O1  UNL     1      28.129   1.225   2.686  1.00  0.00    -0.384 OA
ATOM     38  H1  UNL     1      28.577   0.534   2.211  1.00  0.00     0.211 HD
ENDBRANCH   1  37
TORSDOF 15
ENDMDL
MODEL 3
REMARK VINA RESULT: -6.776314686      0.907      1.951
REMARK  15 active torsions:
REMARK  status: ('A' for Active; 'I' for Inactive)
REMARK    1  A    between atoms: C4_4  and  C5_5 
REMARK    2  A    between atoms: C5_5  and  C6_6 
REMARK    3  A    between atoms: C6_6  and  C7_7 
REMARK    4  A    between atoms: C9_9  and  C10_10 
REMARK    5  A    between atoms: C10_10  and  C11_11 
REMARK    6  A    between atoms: C11_11  and  O1_12 
REMARK    7  A    between atoms: C13_17  and  O2_18 
REMARK    8  A    between atoms: O2_18  and  C14_19 
REMARK    9  A    between atoms: C14_19  and  C15_20 
REMARK   10  A    between atoms: C16_22  and  C17_23 
REMARK   11  A    between atoms: C17_23  and  O4_24 
REMARK   12  A    between atoms: C18_26  and  O5_27 
REMARK   13  A    between atoms: C19_29  and  O6_30 
REMARK   14  A    between atoms: C20_32  and  O7_33 
REMARK   15  A    between atoms: C21_35  and  O8_36 
ROOT
HETATM    1  C11 UNL     1      28.674   1.319   3.912  1.00  0.00     0.095 C 
HETATM    2  C12 UNL     1      29.792   0.385   3.914  1.00  0.00     0.096 C 
HETATM    3  N1  UNL     1      29.892  -0.652   4.582  1.00  0.00    -0.372 N 
ATOM      4  H1  UNL     1      30.729  -1.229   4.498  1.00  0.00     0.161 HD
HETATM    5  C13 UNL     1      28.807  -1.062   5.501  1.00  0.00     0.249 C 
HETATM    6  C21 UNL     1      27.518  -0.565   4.902  1.00  0.00     0.170 C 
HETATM    7  C22 UNL     1      27.646   0.970   4.941  1.00  0.00     0.080 C 
ENDROOT
BRANCH   5   8
HETATM    8  O2  UNL     1      29.046  -0.458   6.676  1.00  0.00    -0.362 OA
BRANCH   8   9
HETATM    9  C14 UNL     1      29.685  -0.992   7.704  1.00  0.00     0.205 C 
BRANCH   9  10
HETATM   10  C15 UNL     1      29.105  -0.747   9.054  1.00  0.00     0.177 C 
HETATM   11  O3  UNL     1      30.005  -0.807  10.037  1.00  0.00    -0.371 OA
HETATM   12  C16 UNL     1      29.657  -1.070  11.312  1.00  0.00     0.177 C 
HETATM   13  C18 UNL     1      28.214  -0.729  11.570  1.00  0.00     0.180 C 
HETATM   14  C19 UNL     1      27.388  -1.617  10.654  1.00  0.00     0.180 C 
HETATM   15  C20 UNL     1      27.849  -1.550   9.221  1.00  0.00     0.180 C 
BRANCH  12  16
HETATM   16  C17 UNL     1      30.584  -0.336  12.268  1.00  0.00     0.198 C 
BRANCH  16  17
HETATM   17  O4  UNL     1      30.883   0.907  11.700  1.00  0.00    -0.398 OA
ATOM     18  H4  UNL     1      31.792   1.101  11.892  1.00  0.00     0.209 HD
ENDBRANCH  16  17
ENDBRANCH  12  16
BRANCH  13  19
HETATM   19  O5  UNL     1      27.929   0.592  11.251  1.00  0.00    -0.390 OA
ATOM     20  H5  UNL     1      28.189   1.187  11.943  1.00  0.00     0.210 HD
ENDBRANCH  13  19
BRANCH  14  21
HETATM   21  O6  UNL     1      27.551  -2.924  11.145  1.00  0.00    -0.390 OA
ATOM     22  H6  UNL     1      26.955  -2.998  11.880  1.00  0.00     0.210 HD
ENDBRANCH  14  21
BRANCH  15  23
HETATM   23  O7  UNL     1      26.839  -0.926   8.488  1.00  0.00    -0.390 OA
ATOM     24  H7  UNL     1      26.539  -1.535   7.824  1.00  0.00     0.210 HD
ENDBRANCH  15  23
ENDBRANCH   9  10
ENDBRANCH   8   9
ENDBRANCH   5   8
BRANCH   6  25
HETATM   25  O8  UNL     1      26.453  -0.967   5.676  1.00  0.00    -0.391 OA
ATOM     26  H8  UNL     1      26.147  -1.819   5.391  1.00  0.00     0.210 HD
ENDBRANCH   6  25
BRANCH   1  27
HETATM   27  C10 UNL     1      29.146   2.764   4.053  1.00  0.00     0.071 C 
BRANCH  27  28
HETATM   28  C9  UNL     1      30.230   2.755   5.042  1.00  0.00    -0.021 C 
HETATM   29  C7  UNL     1      30.196   3.338   6.209  1.00  0.00    -0.087 C 
HETATM   30  C8  UNL     1      31.381   3.249   7.130  1.00  0.00     0.043 C 
BRANCH  29  31
HETATM   31  C6  UNL     1      29.044   4.102   6.710  1.00  0.00     0.037 C 
BRANCH  31  32
HETATM   32  C5  UNL     1      29.539   5.526   7.013  1.00  0.00     0.031 C 
BRANCH  32  33
HETATM   33  C4  UNL     1      29.766   6.190   5.709  1.00  0.00    -0.024 C 
HETATM   34  C2  UNL     1      30.873   6.863   5.487  1.00  0.00    -0.091 C 
HETATM   35  C1  UNL     1      31.076   7.519   4.166  1.00  0.00     0.042 C 
HETATM   36  C3  UNL     1      31.904   6.957   6.555  1.00  0.00     0.042 C 
ENDBRANCH  32  33
ENDBRANCH  31  32
ENDBRANCH  29  31
ENDBRANCH  27  28
ENDBRANCH   1  27
BRANCH   1  37
HETATM   37  O1  UNL     1      28.030   1.189   2.660  1.00  0.00    -0.384 OA
ATOM     38  H1  UNL     1      27.262   1.747   2.666  1.00  0.00     0.211 HD
ENDBRANCH   1  37
TORSDOF 15
ENDMDL
MODEL 4
REMARK VINA RESULT: -6.761879983      3.730      6.306
REMARK  15 active torsions:
REMARK  status: ('A' for Active; 'I' for Inactive)
REMARK    1  A    between atoms: C4_4  and  C5_5 
REMARK    2  A    between atoms: C5_5  and  C6_6 
REMARK    3  A    between atoms: C6_6  and  C7_7 
REMARK    4  A    between atoms: C9_9  and  C10_10 
REMARK    5  A    between atoms: C10_10  and  C11_11 
REMARK    6  A    between atoms: C11_11  and  O1_12 
REMARK    7  A    between atoms: C13_17  and  O2_18 
REMARK    8  A    between atoms: O2_18  and  C14_19 
REMARK    9  A    between atoms: C14_19  and  C15_20 
REMARK   10  A    between atoms: C16_22  and  C17_23 
REMARK   11  A    between atoms: C17_23  and  O4_24 
REMARK   12  A    between atoms: C18_26  and  O5_27 
REMARK   13  A    between atoms: C19_29  and  O6_30 
REMARK   14  A    between atoms: C20_32  and  O7_33 
REMARK   15  A    between atoms: C21_35  and  O8_36 
ROOT
HETATM    1  C11 UNL     1      28.030  -1.333   9.750  1.00  0.00     0.095 C 
HETATM    2  C12 UNL     1      28.730  -2.607   9.847  1.00  0.00     0.096 C 
HETATM    3  N1  UNL     1      29.800  -2.823  10.429  1.00  0.00    -0.372 N 
ATOM      4  H1  UNL     1      30.196  -3.763  10.428  1.00  0.00     0.161 HD
HETATM    5  C13 UNL     1      30.512  -1.728  11.126  1.00  0.00     0.249 C 
HETATM    6  C21 UNL     1      29.460  -0.772  11.623  1.00  0.00     0.170 C 
HETATM    7  C22 UNL     1      28.821  -0.209  10.339  1.00  0.00     0.080 C 
ENDROOT
BRANCH   5   8
HETATM    8  O2  UNL     1      31.298  -1.135  10.214  1.00  0.00    -0.362 OA
BRANCH   8   9
HETATM    9  C14 UNL     1      32.602  -0.944  10.324  1.00  0.00     0.205 C 
BRANCH   9  10
HETATM   10  C15 UNL     1      33.415  -2.108  10.777  1.00  0.00     0.177 C 
HETATM   11  O3  UNL     1      34.432  -1.769  11.569  1.00  0.00    -0.371 OA
HETATM   12  C16 UNL     1      35.520  -2.552  11.713  1.00  0.00     0.177 C 
HETATM   13  C18 UNL     1      35.215  -3.986  11.373  1.00  0.00     0.180 C 
HETATM   14  C19 UNL     1      34.799  -4.006   9.911  1.00  0.00     0.180 C 
HETATM   15  C20 UNL     1      33.719  -2.999   9.609  1.00  0.00     0.180 C 
BRANCH  12  16
HETATM   16  C17 UNL     1      36.076  -2.417  13.122  1.00  0.00     0.198 C 
BRANCH  16  17
HETATM   17  O4  UNL     1      36.723  -3.616  13.440  1.00  0.00    -0.398 OA
ATOM     18  H4  UNL     1      36.250  -4.321  13.015  1.00  0.00     0.209 HD
ENDBRANCH  16  17
ENDBRANCH  12  16
BRANCH  13  19
HETATM   19  O5  UNL     1      34.157  -4.482  12.123  1.00  0.00    -0.390 OA
ATOM     20  H5  UNL     1      34.351  -4.479  13.053  1.00  0.00     0.210 HD
ENDBRANCH  13  19
BRANCH  14  21
HETATM   21  O6  UNL     1      35.958  -3.693   9.182  1.00  0.00    -0.390 OA
ATOM     22  H6  UNL     1      36.290  -4.522   8.860  1.00  0.00     0.210 HD
ENDBRANCH  14  21
BRANCH  15  23
HETATM   23  O7  UNL     1      32.562  -3.712   9.297  1.00  0.00    -0.390 OA
ATOM     24  H7  UNL     1      32.573  -3.899   8.366  1.00  0.00     0.210 HD
ENDBRANCH  15  23
ENDBRANCH   9  10
ENDBRANCH   8   9
ENDBRANCH   5   8
BRANCH   6  25
HETATM   25  O8  UNL     1      30.049   0.245  12.339  1.00  0.00    -0.391 OA
ATOM     26  H8  UNL     1      29.384   0.756  12.784  1.00  0.00     0.210 HD
ENDBRANCH   6  25
BRANCH   1  27
HETATM   27  C10 UNL     1      27.602  -1.033   8.315  1.00  0.00     0.071 C 
BRANCH  27  28
HETATM   28  C9  UNL     1      27.871   0.392   8.088  1.00  0.00    -0.021 C 
HETATM   29  C7  UNL     1      27.170   1.184   7.324  1.00  0.00    -0.087 C 
HETATM   30  C8  UNL     1      27.557   2.629   7.180  1.00  0.00     0.043 C 
BRANCH  29  31
HETATM   31  C6  UNL     1      25.987   0.754   6.565  1.00  0.00     0.037 C 
BRANCH  31  32
HETATM   32  C5  UNL     1      26.482  -0.136   5.412  1.00  0.00     0.031 C 
BRANCH  32  33
HETATM   33  C4  UNL     1      26.950   0.770   4.340  1.00  0.00    -0.024 C 
HETATM   34  C2  UNL     1      28.187   0.700   3.899  1.00  0.00    -0.091 C 
HETATM   35  C1  UNL     1      28.631   1.623   2.818  1.00  0.00     0.042 C 
HETATM   36  C3  UNL     1      29.121  -0.299   4.484  1.00  0.00     0.042 C 
ENDBRANCH  32  33
ENDBRANCH  31  32
ENDBRANCH  29  31
ENDBRANCH  27  28
ENDBRANCH   1  27
BRANCH   1  37
HETATM   37  O1  UNL     1      26.863  -1.442  10.540  1.00  0.00    -0.384 OA
ATOM     38  H1  UNL     1      27.115  -1.343  11.451  1.00  0.00     0.211 HD
ENDBRANCH   1  37
TORSDOF 15
ENDMDL
MODEL 5
REMARK VINA RESULT: -6.757193053      0.876      2.118
REMARK  15 active torsions:
REMARK  status: ('A' for Active; 'I' for Inactive)
REMARK    1  A    between atoms: C4_4  and  C5_5 
REMARK    2  A    between atoms: C5_5  and  C6_6 
REMARK    3  A    between atoms: C6_6  and  C7_7 
REMARK    4  A    between atoms: C9_9  and  C10_10 
REMARK    5  A    between atoms: C10_10  and  C11_11 
REMARK    6  A    between atoms: C11_11  and  O1_12 
REMARK    7  A    between atoms: C13_17  and  O2_18 
REMARK    8  A    between atoms: O2_18  and  C14_19 
REMARK    9  A    between atoms: C14_19  and  C15_20 
REMARK   10  A    between atoms: C16_22  and  C17_23 
REMARK   11  A    between atoms: C17_23  and  O4_24 
REMARK   12  A    between atoms: C18_26  and  O5_27 
REMARK   13  A    between atoms: C19_29  and  O6_30 
REMARK   14  A    between atoms: C20_32  and  O7_33 
REMARK   15  A    between atoms: C21_35  and  O8_36 
ROOT
HETATM    1  C11 UNL     1      28.641   1.282   3.875  1.00  0.00     0.095 C 
HETATM    2  C12 UNL     1      29.779   0.371   3.878  1.00  0.00     0.096 C 
HETATM    3  N1  UNL     1      29.907  -0.653   4.559  1.00  0.00    -0.372 N 
ATOM      4  H1  UNL     1      30.754  -1.214   4.475  1.00  0.00     0.161 HD
HETATM    5  C13 UNL     1      28.839  -1.073   5.495  1.00  0.00     0.249 C 
HETATM    6  C21 UNL     1      27.534  -0.611   4.902  1.00  0.00     0.170 C 
HETATM    7  C22 UNL     1      27.632   0.927   4.918  1.00  0.00     0.080 C 
ENDROOT
BRANCH   5   8
HETATM    8  O2  UNL     1      29.078  -0.447   6.659  1.00  0.00    -0.362 OA
BRANCH   8   9
HETATM    9  C14 UNL     1      29.720  -0.961   7.695  1.00  0.00     0.205 C 
BRANCH   9  10
HETATM   10  C15 UNL     1      29.130  -0.711   9.041  1.00  0.00     0.177 C 
HETATM   11  O3  UNL     1      30.023  -0.771  10.030  1.00  0.00    -0.371 OA
HETATM   12  C16 UNL     1      29.664  -1.029  11.303  1.00  0.00     0.177 C 
HETATM   13  C18 UNL     1      28.220  -0.685  11.549  1.00  0.00     0.180 C 
HETATM   14  C19 UNL     1      27.399  -1.574  10.630  1.00  0.00     0.180 C 
HETATM   15  C20 UNL     1      27.872  -1.511   9.200  1.00  0.00     0.180 C 
BRANCH  12  16
HETATM   16  C17 UNL     1      30.586  -0.294  12.264  1.00  0.00     0.198 C 
BRANCH  16  17
HETATM   17  O4  UNL     1      30.915   0.934  11.681  1.00  0.00    -0.398 OA
ATOM     18  H4  UNL     1      31.637   1.304  12.175  1.00  0.00     0.209 HD
ENDBRANCH  16  17
ENDBRANCH  12  16
BRANCH  13  19
HETATM   19  O5  UNL     1      27.940   0.636  11.224  1.00  0.00    -0.390 OA
ATOM     20  H5  UNL     1      27.010   0.780  11.097  1.00  0.00     0.210 HD
ENDBRANCH  13  19
BRANCH  14  21
HETATM   21  O6  UNL     1      27.556  -2.879  11.125  1.00  0.00    -0.390 OA
ATOM     22  H6  UNL     1      27.166  -3.449  10.473  1.00  0.00     0.210 HD
ENDBRANCH  14  21
BRANCH  15  23
HETATM   23  O7  UNL     1      26.868  -0.888   8.458  1.00  0.00    -0.390 OA
ATOM     24  H7  UNL     1      26.665  -1.443   7.714  1.00  0.00     0.210 HD
ENDBRANCH  15  23
ENDBRANCH   9  10
ENDBRANCH   8   9
ENDBRANCH   5   8
BRANCH   6  25
HETATM   25  O8  UNL     1      26.486  -1.023   5.693  1.00  0.00    -0.391 OA
ATOM     26  H8  UNL     1      26.173  -0.299   6.221  1.00  0.00     0.210 HD
ENDBRANCH   6  25
BRANCH   1  27
HETATM   27  C10 UNL     1      29.085   2.739   3.990  1.00  0.00     0.071 C 
BRANCH  27  28
HETATM   28  C9  UNL     1      28.833   3.144   5.378  1.00  0.00    -0.021 C 
HETATM   29  C7  UNL     1      29.425   4.125   6.001  1.00  0.00    -0.087 C 
HETATM   30  C8  UNL     1      29.070   4.435   7.429  1.00  0.00     0.043 C 
BRANCH  29  31
HETATM   31  C6  UNL     1      30.451   4.983   5.390  1.00  0.00     0.037 C 
BRANCH  31  32
HETATM   32  C5  UNL     1      31.810   4.548   5.964  1.00  0.00     0.031 C 
BRANCH  32  33
HETATM   33  C4  UNL     1      32.478   3.735   4.922  1.00  0.00    -0.024 C 
HETATM   34  C2  UNL     1      32.672   2.447   5.104  1.00  0.00    -0.091 C 
HETATM   35  C1  UNL     1      33.345   1.654   4.038  1.00  0.00     0.042 C 
HETATM   36  C3  UNL     1      32.218   1.805   6.365  1.00  0.00     0.042 C 
ENDBRANCH  32  33
ENDBRANCH  31  32
ENDBRANCH  29  31
ENDBRANCH  27  28
ENDBRANCH   1  27
BRANCH   1  37
HETATM   37  O1  UNL     1      27.989   1.122   2.631  1.00  0.00    -0.384 OA
ATOM     38  H1  UNL     1      28.471   0.477   2.128  1.00  0.00     0.211 HD
ENDBRANCH   1  37
TORSDOF 15
ENDMDL
