MODEL 1
REMARK VINA RESULT: -7.052825623      0.000      0.000
REMARK  15 active torsions:
REMARK  status: ('A' for Active; 'I' for Inactive)
REMARK    1  A    between atoms: C3_3  and  C4_4 
REMARK    2  A    between atoms: C6_6  and  C7_7 
REMARK    3  A    between atoms: C6_6  and  O4_20 
REMARK    4  A    between atoms: C7_7  and  C8_8 
REMARK    5  A    between atoms: C8_8  and  C9_9 
REMARK    6  A    between atoms: C9_9  and  C10_10 
REMARK    7  A    between atoms: C10_10  and  O1_11 
REMARK    8  A    between atoms: C10_10  and  C11_13 
REMARK    9  A    between atoms: C11_13  and  C12_14 
REMARK   10  A    between atoms: C12_14  and  O2_15 
REMARK   11  A    between atoms: C12_14  and  C13_17 
REMARK   12  A    between atoms: C13_17  and  O3_18 
REMARK   13  A    between atoms: C20_29  and  O7_30 
REMARK   14  A    between atoms: C21_32  and  O8_33 
REMARK   15  A    between atoms: C22_35  and  O9_36 
ROOT
HETATM    1  C4  UNL     1      27.222  -0.493   5.430  1.00  0.00     0.017 C 
HETATM    2  C5  UNL     1      27.303  -1.397   6.651  1.00  0.00     0.049 C 
HETATM    3  C6  UNL     1      28.825  -1.270   7.073  1.00  0.00     0.087 C 
HETATM    4  C15 UNL     1      28.852   0.222   6.946  1.00  0.00     0.164 C 
HETATM    5  O5  UNL     1      30.022   0.850   7.109  1.00  0.00    -0.344 OA
HETATM    6  C16 UNL     1      29.875   2.224   7.057  1.00  0.00     0.196 C 
HETATM    7  C17 UNL     1      29.130   2.742   5.866  1.00  0.00     0.072 C 
HETATM    8  C18 UNL     1      27.891   1.930   5.541  1.00  0.00     0.013 C 
HETATM    9  C19 UNL     1      28.340   0.502   5.532  1.00  0.00     0.026 C 
HETATM   10  O6  UNL     1      31.182   2.753   6.954  1.00  0.00    -0.320 OA
HETATM   11  C20 UNL     1      31.085   4.072   7.378  1.00  0.00     0.292 C 
HETATM   12  C21 UNL     1      29.961   4.151   8.372  1.00  0.00     0.207 C 
HETATM   13  C22 UNL     1      29.357   2.754   8.356  1.00  0.00     0.214 C 
ENDROOT
BRANCH   3  14
HETATM   14  C7  UNL     1      28.768  -1.749   8.487  1.00  0.00     0.041 C 
BRANCH  14  15
HETATM   15  C8  UNL     1      27.447  -1.911   9.122  1.00  0.00     0.006 C 
BRANCH  15  16
HETATM   16  C9  UNL     1      27.591  -1.802  10.667  1.00  0.00     0.032 C 
BRANCH  16  17
HETATM   17  C10 UNL     1      28.660  -0.783  10.986  1.00  0.00     0.120 C 
BRANCH  17  18
HETATM   18  O1  UNL     1      27.957   0.449  11.156  1.00  0.00    -0.395 OA
ATOM     19  H1  UNL     1      28.414   0.899  11.856  1.00  0.00     0.210 HD
ENDBRANCH  17  18
BRANCH  17  20
HETATM   20  C11 UNL     1      29.381  -1.002  12.263  1.00  0.00     0.065 C 
BRANCH  20  21
HETATM   21  C12 UNL     1      30.680  -0.318  12.448  1.00  0.00     0.144 C 
BRANCH  21  22
HETATM   22  O2  UNL     1      30.672   0.926  11.872  1.00  0.00    -0.393 OA
ATOM     23  H2  UNL     1      31.036   1.579  12.458  1.00  0.00     0.210 HD
ENDBRANCH  21  22
BRANCH  21  24
HETATM   24  C13 UNL     1      31.144  -0.288  13.891  1.00  0.00     0.195 C 
BRANCH  24  25
HETATM   25  O3  UNL     1      30.083  -0.232  14.784  1.00  0.00    -0.398 OA
ATOM     26  H3  UNL     1      30.354   0.053  15.649  1.00  0.00     0.209 HD
ENDBRANCH  24  25
ENDBRANCH  21  24
ENDBRANCH  20  21
ENDBRANCH  17  20
ENDBRANCH  16  17
ENDBRANCH  15  16
ENDBRANCH  14  15
ENDBRANCH   3  14
BRANCH   3  27
HETATM   27  O4  UNL     1      29.445  -1.981   6.148  1.00  0.00    -0.382 OA
HETATM   28  C14 UNL     1      29.848  -3.240   6.213  1.00  0.00     0.202 C 
ENDBRANCH   3  27
BRANCH   1  29
HETATM   29  C3  UNL     1      25.904   0.107   5.248  1.00  0.00    -0.026 C 
HETATM   30  C2  UNL     1      25.306   0.081   4.064  1.00  0.00    -0.035 C 
HETATM   31  C1  UNL     1      25.977  -0.563   2.908  1.00  0.00     0.036 C 
ENDBRANCH   1  29
BRANCH  13  32
HETATM   32  O9  UNL     1      29.916   2.087   9.441  1.00  0.00    -0.387 OA
ATOM     33  H9  UNL     1      30.613   2.593   9.842  1.00  0.00     0.210 HD
ENDBRANCH  13  32
BRANCH  11  34
HETATM   34  O7  UNL     1      30.932   4.967   6.315  1.00  0.00    -0.368 OA
ATOM     35  H7  UNL     1      30.388   5.712   6.542  1.00  0.00     0.212 HD
ENDBRANCH  11  34
BRANCH  12  36
HETATM   36  O8  UNL     1      29.034   5.130   8.107  1.00  0.00    -0.388 OA
ATOM     37  H8  UNL     1      29.030   5.436   7.208  1.00  0.00     0.210 HD
ENDBRANCH  12  36
TORSDOF 15
ENDMDL
MODEL 2
REMARK VINA RESULT: -6.836984296      1.403      1.527
REMARK  15 active torsions:
REMARK  status: ('A' for Active; 'I' for Inactive)
REMARK    1  A    between atoms: C3_3  and  C4_4 
REMARK    2  A    between atoms: C6_6  and  C7_7 
REMARK    3  A    between atoms: C6_6  and  O4_20 
REMARK    4  A    between atoms: C7_7  and  C8_8 
REMARK    5  A    between atoms: C8_8  and  C9_9 
REMARK    6  A    between atoms: C9_9  and  C10_10 
REMARK    7  A    between atoms: C10_10  and  O1_11 
REMARK    8  A    between atoms: C10_10  and  C11_13 
REMARK    9  A    between atoms: C11_13  and  C12_14 
REMARK   10  A    between atoms: C12_14  and  O2_15 
REMARK   11  A    between atoms: C12_14  and  C13_17 
REMARK   12  A    between atoms: C13_17  and  O3_18 
REMARK   13  A    between atoms: C20_29  and  O7_30 
REMARK   14  A    between atoms: C21_32  and  O8_33 
REMARK   15  A    between atoms: C22_35  and  O9_36 
ROOT
HETATM    1  C4  UNL     1      27.222  -0.549   5.454  1.00  0.00     0.017 C 
HETATM    2  C5  UNL     1      27.286  -1.506   6.635  1.00  0.00     0.049 C 
HETATM    3  C6  UNL     1      28.805  -1.408   7.076  1.00  0.00     0.087 C 
HETATM    4  C15 UNL     1      28.843   0.088   7.014  1.00  0.00     0.164 C 
HETATM    5  O5  UNL     1      30.015   0.700   7.215  1.00  0.00    -0.344 OA
HETATM    6  C16 UNL     1      29.878   2.076   7.221  1.00  0.00     0.196 C 
HETATM    7  C17 UNL     1      29.147   2.651   6.047  1.00  0.00     0.072 C 
HETATM    8  C18 UNL     1      27.905   1.861   5.677  1.00  0.00     0.013 C 
HETATM    9  C19 UNL     1      28.345   0.432   5.609  1.00  0.00     0.026 C 
HETATM   10  O6  UNL     1      31.189   2.600   7.152  1.00  0.00    -0.320 OA
HETATM   11  C20 UNL     1      31.097   3.900   7.632  1.00  0.00     0.292 C 
HETATM   12  C21 UNL     1      29.965   3.944   8.619  1.00  0.00     0.207 C 
HETATM   13  C22 UNL     1      29.352   2.552   8.537  1.00  0.00     0.214 C 
ENDROOT
BRANCH   3  14
HETATM   14  C7  UNL     1      28.732  -1.948   8.467  1.00  0.00     0.041 C 
BRANCH  14  15
HETATM   15  C8  UNL     1      27.423  -2.392   8.982  1.00  0.00     0.006 C 
BRANCH  15  16
HETATM   16  C9  UNL     1      27.224  -1.866  10.432  1.00  0.00     0.032 C 
BRANCH  16  17
HETATM   17  C10 UNL     1      28.474  -1.132  10.860  1.00  0.00     0.120 C 
BRANCH  17  18
HETATM   18  O1  UNL     1      28.020   0.155  11.283  1.00  0.00    -0.395 OA
ATOM     19  H1  UNL     1      27.368  -0.023  11.952  1.00  0.00     0.210 HD
ENDBRANCH  17  18
BRANCH  17  20
HETATM   20  C11 UNL     1      29.174  -1.707  12.033  1.00  0.00     0.065 C 
BRANCH  20  21
HETATM   21  C12 UNL     1      29.277  -3.180  12.122  1.00  0.00     0.144 C 
BRANCH  21  22
HETATM   22  O2  UNL     1      30.251  -3.661  11.286  1.00  0.00    -0.393 OA
ATOM     23  H2  UNL     1      30.236  -3.216  10.447  1.00  0.00     0.210 HD
ENDBRANCH  21  22
BRANCH  21  24
HETATM   24  C13 UNL     1      29.426  -3.688  13.542  1.00  0.00     0.195 C 
BRANCH  24  25
HETATM   25  O3  UNL     1      28.564  -4.740  13.819  1.00  0.00    -0.398 OA
ATOM     26  H3  UNL     1      28.334  -5.232  13.040  1.00  0.00     0.209 HD
ENDBRANCH  24  25
ENDBRANCH  21  24
ENDBRANCH  20  21
ENDBRANCH  17  20
ENDBRANCH  16  17
ENDBRANCH  15  16
ENDBRANCH  14  15
ENDBRANCH   3  14
BRANCH   3  27
HETATM   27  O4  UNL     1      29.428  -2.083   6.126  1.00  0.00    -0.382 OA
HETATM   28  C14 UNL     1      29.848  -3.338   6.151  1.00  0.00     0.202 C 
ENDBRANCH   3  27
BRANCH   1  29
HETATM   29  C3  UNL     1      25.909   0.067   5.287  1.00  0.00    -0.026 C 
HETATM   30  C2  UNL     1      25.311   0.075   4.103  1.00  0.00    -0.035 C 
HETATM   31  C1  UNL     1      25.976  -0.547   2.931  1.00  0.00     0.036 C 
ENDBRANCH   1  29
BRANCH  13  32
HETATM   32  O9  UNL     1      29.897   1.835   9.597  1.00  0.00    -0.387 OA
ATOM     33  H9  UNL     1      30.174   0.968   9.327  1.00  0.00     0.210 HD
ENDBRANCH  13  32
BRANCH  11  34
HETATM   34  O7  UNL     1      30.959   4.842   6.608  1.00  0.00    -0.368 OA
ATOM     35  H7  UNL     1      30.946   5.734   6.934  1.00  0.00     0.212 HD
ENDBRANCH  11  34
BRANCH  12  36
HETATM   36  O8  UNL     1      29.046   4.939   8.389  1.00  0.00    -0.388 OA
ATOM     37  H8  UNL     1      28.572   5.224   9.162  1.00  0.00     0.210 HD
ENDBRANCH  12  36
TORSDOF 15
ENDMDL
MODEL 3
REMARK VINA RESULT: -6.677114412      2.374      5.252
REMARK  15 active torsions:
REMARK  status: ('A' for Active; 'I' for Inactive)
REMARK    1  A    between atoms: C3_3  and  C4_4 
REMARK    2  A    between atoms: C6_6  and  C7_7 
REMARK    3  A    between atoms: C6_6  and  O4_20 
REMARK    4  A    between atoms: C7_7  and  C8_8 
REMARK    5  A    between atoms: C8_8  and  C9_9 
REMARK    6  A    between atoms: C9_9  and  C10_10 
REMARK    7  A    between atoms: C10_10  and  O1_11 
REMARK    8  A    between atoms: C10_10  and  C11_13 
REMARK    9  A    between atoms: C11_13  and  C12_14 
REMARK   10  A    between atoms: C12_14  and  O2_15 
REMARK   11  A    between atoms: C12_14  and  C13_17 
REMARK   12  A    between atoms: C13_17  and  O3_18 
REMARK   13  A    between atoms: C20_29  and  O7_30 
REMARK   14  A    between atoms: C21_32  and  O8_33 
REMARK   15  A    between atoms: C22_35  and  O9_36 
ROOT
HETATM    1  C4  UNL     1      30.341  -0.669   4.270  1.00  0.00     0.017 C 
HETATM    2  C5  UNL     1      29.828   0.756   4.130  1.00  0.00     0.049 C 
HETATM    3  C6  UNL     1      28.348   0.645   4.688  1.00  0.00     0.087 C 
HETATM    4  C15 UNL     1      28.743  -0.149   5.896  1.00  0.00     0.164 C 
HETATM    5  O5  UNL     1      27.774  -0.612   6.692  1.00  0.00    -0.344 OA
HETATM    6  C16 UNL     1      28.291  -1.241   7.811  1.00  0.00     0.196 C 
HETATM    7  C17 UNL     1      29.328  -2.286   7.534  1.00  0.00     0.072 C 
HETATM    8  C18 UNL     1      30.339  -1.857   6.488  1.00  0.00     0.013 C 
HETATM    9  C19 UNL     1      29.530  -1.337   5.340  1.00  0.00     0.026 C 
HETATM   10  O6  UNL     1      27.208  -1.923   8.411  1.00  0.00    -0.320 OA
HETATM   11  C20 UNL     1      27.586  -2.136   9.730  1.00  0.00     0.292 C 
HETATM   12  C21 UNL     1      28.517  -1.025  10.124  1.00  0.00     0.207 C 
HETATM   13  C22 UNL     1      28.718  -0.240   8.835  1.00  0.00     0.214 C 
ENDROOT
BRANCH   3  14
HETATM   14  C7  UNL     1      28.049   2.078   4.985  1.00  0.00     0.041 C 
BRANCH  14  15
HETATM   15  C8  UNL     1      29.148   2.945   5.449  1.00  0.00     0.006 C 
BRANCH  15  16
HETATM   16  C9  UNL     1      28.842   3.455   6.886  1.00  0.00     0.032 C 
BRANCH  16  17
HETATM   17  C10 UNL     1      30.112   3.393   7.705  1.00  0.00     0.120 C 
BRANCH  17  18
HETATM   18  O1  UNL     1      29.672   3.218   9.053  1.00  0.00    -0.395 OA
ATOM     19  H1  UNL     1      29.032   3.904   9.194  1.00  0.00     0.210 HD
ENDBRANCH  17  18
BRANCH  17  20
HETATM   20  C11 UNL     1      30.989   2.232   7.424  1.00  0.00     0.065 C 
BRANCH  20  21
HETATM   21  C12 UNL     1      32.200   2.065   8.257  1.00  0.00     0.144 C 
BRANCH  21  22
HETATM   22  O2  UNL     1      32.511   3.224   8.920  1.00  0.00    -0.393 OA
ATOM     23  H2  UNL     1      33.450   3.318   9.026  1.00  0.00     0.210 HD
ENDBRANCH  21  22
BRANCH  21  24
HETATM   24  C13 UNL     1      32.132   0.866   9.183  1.00  0.00     0.195 C 
BRANCH  24  25
HETATM   25  O3  UNL     1      31.498   1.162  10.382  1.00  0.00    -0.398 OA
ATOM     26  H3  UNL     1      31.746   0.564  11.078  1.00  0.00     0.209 HD
ENDBRANCH  24  25
ENDBRANCH  21  24
ENDBRANCH  20  21
ENDBRANCH  17  20
ENDBRANCH  16  17
ENDBRANCH  15  16
ENDBRANCH  14  15
ENDBRANCH   3  14
BRANCH   3  27
HETATM   27  O4  UNL     1      27.716   0.015   3.713  1.00  0.00    -0.382 OA
HETATM   28  C14 UNL     1      26.412  -0.087   3.511  1.00  0.00     0.202 C 
ENDBRANCH   3  27
BRANCH   1  29
HETATM   29  C3  UNL     1      31.784  -0.740   4.483  1.00  0.00    -0.026 C 
HETATM   30  C2  UNL     1      32.612  -0.905   3.459  1.00  0.00    -0.035 C 
HETATM   31  C1  UNL     1      32.074  -1.020   2.081  1.00  0.00     0.036 C 
ENDBRANCH   1  29
BRANCH  13  32
HETATM   32  O9  UNL     1      27.835   0.833   8.903  1.00  0.00    -0.387 OA
ATOM     33  H9  UNL     1      28.265   1.621   9.212  1.00  0.00     0.210 HD
ENDBRANCH  13  32
BRANCH  11  34
HETATM   34  O7  UNL     1      28.141  -3.404   9.931  1.00  0.00    -0.368 OA
ATOM     35  H7  UNL     1      28.892  -3.385  10.512  1.00  0.00     0.212 HD
ENDBRANCH  11  34
BRANCH  12  36
HETATM   36  O8  UNL     1      29.702  -1.443  10.678  1.00  0.00    -0.388 OA
ATOM     37  H8  UNL     1      30.469  -1.277  10.141  1.00  0.00     0.210 HD
ENDBRANCH  12  36
TORSDOF 15
ENDMDL
MODEL 4
REMARK VINA RESULT: -6.617857423      1.346      1.599
REMARK  15 active torsions:
REMARK  status: ('A' for Active; 'I' for Inactive)
REMARK    1  A    between atoms: C3_3  and  C4_4 
REMARK    2  A    between atoms: C6_6  and  C7_7 
REMARK    3  A    between atoms: C6_6  and  O4_20 
REMARK    4  A    between atoms: C7_7  and  C8_8 
REMARK    5  A    between atoms: C8_8  and  C9_9 
REMARK    6  A    between atoms: C9_9  and  C10_10 
REMARK    7  A    between atoms: C10_10  and  O1_11 
REMARK    8  A    between atoms: C10_10  and  C11_13 
REMARK    9  A    between atoms: C11_13  and  C12_14 
REMARK   10  A    between atoms: C12_14  and  O2_15 
REMARK   11  A    between atoms: C12_14  and  C13_17 
REMARK   12  A    between atoms: C13_17  and  O3_18 
REMARK   13  A    between atoms: C20_29  and  O7_30 
REMARK   14  A    between atoms: C21_32  and  O8_33 
REMARK   15  A    between atoms: C22_35  and  O9_36 
ROOT
HETATM    1  C4  UNL     1      27.217  -0.585   5.469  1.00  0.00     0.017 C 
HETATM    2  C5  UNL     1      27.299  -1.533   6.657  1.00  0.00     0.049 C 
HETATM    3  C6  UNL     1      28.823  -1.422   7.080  1.00  0.00     0.087 C 
HETATM    4  C15 UNL     1      28.851   0.074   7.006  1.00  0.00     0.164 C 
HETATM    5  O5  UNL     1      30.021   0.695   7.189  1.00  0.00    -0.344 OA
HETATM    6  C16 UNL     1      29.875   2.070   7.186  1.00  0.00     0.196 C 
HETATM    7  C17 UNL     1      29.127   2.631   6.016  1.00  0.00     0.072 C 
HETATM    8  C18 UNL     1      27.887   1.831   5.665  1.00  0.00     0.013 C 
HETATM    9  C19 UNL     1      28.335   0.404   5.604  1.00  0.00     0.026 C 
HETATM   10  O6  UNL     1      31.182   2.602   7.099  1.00  0.00    -0.320 OA
HETATM   11  C20 UNL     1      31.087   3.905   7.570  1.00  0.00     0.292 C 
HETATM   12  C21 UNL     1      29.965   3.949   8.568  1.00  0.00     0.207 C 
HETATM   13  C22 UNL     1      29.360   2.554   8.504  1.00  0.00     0.214 C 
ENDROOT
BRANCH   3  14
HETATM   14  C7  UNL     1      28.768  -1.951   8.476  1.00  0.00     0.041 C 
BRANCH  14  15
HETATM   15  C8  UNL     1      27.471  -2.413   9.003  1.00  0.00     0.006 C 
BRANCH  15  16
HETATM   16  C9  UNL     1      27.248  -1.834  10.430  1.00  0.00     0.032 C 
BRANCH  16  17
HETATM   17  C10 UNL     1      28.520  -1.156  10.884  1.00  0.00     0.120 C 
BRANCH  17  18
HETATM   18  O1  UNL     1      28.121   0.164  11.256  1.00  0.00    -0.395 OA
ATOM     19  H1  UNL     1      28.540   0.321  12.094  1.00  0.00     0.210 HD
ENDBRANCH  17  18
BRANCH  17  20
HETATM   20  C11 UNL     1      29.145  -1.734  12.098  1.00  0.00     0.065 C 
BRANCH  20  21
HETATM   21  C12 UNL     1      30.209  -2.744  11.911  1.00  0.00     0.144 C 
BRANCH  21  22
HETATM   22  O2  UNL     1      29.688  -3.944  11.500  1.00  0.00    -0.393 OA
ATOM     23  H2  UNL     1      29.501  -3.937  10.569  1.00  0.00     0.210 HD
ENDBRANCH  21  22
BRANCH  21  24
HETATM   24  C13 UNL     1      31.341  -2.267  11.022  1.00  0.00     0.195 C 
BRANCH  24  25
HETATM   25  O3  UNL     1      31.714  -3.222  10.086  1.00  0.00    -0.398 OA
ATOM     26  H3  UNL     1      31.200  -3.165   9.289  1.00  0.00     0.209 HD
ENDBRANCH  24  25
ENDBRANCH  21  24
ENDBRANCH  20  21
ENDBRANCH  17  20
ENDBRANCH  16  17
ENDBRANCH  15  16
ENDBRANCH  14  15
ENDBRANCH   3  14
BRANCH   3  27
HETATM   27  O4  UNL     1      29.440  -2.100   6.129  1.00  0.00    -0.382 OA
HETATM   28  C14 UNL     1      29.843  -3.360   6.148  1.00  0.00     0.202 C 
ENDBRANCH   3  27
BRANCH   1  29
HETATM   29  C3  UNL     1      25.898   0.021   5.311  1.00  0.00    -0.026 C 
HETATM   30  C2  UNL     1      25.311   0.063   4.123  1.00  0.00    -0.035 C 
HETATM   31  C1  UNL     1      25.993  -0.510   2.937  1.00  0.00     0.036 C 
ENDBRANCH   1  29
BRANCH  13  32
HETATM   32  O9  UNL     1      29.921   1.848   9.564  1.00  0.00    -0.387 OA
ATOM     33  H9  UNL     1      30.485   2.400  10.092  1.00  0.00     0.210 HD
ENDBRANCH  13  32
BRANCH  11  34
HETATM   34  O7  UNL     1      30.932   4.837   6.540  1.00  0.00    -0.368 OA
ATOM     35  H7  UNL     1      30.502   5.633   6.831  1.00  0.00     0.212 HD
ENDBRANCH  11  34
BRANCH  12  36
HETATM   36  O8  UNL     1      29.038   4.937   8.341  1.00  0.00    -0.388 OA
ATOM     37  H8  UNL     1      28.183   4.770   8.720  1.00  0.00     0.210 HD
ENDBRANCH  12  36
TORSDOF 15
ENDMDL
MODEL 5
REMARK VINA RESULT: -6.562472204      2.295      2.992
REMARK  15 active torsions:
REMARK  status: ('A' for Active; 'I' for Inactive)
REMARK    1  A    between atoms: C3_3  and  C4_4 
REMARK    2  A    between atoms: C6_6  and  C7_7 
REMARK    3  A    between atoms: C6_6  and  O4_20 
REMARK    4  A    between atoms: C7_7  and  C8_8 
REMARK    5  A    between atoms: C8_8  and  C9_9 
REMARK    6  A    between atoms: C9_9  and  C10_10 
REMARK    7  A    between atoms: C10_10  and  O1_11 
REMARK    8  A    between atoms: C10_10  and  C11_13 
REMARK    9  A    between atoms: C11_13  and  C12_14 
REMARK   10  A    between atoms: C12_14  and  O2_15 
REMARK   11  A    between atoms: C12_14  and  C13_17 
REMARK   12  A    between atoms: C13_17  and  O3_18 
REMARK   13  A    between atoms: C20_29  and  O7_30 
REMARK   14  A    between atoms: C21_32  and  O8_33 
REMARK   15  A    between atoms: C22_35  and  O9_36 
ROOT
HETATM    1  C4  UNL     1      27.895  -0.001   4.255  1.00  0.00     0.017 C 
HETATM    2  C5  UNL     1      28.563  -1.104   5.062  1.00  0.00     0.049 C 
HETATM    3  C6  UNL     1      30.103  -0.766   4.898  1.00  0.00     0.087 C 
HETATM    4  C15 UNL     1      29.927   0.695   5.177  1.00  0.00     0.164 C 
HETATM    5  O5  UNL     1      30.991   1.496   5.051  1.00  0.00    -0.344 OA
HETATM    6  C16 UNL     1      30.700   2.794   5.431  1.00  0.00     0.196 C 
HETATM    7  C17 UNL     1      29.482   3.388   4.795  1.00  0.00     0.072 C 
HETATM    8  C18 UNL     1      28.306   2.429   4.755  1.00  0.00     0.013 C 
HETATM    9  C19 UNL     1      28.850   1.153   4.193  1.00  0.00     0.026 C 
HETATM   10  O6  UNL     1      31.787   3.582   4.990  1.00  0.00    -0.320 OA
HETATM   11  C20 UNL     1      31.745   4.738   5.758  1.00  0.00     0.292 C 
HETATM   12  C21 UNL     1      31.133   4.385   7.083  1.00  0.00     0.207 C 
HETATM   13  C22 UNL     1      30.718   2.929   6.919  1.00  0.00     0.214 C 
ENDROOT
BRANCH   3  14
HETATM   14  C7  UNL     1      30.684  -1.529   6.043  1.00  0.00     0.041 C 
BRANCH  14  15
HETATM   15  C8  UNL     1      30.288  -1.152   7.413  1.00  0.00     0.006 C 
BRANCH  15  16
HETATM   16  C9  UNL     1      29.889  -2.425   8.212  1.00  0.00     0.032 C 
BRANCH  16  17
HETATM   17  C10 UNL     1      28.494  -2.839   7.805  1.00  0.00     0.120 C 
BRANCH  17  18
HETATM   18  O1  UNL     1      28.649  -4.133   7.220  1.00  0.00    -0.395 OA
ATOM     19  H1  UNL     1      28.799  -4.718   7.953  1.00  0.00     0.210 HD
ENDBRANCH  17  18
BRANCH  17  20
HETATM   20  C11 UNL     1      27.538  -3.026   8.923  1.00  0.00     0.065 C 
BRANCH  20  21
HETATM   21  C12 UNL     1      27.791  -2.285  10.177  1.00  0.00     0.144 C 
BRANCH  21  22
HETATM   22  O2  UNL     1      26.857  -1.299  10.369  1.00  0.00    -0.393 OA
ATOM     23  H2  UNL     1      27.213  -0.443  10.163  1.00  0.00     0.210 HD
ENDBRANCH  21  22
BRANCH  21  24
HETATM   24  C13 UNL     1      27.943  -3.185  11.387  1.00  0.00     0.195 C 
BRANCH  24  25
HETATM   25  O3  UNL     1      29.085  -3.972  11.318  1.00  0.00    -0.398 OA
ATOM     26  H3  UNL     1      29.559  -3.848  10.505  1.00  0.00     0.209 HD
ENDBRANCH  24  25
ENDBRANCH  21  24
ENDBRANCH  20  21
ENDBRANCH  17  20
ENDBRANCH  16  17
ENDBRANCH  15  16
ENDBRANCH  14  15
ENDBRANCH   3  14
BRANCH   3  27
HETATM   27  O4  UNL     1      30.350  -1.132   3.652  1.00  0.00    -0.382 OA
HETATM   28  C14 UNL     1      31.523  -1.274   3.056  1.00  0.00     0.202 C 
ENDBRANCH   3  27
BRANCH   1  29
HETATM   29  C3  UNL     1      26.567   0.348   4.751  1.00  0.00    -0.026 C 
HETATM   30  C2  UNL     1      25.485   0.088   4.030  1.00  0.00    -0.035 C 
HETATM   31  C1  UNL     1      25.615  -0.564   2.704  1.00  0.00     0.036 C 
ENDBRANCH   1  29
BRANCH  13  32
HETATM   32  O9  UNL     1      31.739   2.177   7.491  1.00  0.00    -0.387 OA
ATOM     33  H9  UNL     1      32.460   2.048   6.885  1.00  0.00     0.210 HD
ENDBRANCH  13  32
BRANCH  11  34
HETATM   34  O7  UNL     1      31.078   5.785   5.115  1.00  0.00    -0.368 OA
ATOM     35  H7  UNL     1      31.007   6.561   5.660  1.00  0.00     0.212 HD
ENDBRANCH  11  34
BRANCH  12  36
HETATM   36  O8  UNL     1      30.088   5.192   7.462  1.00  0.00    -0.388 OA
ATOM     37  H8  UNL     1      30.348   6.001   7.887  1.00  0.00     0.210 HD
ENDBRANCH  12  36
TORSDOF 15
ENDMDL
