MODEL 1
REMARK VINA RESULT: -7.041012251      0.000      0.000
REMARK  15 active torsions:
REMARK  status: ('A' for Active; 'I' for Inactive)
REMARK    1  A    between atoms: C2_2  and  C3_3 
REMARK    2  A    between atoms: C3_3  and  C4_4 
REMARK    3  A    between atoms: C4_4  and  C5_5 
REMARK    4  A    between atoms: C5_5  and  C6_6 
REMARK    5  A    between atoms: C6_6  and  C7_7 
REMARK    6  A    between atoms: C9_9  and  O1_10 
REMARK    7  A    between atoms: O1_10  and  C10_11 
REMARK    8  A    between atoms: C11_13  and  C12_14 
REMARK    9  A    between atoms: C12_14  and  O3_15 
REMARK   10  A    between atoms: C13_17  and  O4_18 
REMARK   11  A    between atoms: C14_20  and  O5_21 
REMARK   12  A    between atoms: C14_20  and  C15_23 
REMARK   13  A    between atoms: C15_23  and  O6_24 
REMARK   14  A    between atoms: C19_29  and  O7_30 
REMARK   15  A    between atoms: C19_29  and  C20_32 
ROOT
HETATM    1  O1  UNL     1      31.533  -1.273   9.232  1.00  0.00    -0.355 OA
ENDROOT
BRANCH   1   2
HETATM    2  C9  UNL     1      30.843  -1.833   8.164  1.00  0.00     0.132 C 
HETATM    3  C8  UNL     1      30.839  -0.821   7.050  1.00  0.00     0.064 C 
HETATM    4  C7  UNL     1      29.547  -0.758   6.292  1.00  0.00     0.128 C 
HETATM    5  O10 UNL     1      28.904  -1.953   6.161  1.00  0.00    -0.341 OA
HETATM    6  C19 UNL     1      28.636  -2.643   7.292  1.00  0.00     0.256 C 
HETATM    7  C18 UNL     1      29.467  -2.285   8.488  1.00  0.00     0.112 C 
BRANCH   4   8
HETATM    8  C6  UNL     1      29.782  -0.049   4.988  1.00  0.00     0.032 C 
BRANCH   8   9
HETATM    9  C5  UNL     1      28.580   0.040   4.119  1.00  0.00     0.002 C 
BRANCH   9  10
HETATM   10  C4  UNL     1      27.425   0.771   4.718  1.00  0.00     0.000 C 
BRANCH  10  11
HETATM   11  C3  UNL     1      26.091   0.146   4.377  1.00  0.00    -0.000 C 
BRANCH  11  12
HETATM   12  C2  UNL     1      26.130  -0.593   3.055  1.00  0.00    -0.005 C 
HETATM   13  C1  UNL     1      25.076   0.066   2.168  1.00  0.00     0.005 C 
ENDBRANCH  11  12
ENDBRANCH  10  11
ENDBRANCH   9  10
ENDBRANCH   8   9
ENDBRANCH   4   8
BRANCH   6  14
HETATM   14  O7  UNL     1      28.909  -4.009   7.026  1.00  0.00    -0.357 OA
ATOM     15  H7  UNL     1      28.681  -4.479   7.820  1.00  0.00     0.213 HD
ENDBRANCH   6  14
BRANCH   6  16
HETATM   16  C20 UNL     1      27.178  -2.566   7.574  1.00  0.00     0.238 C 
HETATM   17  O8  UNL     1      26.511  -3.601   7.879  1.00  0.00    -0.644 OA
HETATM   18  O9  UNL     1      26.456  -1.380   7.524  1.00  0.00    -0.644 OA
ENDBRANCH   6  16
ENDBRANCH   1   2
BRANCH   1  19
HETATM   19  C10 UNL     1      31.945  -2.176  10.186  1.00  0.00     0.267 C 
HETATM   20  O2  UNL     1      33.322  -2.413  10.042  1.00  0.00    -0.351 OA
HETATM   21  C11 UNL     1      33.642  -3.593  10.711  1.00  0.00     0.180 C 
HETATM   22  C13 UNL     1      33.336  -3.539  12.168  1.00  0.00     0.186 C 
HETATM   23  C14 UNL     1      32.047  -2.882  12.520  1.00  0.00     0.115 C 
HETATM   24  C16 UNL     1      31.756  -1.721  11.610  1.00  0.00     0.076 C 
HETATM   25  C17 UNL     1      30.371  -1.195  11.776  1.00  0.00     0.018 C 
BRANCH  21  26
HETATM   26  C12 UNL     1      35.150  -3.797  10.553  1.00  0.00     0.198 C 
BRANCH  26  27
HETATM   27  O3  UNL     1      35.470  -5.156  10.731  1.00  0.00    -0.398 OA
ATOM     28  H3  UNL     1      36.330  -5.335  10.371  1.00  0.00     0.209 HD
ENDBRANCH  26  27
ENDBRANCH  21  26
BRANCH  22  29
HETATM   29  O4  UNL     1      33.401  -4.837  12.683  1.00  0.00    -0.390 OA
ATOM     30  H4  UNL     1      33.710  -4.791  13.581  1.00  0.00     0.210 HD
ENDBRANCH  22  29
BRANCH  23  31
HETATM   31  O5  UNL     1      32.157  -2.391  13.835  1.00  0.00    -0.384 OA
ATOM     32  H5  UNL     1      32.099  -3.130  14.430  1.00  0.00     0.210 HD
ENDBRANCH  23  31
BRANCH  23  33
HETATM   33  C15 UNL     1      30.876  -3.839  12.511  1.00  0.00     0.205 C 
BRANCH  33  34
HETATM   34  O6  UNL     1      30.775  -4.551  13.694  1.00  0.00    -0.398 OA
ATOM     35  H6  UNL     1      29.984  -4.337  14.174  1.00  0.00     0.209 HD
ENDBRANCH  33  34
ENDBRANCH  23  33
ENDBRANCH   1  19
TORSDOF 15
ENDMDL
MODEL 2
REMARK VINA RESULT: -7.005397909      1.015      1.600
REMARK  15 active torsions:
REMARK  status: ('A' for Active; 'I' for Inactive)
REMARK    1  A    between atoms: C2_2  and  C3_3 
REMARK    2  A    between atoms: C3_3  and  C4_4 
REMARK    3  A    between atoms: C4_4  and  C5_5 
REMARK    4  A    between atoms: C5_5  and  C6_6 
REMARK    5  A    between atoms: C6_6  and  C7_7 
REMARK    6  A    between atoms: C9_9  and  O1_10 
REMARK    7  A    between atoms: O1_10  and  C10_11 
REMARK    8  A    between atoms: C11_13  and  C12_14 
REMARK    9  A    between atoms: C12_14  and  O3_15 
REMARK   10  A    between atoms: C13_17  and  O4_18 
REMARK   11  A    between atoms: C14_20  and  O5_21 
REMARK   12  A    between atoms: C14_20  and  C15_23 
REMARK   13  A    between atoms: C15_23  and  O6_24 
REMARK   14  A    between atoms: C19_29  and  O7_30 
REMARK   15  A    between atoms: C19_29  and  C20_32 
ROOT
HETATM    1  O1  UNL     1      31.435  -1.308   9.334  1.00  0.00    -0.355 OA
ENDROOT
BRANCH   1   2
HETATM    2  C9  UNL     1      30.820  -1.891   8.233  1.00  0.00     0.132 C 
HETATM    3  C8  UNL     1      30.929  -0.920   7.089  1.00  0.00     0.064 C 
HETATM    4  C7  UNL     1      29.704  -0.857   6.227  1.00  0.00     0.128 C 
HETATM    5  O10 UNL     1      29.046  -2.043   6.085  1.00  0.00    -0.341 OA
HETATM    6  C19 UNL     1      28.672  -2.687   7.213  1.00  0.00     0.256 C 
HETATM    7  C18 UNL     1      29.412  -2.303   8.460  1.00  0.00     0.112 C 
BRANCH   4   8
HETATM    8  C6  UNL     1      30.059  -0.200   4.923  1.00  0.00     0.032 C 
BRANCH   8   9
HETATM    9  C5  UNL     1      28.885   0.196   4.102  1.00  0.00     0.002 C 
BRANCH   9  10
HETATM   10  C4  UNL     1      27.921   1.107   4.785  1.00  0.00     0.000 C 
BRANCH  10  11
HETATM   11  C3  UNL     1      28.480   2.495   5.010  1.00  0.00    -0.000 C 
BRANCH  11  12
HETATM   12  C2  UNL     1      28.544   2.850   6.481  1.00  0.00    -0.005 C 
HETATM   13  C1  UNL     1      27.429   2.059   7.159  1.00  0.00     0.005 C 
ENDBRANCH  11  12
ENDBRANCH  10  11
ENDBRANCH   9  10
ENDBRANCH   8   9
ENDBRANCH   4   8
BRANCH   6  14
HETATM   14  O7  UNL     1      28.933  -4.066   7.017  1.00  0.00    -0.357 OA
ATOM     15  H7  UNL     1      28.236  -4.386   6.457  1.00  0.00     0.213 HD
ENDBRANCH   6  14
BRANCH   6  16
HETATM   16  C20 UNL     1      27.198  -2.569   7.373  1.00  0.00     0.238 C 
HETATM   17  O8  UNL     1      26.522  -3.485   7.936  1.00  0.00    -0.644 OA
HETATM   18  O9  UNL     1      26.470  -1.473   6.928  1.00  0.00    -0.644 OA
ENDBRANCH   6  16
ENDBRANCH   1   2
BRANCH   1  19
HETATM   19  C10 UNL     1      31.863  -2.199  10.292  1.00  0.00     0.267 C 
HETATM   20  O2  UNL     1      33.244  -2.411  10.151  1.00  0.00    -0.351 OA
HETATM   21  C11 UNL     1      33.585  -3.582  10.825  1.00  0.00     0.180 C 
HETATM   22  C13 UNL     1      33.277  -3.528  12.281  1.00  0.00     0.186 C 
HETATM   23  C14 UNL     1      31.976  -2.893  12.630  1.00  0.00     0.115 C 
HETATM   24  C16 UNL     1      31.664  -1.741  11.714  1.00  0.00     0.076 C 
HETATM   25  C17 UNL     1      30.270  -1.239  11.877  1.00  0.00     0.018 C 
BRANCH  21  26
HETATM   26  C12 UNL     1      35.096  -3.760  10.668  1.00  0.00     0.198 C 
BRANCH  26  27
HETATM   27  O3  UNL     1      35.417  -5.131  10.655  1.00  0.00    -0.398 OA
ATOM     28  H3  UNL     1      36.219  -5.269  10.165  1.00  0.00     0.209 HD
ENDBRANCH  26  27
ENDBRANCH  21  26
BRANCH  22  29
HETATM   29  O4  UNL     1      33.364  -4.823  12.802  1.00  0.00    -0.390 OA
ATOM     30  H4  UNL     1      32.543  -5.030  13.234  1.00  0.00     0.210 HD
ENDBRANCH  22  29
BRANCH  23  31
HETATM   31  O5  UNL     1      32.075  -2.394  13.943  1.00  0.00    -0.384 OA
ATOM     32  H5  UNL     1      31.316  -2.696  14.428  1.00  0.00     0.210 HD
ENDBRANCH  23  31
BRANCH  23  33
HETATM   33  C15 UNL     1      30.821  -3.871  12.623  1.00  0.00     0.205 C 
BRANCH  33  34
HETATM   34  O6  UNL     1      30.728  -4.573  13.812  1.00  0.00    -0.398 OA
ATOM     35  H6  UNL     1      29.890  -5.012  13.904  1.00  0.00     0.209 HD
ENDBRANCH  33  34
ENDBRANCH  23  33
ENDBRANCH   1  19
TORSDOF 15
ENDMDL
MODEL 3
REMARK VINA RESULT: -6.946283061      1.681      2.541
REMARK  15 active torsions:
REMARK  status: ('A' for Active; 'I' for Inactive)
REMARK    1  A    between atoms: C2_2  and  C3_3 
REMARK    2  A    between atoms: C3_3  and  C4_4 
REMARK    3  A    between atoms: C4_4  and  C5_5 
REMARK    4  A    between atoms: C5_5  and  C6_6 
REMARK    5  A    between atoms: C6_6  and  C7_7 
REMARK    6  A    between atoms: C9_9  and  O1_10 
REMARK    7  A    between atoms: O1_10  and  C10_11 
REMARK    8  A    between atoms: C11_13  and  C12_14 
REMARK    9  A    between atoms: C12_14  and  O3_15 
REMARK   10  A    between atoms: C13_17  and  O4_18 
REMARK   11  A    between atoms: C14_20  and  O5_21 
REMARK   12  A    between atoms: C14_20  and  C15_23 
REMARK   13  A    between atoms: C15_23  and  O6_24 
REMARK   14  A    between atoms: C19_29  and  O7_30 
REMARK   15  A    between atoms: C19_29  and  C20_32 
ROOT
HETATM    1  O1  UNL     1      31.706  -0.901   8.121  1.00  0.00    -0.355 OA
ENDROOT
BRANCH   1   2
HETATM    2  C9  UNL     1      30.818  -1.631   7.340  1.00  0.00     0.132 C 
HETATM    3  C8  UNL     1      30.311  -0.716   6.259  1.00  0.00     0.064 C 
HETATM    4  C7  UNL     1      28.855  -0.894   5.948  1.00  0.00     0.128 C 
HETATM    5  O10 UNL     1      28.402  -2.175   6.057  1.00  0.00    -0.341 OA
HETATM    6  C19 UNL     1      28.608  -2.811   7.232  1.00  0.00     0.256 C 
HETATM    7  C18 UNL     1      29.700  -2.249   8.095  1.00  0.00     0.112 C 
BRANCH   4   8
HETATM    8  C6  UNL     1      28.561  -0.258   4.619  1.00  0.00     0.032 C 
BRANCH   8   9
HETATM    9  C5  UNL     1      27.719   0.965   4.702  1.00  0.00     0.002 C 
BRANCH   9  10
HETATM   10  C4  UNL     1      28.470   2.251   4.607  1.00  0.00     0.000 C 
BRANCH  10  11
HETATM   11  C3  UNL     1      28.723   2.887   5.955  1.00  0.00    -0.000 C 
BRANCH  11  12
HETATM   12  C2  UNL     1      27.756   2.389   7.010  1.00  0.00    -0.005 C 
HETATM   13  C1  UNL     1      28.075   3.169   8.283  1.00  0.00     0.005 C 
ENDBRANCH  11  12
ENDBRANCH  10  11
ENDBRANCH   9  10
ENDBRANCH   8   9
ENDBRANCH   4   8
BRANCH   6  14
HETATM   14  O7  UNL     1      28.999  -4.139   6.929  1.00  0.00    -0.357 OA
ATOM     15  H7  UNL     1      28.362  -4.461   6.302  1.00  0.00     0.213 HD
ENDBRANCH   6  14
BRANCH   6  16
HETATM   16  C20 UNL     1      27.315  -2.921   7.958  1.00  0.00     0.238 C 
HETATM   17  O8  UNL     1      26.487  -3.844   7.690  1.00  0.00    -0.644 OA
HETATM   18  O9  UNL     1      26.929  -2.041   8.962  1.00  0.00    -0.644 OA
ENDBRANCH   6  16
ENDBRANCH   1   2
BRANCH   1  19
HETATM   19  C10 UNL     1      31.696  -1.225   9.459  1.00  0.00     0.267 C 
HETATM   20  O2  UNL     1      32.867  -1.932   9.778  1.00  0.00    -0.351 OA
HETATM   21  C11 UNL     1      32.670  -2.596  10.987  1.00  0.00     0.180 C 
HETATM   22  C13 UNL     1      32.369  -1.673  12.118  1.00  0.00     0.186 C 
HETATM   23  C14 UNL     1      31.441  -0.555  11.792  1.00  0.00     0.115 C 
HETATM   24  C16 UNL     1      31.664  -0.045  10.395  1.00  0.00     0.076 C 
HETATM   25  C17 UNL     1      30.601   0.902   9.953  1.00  0.00     0.018 C 
BRANCH  21  26
HETATM   26  C12 UNL     1      33.974  -3.328  11.309  1.00  0.00     0.198 C 
BRANCH  26  27
HETATM   27  O3  UNL     1      33.713  -4.416  12.163  1.00  0.00    -0.398 OA
ATOM     28  H3  UNL     1      34.276  -5.146  11.936  1.00  0.00     0.209 HD
ENDBRANCH  26  27
ENDBRANCH  21  26
BRANCH  22  29
HETATM   29  O4  UNL     1      31.894  -2.429  13.194  1.00  0.00    -0.390 OA
ATOM     30  H4  UNL     1      32.164  -2.007  14.001  1.00  0.00     0.210 HD
ENDBRANCH  22  29
BRANCH  23  31
HETATM   31  O5  UNL     1      31.700   0.499  12.690  1.00  0.00    -0.384 OA
ATOM     32  H5  UNL     1      30.880   0.737  13.106  1.00  0.00     0.210 HD
ENDBRANCH  23  31
BRANCH  23  33
HETATM   33  C15 UNL     1      29.985  -0.927  11.969  1.00  0.00     0.205 C 
BRANCH  33  34
HETATM   34  O6  UNL     1      29.530  -0.655  13.247  1.00  0.00    -0.398 OA
ATOM     35  H6  UNL     1      28.690  -1.066  13.423  1.00  0.00     0.209 HD
ENDBRANCH  33  34
ENDBRANCH  23  33
ENDBRANCH   1  19
TORSDOF 15
ENDMDL
MODEL 4
REMARK VINA RESULT: -6.942782272      1.696      2.396
REMARK  15 active torsions:
REMARK  status: ('A' for Active; 'I' for Inactive)
REMARK    1  A    between atoms: C2_2  and  C3_3 
REMARK    2  A    between atoms: C3_3  and  C4_4 
REMARK    3  A    between atoms: C4_4  and  C5_5 
REMARK    4  A    between atoms: C5_5  and  C6_6 
REMARK    5  A    between atoms: C6_6  and  C7_7 
REMARK    6  A    between atoms: C9_9  and  O1_10 
REMARK    7  A    between atoms: O1_10  and  C10_11 
REMARK    8  A    between atoms: C11_13  and  C12_14 
REMARK    9  A    between atoms: C12_14  and  O3_15 
REMARK   10  A    between atoms: C13_17  and  O4_18 
REMARK   11  A    between atoms: C14_20  and  O5_21 
REMARK   12  A    between atoms: C14_20  and  C15_23 
REMARK   13  A    between atoms: C15_23  and  O6_24 
REMARK   14  A    between atoms: C19_29  and  O7_30 
REMARK   15  A    between atoms: C19_29  and  C20_32 
ROOT
HETATM    1  O1  UNL     1      30.352  -1.144   9.515  1.00  0.00    -0.355 OA
ENDROOT
BRANCH   1   2
HETATM    2  C9  UNL     1      29.918  -1.680   8.309  1.00  0.00     0.132 C 
HETATM    3  C8  UNL     1      30.850  -1.188   7.235  1.00  0.00     0.064 C 
HETATM    4  C7  UNL     1      30.164  -0.843   5.947  1.00  0.00     0.128 C 
HETATM    5  O10 UNL     1      29.092  -1.630   5.645  1.00  0.00    -0.341 OA
HETATM    6  C19 UNL     1      28.112  -1.731   6.570  1.00  0.00     0.256 C 
HETATM    7  C18 UNL     1      28.503  -1.381   7.975  1.00  0.00     0.112 C 
BRANCH   4   8
HETATM    8  C6  UNL     1      31.191  -0.771   4.853  1.00  0.00     0.032 C 
BRANCH   8   9
HETATM    9  C5  UNL     1      30.780   0.052   3.686  1.00  0.00     0.002 C 
BRANCH   9  10
HETATM   10  C4  UNL     1      30.437   1.469   4.007  1.00  0.00     0.000 C 
BRANCH  10  11
HETATM   11  C3  UNL     1      28.977   1.789   3.776  1.00  0.00    -0.000 C 
BRANCH  11  12
HETATM   12  C2  UNL     1      28.300   2.295   5.033  1.00  0.00    -0.005 C 
HETATM   13  C1  UNL     1      29.227   3.357   5.618  1.00  0.00     0.005 C 
ENDBRANCH  11  12
ENDBRANCH  10  11
ENDBRANCH   9  10
ENDBRANCH   8   9
ENDBRANCH   4   8
BRANCH   6  14
HETATM   14  O7  UNL     1      27.706  -3.089   6.608  1.00  0.00    -0.357 OA
ATOM     15  H7  UNL     1      27.876  -3.435   5.739  1.00  0.00     0.213 HD
ENDBRANCH   6  14
BRANCH   6  16
HETATM   16  C20 UNL     1      26.926  -0.963   6.106  1.00  0.00     0.238 C 
HETATM   17  O8  UNL     1      26.130  -0.420   6.932  1.00  0.00    -0.644 OA
HETATM   18  O9  UNL     1      26.610  -0.788   4.764  1.00  0.00    -0.644 OA
ENDBRANCH   6  16
ENDBRANCH   1   2
BRANCH   1  19
HETATM   19  C10 UNL     1      30.536  -2.064  10.521  1.00  0.00     0.267 C 
HETATM   20  O2  UNL     1      31.904  -2.171  10.815  1.00  0.00    -0.351 OA
HETATM   21  C11 UNL     1      32.119  -3.358  11.512  1.00  0.00     0.180 C 
HETATM   22  C13 UNL     1      31.369  -3.423  12.798  1.00  0.00     0.186 C 
HETATM   23  C14 UNL     1      29.974  -2.904  12.743  1.00  0.00     0.115 C 
HETATM   24  C16 UNL     1      29.865  -1.718  11.825  1.00  0.00     0.076 C 
HETATM   25  C17 UNL     1      28.451  -1.326  11.560  1.00  0.00     0.018 C 
BRANCH  21  26
HETATM   26  C12 UNL     1      33.613  -3.420  11.835  1.00  0.00     0.198 C 
BRANCH  26  27
HETATM   27  O3  UNL     1      33.942  -4.692  12.339  1.00  0.00    -0.398 OA
ATOM     28  H3  UNL     1      34.866  -4.725  12.553  1.00  0.00     0.209 HD
ENDBRANCH  26  27
ENDBRANCH  21  26
BRANCH  22  29
HETATM   29  O4  UNL     1      31.402  -4.740  13.265  1.00  0.00    -0.390 OA
ATOM     30  H4  UNL     1      32.282  -4.931  13.568  1.00  0.00     0.210 HD
ENDBRANCH  22  29
BRANCH  23  31
HETATM   31  O5  UNL     1      29.615  -2.488  14.040  1.00  0.00    -0.384 OA
ATOM     32  H5  UNL     1      28.969  -1.796  13.957  1.00  0.00     0.210 HD
ENDBRANCH  23  31
BRANCH  23  33
HETATM   33  C15 UNL     1      28.969  -3.957  12.332  1.00  0.00     0.205 C 
BRANCH  33  34
HETATM   34  O6  UNL     1      28.524  -4.702  13.410  1.00  0.00    -0.398 OA
ATOM     35  H6  UNL     1      28.225  -5.566  13.150  1.00  0.00     0.209 HD
ENDBRANCH  33  34
ENDBRANCH  23  33
ENDBRANCH   1  19
TORSDOF 15
ENDMDL
MODEL 5
REMARK VINA RESULT: -6.897908175      3.191      5.028
REMARK  15 active torsions:
REMARK  status: ('A' for Active; 'I' for Inactive)
REMARK    1  A    between atoms: C2_2  and  C3_3 
REMARK    2  A    between atoms: C3_3  and  C4_4 
REMARK    3  A    between atoms: C4_4  and  C5_5 
REMARK    4  A    between atoms: C5_5  and  C6_6 
REMARK    5  A    between atoms: C6_6  and  C7_7 
REMARK    6  A    between atoms: C9_9  and  O1_10 
REMARK    7  A    between atoms: O1_10  and  C10_11 
REMARK    8  A    between atoms: C11_13  and  C12_14 
REMARK    9  A    between atoms: C12_14  and  O3_15 
REMARK   10  A    between atoms: C13_17  and  O4_18 
REMARK   11  A    between atoms: C14_20  and  O5_21 
REMARK   12  A    between atoms: C14_20  and  C15_23 
REMARK   13  A    between atoms: C15_23  and  O6_24 
REMARK   14  A    between atoms: C19_29  and  O7_30 
REMARK   15  A    between atoms: C19_29  and  C20_32 
ROOT
HETATM    1  O1  UNL     1      30.049  -1.344   6.969  1.00  0.00    -0.355 OA
ENDROOT
BRANCH   1   2
HETATM    2  C9  UNL     1      29.495  -0.374   6.142  1.00  0.00     0.132 C 
HETATM    3  C8  UNL     1      29.055   0.767   7.018  1.00  0.00     0.064 C 
HETATM    4  C7  UNL     1      27.755   1.386   6.600  1.00  0.00     0.128 C 
HETATM    5  O10 UNL     1      27.541   1.407   5.253  1.00  0.00    -0.341 OA
HETATM    6  C19 UNL     1      27.621   0.231   4.591  1.00  0.00     0.256 C 
HETATM    7  C18 UNL     1      28.385  -0.858   5.284  1.00  0.00     0.112 C 
BRANCH   4   8
HETATM    8  C6  UNL     1      27.623   2.732   7.256  1.00  0.00     0.032 C 
BRANCH   8   9
HETATM    9  C5  UNL     1      28.317   2.840   8.566  1.00  0.00     0.002 C 
BRANCH   9  10
HETATM   10  C4  UNL     1      29.101   4.095   8.758  1.00  0.00     0.000 C 
BRANCH  10  11
HETATM   11  C3  UNL     1      28.691   5.197   7.807  1.00  0.00    -0.000 C 
BRANCH  11  12
HETATM   12  C2  UNL     1      29.886   5.832   7.123  1.00  0.00    -0.005 C 
HETATM   13  C1  UNL     1      29.935   5.239   5.717  1.00  0.00     0.005 C 
ENDBRANCH  11  12
ENDBRANCH  10  11
ENDBRANCH   9  10
ENDBRANCH   8   9
ENDBRANCH   4   8
BRANCH   6  14
HETATM   14  O7  UNL     1      28.311   0.477   3.378  1.00  0.00    -0.357 OA
ATOM     15  H7  UNL     1      27.838   1.178   2.947  1.00  0.00     0.213 HD
ENDBRANCH   6  14
BRANCH   6  16
HETATM   16  C20 UNL     1      26.251  -0.200   4.202  1.00  0.00     0.238 C 
HETATM   17  O8  UNL     1      26.050  -0.880   3.149  1.00  0.00    -0.644 OA
HETATM   18  O9  UNL     1      25.118   0.104   4.946  1.00  0.00    -0.644 OA
ENDBRANCH   6  16
ENDBRANCH   1   2
BRANCH   1  19
HETATM   19  C10 UNL     1      29.840  -1.139   8.314  1.00  0.00     0.267 C 
HETATM   20  O2  UNL     1      28.891  -2.059   8.787  1.00  0.00    -0.351 OA
HETATM   21  C11 UNL     1      28.392  -1.598  10.004  1.00  0.00     0.180 C 
HETATM   22  C13 UNL     1      29.444  -1.448  11.048  1.00  0.00     0.186 C 
HETATM   23  C14 UNL     1      30.730  -0.867  10.572  1.00  0.00     0.115 C 
HETATM   24  C16 UNL     1      31.060  -1.330   9.179  1.00  0.00     0.076 C 
HETATM   25  C17 UNL     1      32.205  -0.584   8.583  1.00  0.00     0.018 C 
BRANCH  21  26
HETATM   26  C12 UNL     1      27.385  -2.640  10.494  1.00  0.00     0.198 C 
BRANCH  26  27
HETATM   27  O3  UNL     1      27.964  -3.423  11.511  1.00  0.00    -0.398 OA
ATOM     28  H3  UNL     1      28.045  -2.910  12.306  1.00  0.00     0.209 HD
ENDBRANCH  26  27
ENDBRANCH  21  26
BRANCH  22  29
HETATM   29  O4  UNL     1      28.915  -0.707  12.108  1.00  0.00    -0.390 OA
ATOM     30  H4  UNL     1      28.909  -1.254  12.885  1.00  0.00     0.210 HD
ENDBRANCH  22  29
BRANCH  23  31
HETATM   31  O5  UNL     1      31.751  -1.309  11.434  1.00  0.00    -0.384 OA
ATOM     32  H5  UNL     1      31.460  -1.171  12.328  1.00  0.00     0.210 HD
ENDBRANCH  23  31
BRANCH  23  33
HETATM   33  C15 UNL     1      30.746   0.645  10.619  1.00  0.00     0.205 C 
BRANCH  33  34
HETATM   34  O6  UNL     1      31.121   1.123  11.863  1.00  0.00    -0.398 OA
ATOM     35  H6  UNL     1      30.371   1.376  12.390  1.00  0.00     0.209 HD
ENDBRANCH  33  34
ENDBRANCH  23  33
ENDBRANCH   1  19
TORSDOF 15
ENDMDL
