MODEL 1
REMARK VINA RESULT: -8.109939501      0.000      0.000
REMARK  17 active torsions:
REMARK  status: ('A' for Active; 'I' for Inactive)
REMARK    1  A    between atoms: C3_3  and  C4_4 
REMARK    2  A    between atoms: C4_4  and  N1_5 
REMARK       I    between atoms: N1_5  and  C5_7 
REMARK       I    between atoms: C5_7  and  N2_8 
REMARK    3  A    between atoms: N3_11  and  C6_13 
REMARK    4  A    between atoms: C6_13  and  C7_14 
REMARK    5  A    between atoms: C7_14  and  C8_15 
REMARK    6  A    between atoms: C8_15  and  C9_16 
REMARK    7  A    between atoms: C9_16  and  N4_17 
REMARK    8  A    between atoms: N6_21  and  C12_22 
REMARK    9  A    between atoms: C12_22  and  C13_23 
REMARK   10  A    between atoms: C13_23  and  C14_24 
REMARK       I    between atoms: C14_24  and  N7_26 
REMARK   11  A    between atoms: N7_26  and  C15_27 
REMARK   12  A    between atoms: C15_27  and  C16_28 
REMARK   13  A    between atoms: C16_28  and  C17_29 
REMARK   14  A    between atoms: C17_29  and  N8_30 
REMARK   15  A    between atoms: N8_30  and  C18_32 
REMARK   16  A    between atoms: C18_32  and  C19_33 
REMARK   17  A    between atoms: C19_33  and  C20_34 
ROOT
HETATM    1  C1  UNL     1     -40.202  20.411 -11.859  1.00  0.00     0.012 C 
HETATM    2  C2  UNL     1     -41.254  20.077 -12.353  1.00  0.00    -0.116 C 
HETATM    3  C3  UNL     1     -42.491  19.659 -12.976  1.00  0.00     0.113 C 
ENDROOT
BRANCH   3   4
HETATM    4  C4  UNL     1     -43.708  20.414 -12.577  1.00  0.00     0.150 C 
BRANCH   4   5
HETATM    5  N1  UNL     1     -43.556  21.840 -12.798  1.00  0.00    -0.226 N 
HETATM    6  C5  UNL     1     -43.624  22.503 -14.022  1.00  0.00     0.667 C 
HETATM    7  N2  UNL     1     -44.716  22.244 -14.765  1.00  0.00    -0.235 N 
HETATM    8  N3  UNL     1     -42.676  23.322 -14.566  1.00  0.00    -0.227 N 
ATOM      9  H22 UNL     1     -45.424  21.632 -14.359  1.00  0.00     0.174 HD
ATOM     10  H21 UNL     1     -44.766  22.728 -15.661  1.00  0.00     0.174 HD
ATOM     11  H3  UNL     1     -42.792  23.630 -15.530  1.00  0.00     0.177 HD
ATOM     12  H1  UNL     1     -43.383  22.416 -11.974  1.00  0.00     0.177 HD
BRANCH   8  13
HETATM   13  C6  UNL     1     -41.484  23.783 -13.810  1.00  0.00     0.138 C 
BRANCH  13  14
HETATM   14  C7  UNL     1     -40.815  24.858 -14.642  1.00  0.00     0.022 C 
BRANCH  14  15
HETATM   15  C8  UNL     1     -41.787  25.721 -15.360  1.00  0.00     0.030 C 
BRANCH  15  16
HETATM   16  C9  UNL     1     -41.347  27.143 -15.421  1.00  0.00     0.239 C 
BRANCH  16  17
HETATM   17  N4  UNL     1     -42.265  27.980 -16.170  1.00  0.00    -0.038 N 
HETATM   18  C10 UNL     1     -42.913  28.996 -15.418  1.00  0.00     0.257 C 
HETATM   19  C11 UNL     1     -43.078  30.288 -16.156  1.00  0.00     0.170 C 
HETATM   20  N5  UNL     1     -43.212  30.189 -17.577  1.00  0.00    -0.043 NA
HETATM   21  N6  UNL     1     -42.922  28.924 -18.105  1.00  0.00     0.037 N 
HETATM   22  C22 UNL     1     -43.957  28.020 -17.741  1.00  0.00     0.290 C 
HETATM   23  C24 UNL     1     -41.703  28.497 -17.374  1.00  0.00     0.496 C 
HETATM   24  C23 UNL     1     -43.310  27.105 -16.697  1.00  0.00     0.269 C 
BRANCH  21  25
HETATM   25  C12 UNL     1     -42.550  29.010 -19.465  1.00  0.00     0.273 C 
BRANCH  25  26
HETATM   26  C13 UNL     1     -42.707  30.302 -20.181  1.00  0.00     0.148 C 
BRANCH  26  27
HETATM   27  C14 UNL     1     -43.938  30.131 -21.080  1.00  0.00     0.288 C 
HETATM   28  O1  UNL     1     -44.986  30.470 -20.651  1.00  0.00    -0.258 OA
HETATM   29  N7  UNL     1     -43.595  29.558 -22.359  1.00  0.00    -0.415 NA
BRANCH  29  30
HETATM   30  C15 UNL     1     -43.297  29.049 -23.496  1.00  0.00     0.227 C 
BRANCH  30  31
HETATM   31  C16 UNL     1     -42.986  30.131 -24.543  1.00  0.00     0.078 C 
BRANCH  31  32
HETATM   32  C17 UNL     1     -42.318  29.647 -25.757  1.00  0.00     0.062 C 
BRANCH  32  33
HETATM   33  N8  UNL     1     -42.578  30.101 -27.030  1.00  0.00    -0.382 N 
ATOM     34  H8  UNL     1     -43.172  29.530 -27.631  1.00  0.00     0.163 HD
BRANCH  33  35
HETATM   35  C18 UNL     1     -42.074  31.306 -27.551  1.00  0.00     0.060 C 
BRANCH  35  36
HETATM   36  C19 UNL     1     -42.206  31.404 -29.071  1.00  0.00     0.044 C 
BRANCH  36  37
HETATM   37  C20 UNL     1     -42.388  32.897 -29.357  1.00  0.00     0.001 C 
HETATM   38  C21 UNL     1     -41.052  33.561 -29.382  1.00  0.00     0.005 C 
ENDBRANCH  36  37
ENDBRANCH  35  36
ENDBRANCH  33  35
ENDBRANCH  32  33
ENDBRANCH  31  32
ENDBRANCH  30  31
ENDBRANCH  29  30
ENDBRANCH  26  27
ENDBRANCH  25  26
ENDBRANCH  21  25
ENDBRANCH  16  17
ENDBRANCH  15  16
ENDBRANCH  14  15
ENDBRANCH  13  14
ENDBRANCH   8  13
ENDBRANCH   4   5
ENDBRANCH   3   4
TORSDOF 17
ENDMDL
MODEL 2
REMARK VINA RESULT: -7.943464846      4.475      6.938
REMARK  17 active torsions:
REMARK  status: ('A' for Active; 'I' for Inactive)
REMARK    1  A    between atoms: C3_3  and  C4_4 
REMARK    2  A    between atoms: C4_4  and  N1_5 
REMARK       I    between atoms: N1_5  and  C5_7 
REMARK       I    between atoms: C5_7  and  N2_8 
REMARK    3  A    between atoms: N3_11  and  C6_13 
REMARK    4  A    between atoms: C6_13  and  C7_14 
REMARK    5  A    between atoms: C7_14  and  C8_15 
REMARK    6  A    between atoms: C8_15  and  C9_16 
REMARK    7  A    between atoms: C9_16  and  N4_17 
REMARK    8  A    between atoms: N6_21  and  C12_22 
REMARK    9  A    between atoms: C12_22  and  C13_23 
REMARK   10  A    between atoms: C13_23  and  C14_24 
REMARK       I    between atoms: C14_24  and  N7_26 
REMARK   11  A    between atoms: N7_26  and  C15_27 
REMARK   12  A    between atoms: C15_27  and  C16_28 
REMARK   13  A    between atoms: C16_28  and  C17_29 
REMARK   14  A    between atoms: C17_29  and  N8_30 
REMARK   15  A    between atoms: N8_30  and  C18_32 
REMARK   16  A    between atoms: C18_32  and  C19_33 
REMARK   17  A    between atoms: C19_33  and  C20_34 
ROOT
HETATM    1  C1  UNL     1     -40.129  21.003 -12.374  1.00  0.00     0.012 C 
HETATM    2  C2  UNL     1     -41.131  20.329 -12.423  1.00  0.00    -0.116 C 
HETATM    3  C3  UNL     1     -42.306  19.487 -12.489  1.00  0.00     0.113 C 
ENDROOT
BRANCH   3   4
HETATM    4  C4  UNL     1     -43.590  20.183 -12.764  1.00  0.00     0.150 C 
BRANCH   4   5
HETATM    5  N1  UNL     1     -43.396  21.598 -13.017  1.00  0.00    -0.226 N 
HETATM    6  C5  UNL     1     -43.960  22.341 -14.052  1.00  0.00     0.667 C 
HETATM    7  N2  UNL     1     -45.295  22.240 -14.182  1.00  0.00    -0.235 N 
HETATM    8  N3  UNL     1     -43.296  23.097 -14.977  1.00  0.00    -0.227 N 
ATOM      9  H22 UNL     1     -45.791  21.676 -13.492  1.00  0.00     0.174 HD
ATOM     10  H21 UNL     1     -45.709  22.784 -14.939  1.00  0.00     0.174 HD
ATOM     11  H3  UNL     1     -43.820  23.477 -15.764  1.00  0.00     0.177 HD
ATOM     12  H1  UNL     1     -42.785  22.100 -12.373  1.00  0.00     0.177 HD
BRANCH   8  13
HETATM   13  C6  UNL     1     -41.843  23.388 -14.882  1.00  0.00     0.138 C 
BRANCH  13  14
HETATM   14  C7  UNL     1     -41.703  24.810 -14.377  1.00  0.00     0.022 C 
BRANCH  14  15
HETATM   15  C8  UNL     1     -41.378  25.776 -15.456  1.00  0.00     0.030 C 
BRANCH  15  16
HETATM   16  C9  UNL     1     -42.577  26.524 -15.929  1.00  0.00     0.239 C 
BRANCH  16  17
HETATM   17  N4  UNL     1     -42.234  27.774 -16.582  1.00  0.00    -0.038 N 
HETATM   18  C10 UNL     1     -40.844  28.021 -16.728  1.00  0.00     0.257 C 
HETATM   19  C11 UNL     1     -40.474  28.672 -18.024  1.00  0.00     0.170 C 
HETATM   20  N5  UNL     1     -41.466  29.524 -18.606  1.00  0.00    -0.043 NA
HETATM   21  N6  UNL     1     -42.733  29.437 -18.014  1.00  0.00     0.037 N 
HETATM   22  C22 UNL     1     -42.685  30.034 -16.725  1.00  0.00     0.290 C 
HETATM   23  C24 UNL     1     -42.936  27.982 -17.805  1.00  0.00     0.496 C 
HETATM   24  C23 UNL     1     -42.777  28.850 -15.757  1.00  0.00     0.269 C 
BRANCH  21  25
HETATM   25  C12 UNL     1     -43.746  29.847 -18.909  1.00  0.00     0.273 C 
BRANCH  25  26
HETATM   26  C13 UNL     1     -45.129  29.339 -18.725  1.00  0.00     0.148 C 
BRANCH  26  27
HETATM   27  C14 UNL     1     -46.046  30.553 -18.919  1.00  0.00     0.288 C 
HETATM   28  O1  UNL     1     -46.928  30.459 -19.699  1.00  0.00    -0.258 OA
HETATM   29  N7  UNL     1     -45.659  31.659 -18.076  1.00  0.00    -0.415 NA
BRANCH  29  30
HETATM   30  C15 UNL     1     -45.321  32.645 -17.332  1.00  0.00     0.227 C 
BRANCH  30  31
HETATM   31  C16 UNL     1     -46.386  32.947 -16.265  1.00  0.00     0.078 C 
BRANCH  31  32
HETATM   32  C17 UNL     1     -46.717  31.824 -15.380  1.00  0.00     0.062 C 
BRANCH  32  33
HETATM   33  N8  UNL     1     -45.827  30.856 -14.975  1.00  0.00    -0.382 N 
ATOM     34  H8  UNL     1     -45.660  30.066 -15.599  1.00  0.00     0.163 HD
BRANCH  33  35
HETATM   35  C18 UNL     1     -45.134  30.890 -13.752  1.00  0.00     0.060 C 
BRANCH  35  36
HETATM   36  C19 UNL     1     -43.909  31.803 -13.781  1.00  0.00     0.044 C 
BRANCH  36  37
HETATM   37  C20 UNL     1     -43.940  32.550 -12.445  1.00  0.00     0.001 C 
HETATM   38  C21 UNL     1     -43.484  31.637 -11.358  1.00  0.00     0.005 C 
ENDBRANCH  36  37
ENDBRANCH  35  36
ENDBRANCH  33  35
ENDBRANCH  32  33
ENDBRANCH  31  32
ENDBRANCH  30  31
ENDBRANCH  29  30
ENDBRANCH  26  27
ENDBRANCH  25  26
ENDBRANCH  21  25
ENDBRANCH  16  17
ENDBRANCH  15  16
ENDBRANCH  14  15
ENDBRANCH  13  14
ENDBRANCH   8  13
ENDBRANCH   4   5
ENDBRANCH   3   4
TORSDOF 17
ENDMDL
MODEL 3
REMARK VINA RESULT: -7.831482448      2.823      4.543
REMARK  17 active torsions:
REMARK  status: ('A' for Active; 'I' for Inactive)
REMARK    1  A    between atoms: C3_3  and  C4_4 
REMARK    2  A    between atoms: C4_4  and  N1_5 
REMARK       I    between atoms: N1_5  and  C5_7 
REMARK       I    between atoms: C5_7  and  N2_8 
REMARK    3  A    between atoms: N3_11  and  C6_13 
REMARK    4  A    between atoms: C6_13  and  C7_14 
REMARK    5  A    between atoms: C7_14  and  C8_15 
REMARK    6  A    between atoms: C8_15  and  C9_16 
REMARK    7  A    between atoms: C9_16  and  N4_17 
REMARK    8  A    between atoms: N6_21  and  C12_22 
REMARK    9  A    between atoms: C12_22  and  C13_23 
REMARK   10  A    between atoms: C13_23  and  C14_24 
REMARK       I    between atoms: C14_24  and  N7_26 
REMARK   11  A    between atoms: N7_26  and  C15_27 
REMARK   12  A    between atoms: C15_27  and  C16_28 
REMARK   13  A    between atoms: C16_28  and  C17_29 
REMARK   14  A    between atoms: C17_29  and  N8_30 
REMARK   15  A    between atoms: N8_30  and  C18_32 
REMARK   16  A    between atoms: C18_32  and  C19_33 
REMARK   17  A    between atoms: C19_33  and  C20_34 
ROOT
HETATM    1  C1  UNL     1     -40.204  20.666 -12.241  1.00  0.00     0.012 C 
HETATM    2  C2  UNL     1     -41.229  20.054 -12.434  1.00  0.00    -0.116 C 
HETATM    3  C3  UNL     1     -42.433  19.289 -12.679  1.00  0.00     0.113 C 
ENDROOT
BRANCH   3   4
HETATM    4  C4  UNL     1     -43.694  20.071 -12.765  1.00  0.00     0.150 C 
BRANCH   4   5
HETATM    5  N1  UNL     1     -43.441  21.487 -12.961  1.00  0.00    -0.226 N 
HETATM    6  C5  UNL     1     -43.930  22.281 -13.997  1.00  0.00     0.667 C 
HETATM    7  N2  UNL     1     -45.260  22.230 -14.194  1.00  0.00    -0.235 N 
HETATM    8  N3  UNL     1     -43.197  23.042 -14.863  1.00  0.00    -0.227 N 
ATOM      9  H22 UNL     1     -45.807  21.662 -13.547  1.00  0.00     0.174 HD
ATOM     10  H21 UNL     1     -45.618  22.811 -14.952  1.00  0.00     0.174 HD
ATOM     11  H3  UNL     1     -43.670  23.464 -15.662  1.00  0.00     0.177 HD
ATOM     12  H1  UNL     1     -42.847  21.947 -12.272  1.00  0.00     0.177 HD
BRANCH   8  13
HETATM   13  C6  UNL     1     -41.742  23.280 -14.690  1.00  0.00     0.138 C 
BRANCH  13  14
HETATM   14  C7  UNL     1     -41.556  24.765 -14.454  1.00  0.00     0.022 C 
BRANCH  14  15
HETATM   15  C8  UNL     1     -42.216  25.601 -15.488  1.00  0.00     0.030 C 
BRANCH  15  16
HETATM   16  C9  UNL     1     -41.525  26.906 -15.689  1.00  0.00     0.239 C 
BRANCH  16  17
HETATM   17  N4  UNL     1     -42.345  27.869 -16.400  1.00  0.00    -0.038 N 
HETATM   18  C10 UNL     1     -42.863  28.928 -15.608  1.00  0.00     0.257 C 
HETATM   19  C11 UNL     1     -42.882  30.254 -16.303  1.00  0.00     0.170 C 
HETATM   20  N5  UNL     1     -43.039  30.217 -17.725  1.00  0.00    -0.043 NA
HETATM   21  N6  UNL     1     -42.904  28.945 -18.296  1.00  0.00     0.037 N 
HETATM   22  C22 UNL     1     -44.035  28.157 -17.947  1.00  0.00     0.290 C 
HETATM   23  C24 UNL     1     -41.738  28.355 -17.594  1.00  0.00     0.496 C 
HETATM   24  C23 UNL     1     -43.490  27.140 -16.941  1.00  0.00     0.269 C 
BRANCH  21  25
HETATM   25  C12 UNL     1     -42.537  29.032 -19.657  1.00  0.00     0.273 C 
BRANCH  25  26
HETATM   26  C13 UNL     1     -42.998  30.192 -20.462  1.00  0.00     0.148 C 
BRANCH  26  27
HETATM   27  C14 UNL     1     -43.269  29.639 -21.867  1.00  0.00     0.288 C 
HETATM   28  O1  UNL     1     -42.579  28.763 -22.258  1.00  0.00    -0.258 OA
HETATM   29  N7  UNL     1     -44.373  30.313 -22.506  1.00  0.00    -0.415 NA
BRANCH  29  30
HETATM   30  C15 UNL     1     -45.352  30.908 -23.080  1.00  0.00     0.227 C 
BRANCH  30  31
HETATM   31  C16 UNL     1     -45.679  32.250 -22.406  1.00  0.00     0.078 C 
BRANCH  31  32
HETATM   32  C17 UNL     1     -46.393  32.146 -21.127  1.00  0.00     0.062 C 
BRANCH  32  33
HETATM   33  N8  UNL     1     -46.534  30.987 -20.400  1.00  0.00    -0.382 N 
ATOM     34  H8  UNL     1     -46.773  30.131 -20.902  1.00  0.00     0.163 HD
BRANCH  33  35
HETATM   35  C18 UNL     1     -46.370  30.910 -19.005  1.00  0.00     0.060 C 
BRANCH  35  36
HETATM   36  C19 UNL     1     -46.880  32.150 -18.272  1.00  0.00     0.044 C 
BRANCH  36  37
HETATM   37  C20 UNL     1     -45.631  32.791 -17.661  1.00  0.00     0.001 C 
HETATM   38  C21 UNL     1     -45.708  34.272 -17.820  1.00  0.00     0.005 C 
ENDBRANCH  36  37
ENDBRANCH  35  36
ENDBRANCH  33  35
ENDBRANCH  32  33
ENDBRANCH  31  32
ENDBRANCH  30  31
ENDBRANCH  29  30
ENDBRANCH  26  27
ENDBRANCH  25  26
ENDBRANCH  21  25
ENDBRANCH  16  17
ENDBRANCH  15  16
ENDBRANCH  14  15
ENDBRANCH  13  14
ENDBRANCH   8  13
ENDBRANCH   4   5
ENDBRANCH   3   4
TORSDOF 17
ENDMDL
MODEL 4
REMARK VINA RESULT: -7.809093788      2.140      2.591
REMARK  17 active torsions:
REMARK  status: ('A' for Active; 'I' for Inactive)
REMARK    1  A    between atoms: C3_3  and  C4_4 
REMARK    2  A    between atoms: C4_4  and  N1_5 
REMARK       I    between atoms: N1_5  and  C5_7 
REMARK       I    between atoms: C5_7  and  N2_8 
REMARK    3  A    between atoms: N3_11  and  C6_13 
REMARK    4  A    between atoms: C6_13  and  C7_14 
REMARK    5  A    between atoms: C7_14  and  C8_15 
REMARK    6  A    between atoms: C8_15  and  C9_16 
REMARK    7  A    between atoms: C9_16  and  N4_17 
REMARK    8  A    between atoms: N6_21  and  C12_22 
REMARK    9  A    between atoms: C12_22  and  C13_23 
REMARK   10  A    between atoms: C13_23  and  C14_24 
REMARK       I    between atoms: C14_24  and  N7_26 
REMARK   11  A    between atoms: N7_26  and  C15_27 
REMARK   12  A    between atoms: C15_27  and  C16_28 
REMARK   13  A    between atoms: C16_28  and  C17_29 
REMARK   14  A    between atoms: C17_29  and  N8_30 
REMARK   15  A    between atoms: N8_30  and  C18_32 
REMARK   16  A    between atoms: C18_32  and  C19_33 
REMARK   17  A    between atoms: C19_33  and  C20_34 
ROOT
HETATM    1  C1  UNL     1     -39.821  21.779 -13.158  1.00  0.00     0.012 C 
HETATM    2  C2  UNL     1     -40.728  21.100 -12.738  1.00  0.00    -0.116 C 
HETATM    3  C3  UNL     1     -41.787  20.255 -12.231  1.00  0.00     0.113 C 
ENDROOT
BRANCH   3   4
HETATM    4  C4  UNL     1     -43.174  20.692 -12.542  1.00  0.00     0.150 C 
BRANCH   4   5
HETATM    5  N1  UNL     1     -43.218  22.068 -13.000  1.00  0.00    -0.226 N 
HETATM    6  C5  UNL     1     -43.862  22.543 -14.140  1.00  0.00     0.667 C 
HETATM    7  N2  UNL     1     -45.155  22.191 -14.269  1.00  0.00    -0.235 N 
HETATM    8  N3  UNL     1     -43.305  23.263 -15.158  1.00  0.00    -0.227 N 
ATOM      9  H22 UNL     1     -45.571  21.653 -13.508  1.00  0.00     0.174 HD
ATOM     10  H21 UNL     1     -45.627  22.538 -15.103  1.00  0.00     0.174 HD
ATOM     11  H3  UNL     1     -43.857  23.427 -16.000  1.00  0.00     0.177 HD
ATOM     12  H1  UNL     1     -42.727  22.757 -12.430  1.00  0.00     0.177 HD
BRANCH   8  13
HETATM   13  C6  UNL     1     -41.929  23.817 -15.091  1.00  0.00     0.138 C 
BRANCH  13  14
HETATM   14  C7  UNL     1     -42.057  25.303 -14.829  1.00  0.00     0.022 C 
BRANCH  14  15
HETATM   15  C8  UNL     1     -41.691  26.131 -16.006  1.00  0.00     0.030 C 
BRANCH  15  16
HETATM   16  C9  UNL     1     -42.826  26.971 -16.483  1.00  0.00     0.239 C 
BRANCH  16  17
HETATM   17  N4  UNL     1     -42.420  28.326 -16.807  1.00  0.00    -0.038 N 
HETATM   18  C10 UNL     1     -41.018  28.543 -16.862  1.00  0.00     0.257 C 
HETATM   19  C11 UNL     1     -40.589  29.472 -17.955  1.00  0.00     0.170 C 
HETATM   20  N5  UNL     1     -41.532  30.480 -18.332  1.00  0.00    -0.043 NA
HETATM   21  N6  UNL     1     -42.818  30.305 -17.802  1.00  0.00     0.037 N 
HETATM   22  C22 UNL     1     -42.785  30.571 -16.406  1.00  0.00     0.290 C 
HETATM   23  C24 UNL     1     -43.078  28.853 -17.956  1.00  0.00     0.496 C 
HETATM   24  C23 UNL     1     -42.946  29.193 -15.756  1.00  0.00     0.269 C 
BRANCH  21  25
HETATM   25  C12 UNL     1     -43.789  30.962 -18.590  1.00  0.00     0.273 C 
BRANCH  25  26
HETATM   26  C13 UNL     1     -44.787  30.153 -19.337  1.00  0.00     0.148 C 
BRANCH  26  27
HETATM   27  C14 UNL     1     -44.648  30.575 -20.805  1.00  0.00     0.288 C 
HETATM   28  O1  UNL     1     -45.412  31.374 -21.224  1.00  0.00    -0.258 OA
HETATM   29  N7  UNL     1     -43.557  29.896 -21.459  1.00  0.00    -0.415 NA
BRANCH  29  30
HETATM   30  C15 UNL     1     -42.589  29.295 -22.046  1.00  0.00     0.227 C 
BRANCH  30  31
HETATM   31  C16 UNL     1     -42.556  29.603 -23.552  1.00  0.00     0.078 C 
BRANCH  31  32
HETATM   32  C17 UNL     1     -43.700  30.371 -24.055  1.00  0.00     0.062 C 
BRANCH  32  33
HETATM   33  N8  UNL     1     -44.993  29.904 -24.119  1.00  0.00    -0.382 N 
ATOM     34  H8  UNL     1     -45.708  30.397 -23.584  1.00  0.00     0.163 HD
BRANCH  33  35
HETATM   35  C18 UNL     1     -45.387  28.787 -24.876  1.00  0.00     0.060 C 
BRANCH  35  36
HETATM   36  C19 UNL     1     -44.949  28.868 -26.338  1.00  0.00     0.044 C 
BRANCH  36  37
HETATM   37  C20 UNL     1     -44.311  27.509 -26.637  1.00  0.00     0.001 C 
HETATM   38  C21 UNL     1     -43.128  27.704 -27.523  1.00  0.00     0.005 C 
ENDBRANCH  36  37
ENDBRANCH  35  36
ENDBRANCH  33  35
ENDBRANCH  32  33
ENDBRANCH  31  32
ENDBRANCH  30  31
ENDBRANCH  29  30
ENDBRANCH  26  27
ENDBRANCH  25  26
ENDBRANCH  21  25
ENDBRANCH  16  17
ENDBRANCH  15  16
ENDBRANCH  14  15
ENDBRANCH  13  14
ENDBRANCH   8  13
ENDBRANCH   4   5
ENDBRANCH   3   4
TORSDOF 17
ENDMDL
MODEL 5
REMARK VINA RESULT: -7.738896284      1.678      2.260
REMARK  17 active torsions:
REMARK  status: ('A' for Active; 'I' for Inactive)
REMARK    1  A    between atoms: C3_3  and  C4_4 
REMARK    2  A    between atoms: C4_4  and  N1_5 
REMARK       I    between atoms: N1_5  and  C5_7 
REMARK       I    between atoms: C5_7  and  N2_8 
REMARK    3  A    between atoms: N3_11  and  C6_13 
REMARK    4  A    between atoms: C6_13  and  C7_14 
REMARK    5  A    between atoms: C7_14  and  C8_15 
REMARK    6  A    between atoms: C8_15  and  C9_16 
REMARK    7  A    between atoms: C9_16  and  N4_17 
REMARK    8  A    between atoms: N6_21  and  C12_22 
REMARK    9  A    between atoms: C12_22  and  C13_23 
REMARK   10  A    between atoms: C13_23  and  C14_24 
REMARK       I    between atoms: C14_24  and  N7_26 
REMARK   11  A    between atoms: N7_26  and  C15_27 
REMARK   12  A    between atoms: C15_27  and  C16_28 
REMARK   13  A    between atoms: C16_28  and  C17_29 
REMARK   14  A    between atoms: C17_29  and  N8_30 
REMARK   15  A    between atoms: N8_30  and  C18_32 
REMARK   16  A    between atoms: C18_32  and  C19_33 
REMARK   17  A    between atoms: C19_33  and  C20_34 
ROOT
HETATM    1  C1  UNL     1     -40.475  19.915 -11.934  1.00  0.00     0.012 C 
HETATM    2  C2  UNL     1     -40.599  21.016 -12.416  1.00  0.00    -0.116 C 
HETATM    3  C3  UNL     1     -40.705  22.338 -12.995  1.00  0.00     0.113 C 
ENDROOT
BRANCH   3   4
HETATM    4  C4  UNL     1     -42.012  23.024 -12.815  1.00  0.00     0.150 C 
BRANCH   4   5
HETATM    5  N1  UNL     1     -42.062  24.288 -13.526  1.00  0.00    -0.226 N 
HETATM    6  C5  UNL     1     -42.260  24.463 -14.895  1.00  0.00     0.667 C 
HETATM    7  N2  UNL     1     -43.331  23.835 -15.414  1.00  0.00    -0.235 N 
HETATM    8  N3  UNL     1     -41.450  25.141 -15.761  1.00  0.00    -0.227 N 
ATOM      9  H22 UNL     1     -43.936  23.329 -14.767  1.00  0.00     0.174 HD
ATOM     10  H21 UNL     1     -43.476  23.963 -16.415  1.00  0.00     0.174 HD
ATOM     11  H3  UNL     1     -41.639  25.074 -16.760  1.00  0.00     0.177 HD
ATOM     12  H1  UNL     1     -41.941  25.133 -12.969  1.00  0.00     0.177 HD
BRANCH   8  13
HETATM   13  C6  UNL     1     -40.306  25.973 -15.307  1.00  0.00     0.138 C 
BRANCH  13  14
HETATM   14  C7  UNL     1     -40.644  27.413 -15.633  1.00  0.00     0.022 C 
BRANCH  14  15
HETATM   15  C8  UNL     1     -41.380  27.559 -16.914  1.00  0.00     0.030 C 
BRANCH  15  16
HETATM   16  C9  UNL     1     -41.193  28.904 -17.527  1.00  0.00     0.239 C 
BRANCH  16  17
HETATM   17  N4  UNL     1     -42.449  29.533 -17.888  1.00  0.00    -0.038 N 
HETATM   18  C10 UNL     1     -42.869  30.587 -17.033  1.00  0.00     0.257 C 
HETATM   19  C11 UNL     1     -43.510  31.733 -17.751  1.00  0.00     0.170 C 
HETATM   20  N5  UNL     1     -44.203  31.411 -18.961  1.00  0.00    -0.043 NA
HETATM   21  N6  UNL     1     -43.976  30.113 -19.436  1.00  0.00     0.037 N 
HETATM   22  C22 UNL     1     -44.625  29.184 -18.578  1.00  0.00     0.290 C 
HETATM   23  C24 UNL     1     -42.517  29.912 -19.260  1.00  0.00     0.496 C 
HETATM   24  C23 UNL     1     -43.479  28.498 -17.829  1.00  0.00     0.269 C 
BRANCH  21  25
HETATM   25  C12 UNL     1     -44.216  30.028 -20.826  1.00  0.00     0.273 C 
BRANCH  25  26
HETATM   26  C13 UNL     1     -43.117  30.342 -21.774  1.00  0.00     0.148 C 
BRANCH  26  27
HETATM   27  C14 UNL     1     -43.740  31.242 -22.849  1.00  0.00     0.288 C 
HETATM   28  O1  UNL     1     -43.324  32.342 -22.956  1.00  0.00    -0.258 OA
HETATM   29  N7  UNL     1     -44.779  30.562 -23.583  1.00  0.00    -0.415 NA
BRANCH  29  30
HETATM   30  C15 UNL     1     -45.703  29.964 -24.239  1.00  0.00     0.227 C 
BRANCH  30  31
HETATM   31  C16 UNL     1     -45.621  30.265 -25.745  1.00  0.00     0.078 C 
BRANCH  31  32
HETATM   32  C17 UNL     1     -44.365  29.865 -26.391  1.00  0.00     0.062 C 
BRANCH  32  33
HETATM   33  N8  UNL     1     -43.127  30.385 -26.090  1.00  0.00    -0.382 N 
ATOM     34  H8  UNL     1     -42.860  30.446 -25.107  1.00  0.00     0.163 HD
BRANCH  33  35
HETATM   35  C18 UNL     1     -42.210  30.837 -27.055  1.00  0.00     0.060 C 
BRANCH  35  36
HETATM   36  C19 UNL     1     -42.259  32.350 -27.266  1.00  0.00     0.044 C 
BRANCH  36  37
HETATM   37  C20 UNL     1     -42.393  32.534 -28.780  1.00  0.00     0.001 C 
HETATM   38  C21 UNL     1     -41.293  33.414 -29.270  1.00  0.00     0.005 C 
ENDBRANCH  36  37
ENDBRANCH  35  36
ENDBRANCH  33  35
ENDBRANCH  32  33
ENDBRANCH  31  32
ENDBRANCH  30  31
ENDBRANCH  29  30
ENDBRANCH  26  27
ENDBRANCH  25  26
ENDBRANCH  21  25
ENDBRANCH  16  17
ENDBRANCH  15  16
ENDBRANCH  14  15
ENDBRANCH  13  14
ENDBRANCH   8  13
ENDBRANCH   4   5
ENDBRANCH   3   4
TORSDOF 17
ENDMDL
