MODEL 1
REMARK VINA RESULT: -7.480621545      0.000      0.000
REMARK  20 active torsions:
REMARK  status: ('A' for Active; 'I' for Inactive)
REMARK    1  A    between atoms: C3_3  and  N1_4 
REMARK    2  A    between atoms: N1_4  and  C6_7 
REMARK    3  A    between atoms: C6_7  and  C7_8 
REMARK    4  A    between atoms: C7_8  and  C8_9 
REMARK    5  A    between atoms: C8_9  and  N2_10 
REMARK       I    between atoms: N2_10  and  C9_12 
REMARK       I    between atoms: C9_12  and  N4_16 
REMARK    6  A    between atoms: N4_16  and  C10_18 
REMARK    7  A    between atoms: C10_18  and  C11_19 
REMARK    8  A    between atoms: C11_19  and  N5_20 
REMARK    9  A    between atoms: N5_20  and  C12_21 
REMARK   10  A    between atoms: C12_21  and  C13_22 
REMARK   11  A    between atoms: C13_22  and  C14_23 
REMARK   12  A    between atoms: C14_23  and  N6_24 
REMARK   13  A    between atoms: N6_24  and  C15_26 
REMARK   14  A    between atoms: C15_26  and  C17_28 
REMARK   15  A    between atoms: C17_28  and  O1_29 
REMARK   16  A    between atoms: C17_28  and  N7_31 
REMARK   17  A    between atoms: N7_31  and  C18_32 
REMARK   18  A    between atoms: C18_32  and  C19_33 
REMARK   19  A    between atoms: C19_33  and  C20_34 
REMARK   20  A    between atoms: C20_34  and  N8_35 
ROOT
HETATM    1  C1  UNL     1     -41.381  19.860 -11.505  1.00  0.00     0.013 C 
HETATM    2  C2  UNL     1     -41.925  18.848 -11.320  1.00  0.00    -0.089 C 
HETATM    3  C3  UNL     1     -42.659  17.651 -11.029  1.00  0.00     0.328 C 
ENDROOT
BRANCH   3   4
HETATM    4  N1  UNL     1     -43.658  17.887 -10.022  1.00  0.00    -0.065 N 
HETATM    5  C4  UNL     1     -44.683  16.817 -10.177  1.00  0.00     0.273 C 
HETATM    6  C5  UNL     1     -43.127  17.786  -8.670  1.00  0.00     0.273 C 
BRANCH   4   7
HETATM    7  C6  UNL     1     -44.292  19.172 -10.252  1.00  0.00     0.239 C 
BRANCH   7   8
HETATM    8  C7  UNL     1     -45.597  19.096 -11.000  1.00  0.00     0.048 C 
BRANCH   8   9
HETATM    9  C8  UNL     1     -45.487  19.351 -12.453  1.00  0.00     0.139 C 
BRANCH   9  10
HETATM   10  N2  UNL     1     -46.187  20.504 -12.906  1.00  0.00    -0.227 N 
HETATM   11  C9  UNL     1     -45.672  21.820 -12.981  1.00  0.00     0.667 C 
HETATM   12  N3  UNL     1     -45.825  22.727 -12.062  1.00  0.00    -0.235 N 
HETATM   13  N4  UNL     1     -44.933  22.271 -14.136  1.00  0.00    -0.225 N 
ATOM     14  H32 UNL     1     -46.348  22.409 -11.246  1.00  0.00     0.174 HD
ATOM     15  H31 UNL     1     -45.454  23.676 -12.116  1.00  0.00     0.174 HD
ATOM     16  H4  UNL     1     -45.379  22.403 -15.044  1.00  0.00     0.177 HD
ATOM     17  H2  UNL     1     -47.153  20.369 -13.206  1.00  0.00     0.177 HD
BRANCH  13  18
HETATM   18  C10 UNL     1     -43.505  22.529 -13.931  1.00  0.00     0.166 C 
BRANCH  18  19
HETATM   19  C11 UNL     1     -42.937  23.205 -15.108  1.00  0.00     0.257 C 
BRANCH  19  20
HETATM   20  N5  UNL     1     -41.921  24.181 -14.843  1.00  0.00    -0.065 N 
HETATM   21  C21 UNL     1     -40.615  23.666 -15.246  1.00  0.00     0.237 C 
HETATM   22  C22 UNL     1     -40.020  22.943 -14.043  1.00  0.00     0.029 C 
HETATM   23  C23 UNL     1     -40.875  23.346 -12.900  1.00  0.00     0.029 C 
HETATM   24  C24 UNL     1     -41.772  24.391 -13.442  1.00  0.00     0.237 C 
BRANCH  20  25
HETATM   25  C12 UNL     1     -42.142  25.475 -15.418  1.00  0.00     0.242 C 
BRANCH  25  26
HETATM   26  C13 UNL     1     -40.817  26.148 -15.855  1.00  0.00     0.072 C 
BRANCH  26  27
HETATM   27  C14 UNL     1     -41.159  27.519 -16.175  1.00  0.00     0.058 C 
BRANCH  27  28
HETATM   28  N6  UNL     1     -42.051  27.921 -17.235  1.00  0.00    -0.390 N 
ATOM     29  H6  UNL     1     -42.989  27.530 -17.329  1.00  0.00     0.159 HD
BRANCH  28  30
HETATM   30  C15 UNL     1     -41.547  28.887 -18.136  1.00  0.00     0.166 C 
HETATM   31  C16 UNL     1     -40.018  29.007 -18.080  1.00  0.00     0.042 C 
BRANCH  30  32
HETATM   32  C17 UNL     1     -42.126  30.236 -17.973  1.00  0.00     0.206 C 
BRANCH  32  33
HETATM   33  O1  UNL     1     -41.543  31.176 -18.658  1.00  0.00    -0.338 OA
ATOM     34  H1  UNL     1     -41.501  31.027 -19.595  1.00  0.00     0.220 HD
ENDBRANCH  32  33
BRANCH  32  35
HETATM   35  N7  UNL     1     -43.218  30.456 -17.201  1.00  0.00    -0.427 NA
BRANCH  35  36
HETATM   36  C18 UNL     1     -44.367  30.694 -16.399  1.00  0.00     0.222 C 
BRANCH  36  37
HETATM   37  C19 UNL     1     -44.342  29.955 -15.083  1.00  0.00     0.060 C 
BRANCH  37  38
HETATM   38  C20 UNL     1     -44.009  30.951 -13.951  1.00  0.00     0.232 C 
BRANCH  38  39
HETATM   39  N8  UNL     1     -43.978  32.273 -14.592  1.00  0.00    -0.079 N 
ATOM     40  H83 UNL     1     -44.869  32.550 -15.005  1.00  0.00     0.274 HD
ATOM     41  H82 UNL     1     -43.907  33.048 -13.933  1.00  0.00     0.274 HD
ATOM     42  H81 UNL     1     -43.210  32.231 -15.263  1.00  0.00     0.274 HD
ENDBRANCH  38  39
ENDBRANCH  37  38
ENDBRANCH  36  37
ENDBRANCH  35  36
ENDBRANCH  32  35
ENDBRANCH  30  32
ENDBRANCH  28  30
ENDBRANCH  27  28
ENDBRANCH  26  27
ENDBRANCH  25  26
ENDBRANCH  20  25
ENDBRANCH  19  20
ENDBRANCH  18  19
ENDBRANCH  13  18
ENDBRANCH   9  10
ENDBRANCH   8   9
ENDBRANCH   7   8
ENDBRANCH   4   7
ENDBRANCH   3   4
TORSDOF 20
ENDMDL
MODEL 2
REMARK VINA RESULT: -7.275340747      1.708      2.361
REMARK  20 active torsions:
REMARK  status: ('A' for Active; 'I' for Inactive)
REMARK    1  A    between atoms: C3_3  and  N1_4 
REMARK    2  A    between atoms: N1_4  and  C6_7 
REMARK    3  A    between atoms: C6_7  and  C7_8 
REMARK    4  A    between atoms: C7_8  and  C8_9 
REMARK    5  A    between atoms: C8_9  and  N2_10 
REMARK       I    between atoms: N2_10  and  C9_12 
REMARK       I    between atoms: C9_12  and  N4_16 
REMARK    6  A    between atoms: N4_16  and  C10_18 
REMARK    7  A    between atoms: C10_18  and  C11_19 
REMARK    8  A    between atoms: C11_19  and  N5_20 
REMARK    9  A    between atoms: N5_20  and  C12_21 
REMARK   10  A    between atoms: C12_21  and  C13_22 
REMARK   11  A    between atoms: C13_22  and  C14_23 
REMARK   12  A    between atoms: C14_23  and  N6_24 
REMARK   13  A    between atoms: N6_24  and  C15_26 
REMARK   14  A    between atoms: C15_26  and  C17_28 
REMARK   15  A    between atoms: C17_28  and  O1_29 
REMARK   16  A    between atoms: C17_28  and  N7_31 
REMARK   17  A    between atoms: N7_31  and  C18_32 
REMARK   18  A    between atoms: C18_32  and  C19_33 
REMARK   19  A    between atoms: C19_33  and  C20_34 
REMARK   20  A    between atoms: C20_34  and  N8_35 
ROOT
HETATM    1  C1  UNL     1     -40.320  20.211 -12.220  1.00  0.00     0.013 C 
HETATM    2  C2  UNL     1     -41.328  20.055 -11.658  1.00  0.00    -0.089 C 
HETATM    3  C3  UNL     1     -42.559  19.763 -10.985  1.00  0.00     0.328 C 
ENDROOT
BRANCH   3   4
HETATM    4  N1  UNL     1     -42.902  18.373 -11.112  1.00  0.00    -0.065 N 
HETATM    5  C4  UNL     1     -42.615  17.988 -12.523  1.00  0.00     0.273 C 
HETATM    6  C5  UNL     1     -42.095  17.515 -10.256  1.00  0.00     0.273 C 
BRANCH   4   7
HETATM    7  C6  UNL     1     -44.320  18.193 -10.863  1.00  0.00     0.239 C 
BRANCH   7   8
HETATM    8  C7  UNL     1     -45.161  19.408 -11.155  1.00  0.00     0.048 C 
BRANCH   8   9
HETATM    9  C8  UNL     1     -45.869  19.366 -12.453  1.00  0.00     0.139 C 
BRANCH   9  10
HETATM   10  N2  UNL     1     -46.381  20.621 -12.889  1.00  0.00    -0.227 N 
HETATM   11  C9  UNL     1     -45.664  21.840 -12.953  1.00  0.00     0.667 C 
HETATM   12  N3  UNL     1     -45.666  22.749 -12.024  1.00  0.00    -0.235 N 
HETATM   13  N4  UNL     1     -44.869  22.181 -14.109  1.00  0.00    -0.225 N 
ATOM     14  H32 UNL     1     -46.227  22.508 -11.207  1.00  0.00     0.174 HD
ATOM     15  H31 UNL     1     -45.149  23.627 -12.071  1.00  0.00     0.174 HD
ATOM     16  H4  UNL     1     -45.294  22.393 -15.012  1.00  0.00     0.177 HD
ATOM     17  H2  UNL     1     -47.357  20.644 -13.182  1.00  0.00     0.177 HD
BRANCH  13  18
HETATM   18  C10 UNL     1     -43.417  22.207 -13.912  1.00  0.00     0.166 C 
BRANCH  18  19
HETATM   19  C11 UNL     1     -42.968  23.579 -13.625  1.00  0.00     0.257 C 
BRANCH  19  20
HETATM   20  N5  UNL     1     -42.075  24.161 -14.583  1.00  0.00    -0.065 N 
HETATM   21  C21 UNL     1     -41.297  23.115 -15.242  1.00  0.00     0.237 C 
HETATM   22  C22 UNL     1     -40.032  22.902 -14.418  1.00  0.00     0.029 C 
HETATM   23  C23 UNL     1     -39.984  24.060 -13.492  1.00  0.00     0.029 C 
HETATM   24  C24 UNL     1     -41.081  24.951 -13.936  1.00  0.00     0.237 C 
BRANCH  20  25
HETATM   25  C12 UNL     1     -42.685  25.013 -15.560  1.00  0.00     0.242 C 
BRANCH  25  26
HETATM   26  C13 UNL     1     -41.730  26.142 -16.023  1.00  0.00     0.072 C 
BRANCH  26  27
HETATM   27  C14 UNL     1     -42.467  27.377 -15.846  1.00  0.00     0.058 C 
BRANCH  27  28
HETATM   28  N6  UNL     1     -42.216  28.598 -16.571  1.00  0.00    -0.390 N 
ATOM     29  H6  UNL     1     -42.427  29.514 -16.176  1.00  0.00     0.159 HD
BRANCH  28  30
HETATM   30  C15 UNL     1     -41.659  28.449 -17.862  1.00  0.00     0.166 C 
HETATM   31  C16 UNL     1     -40.378  29.272 -18.052  1.00  0.00     0.042 C 
BRANCH  30  32
HETATM   32  C17 UNL     1     -42.584  28.765 -18.969  1.00  0.00     0.206 C 
BRANCH  32  33
HETATM   33  O1  UNL     1     -42.181  28.398 -20.150  1.00  0.00    -0.338 OA
ATOM     34  H1  UNL     1     -42.873  28.179 -20.763  1.00  0.00     0.220 HD
ENDBRANCH  32  33
BRANCH  32  35
HETATM   35  N7  UNL     1     -43.786  29.352 -18.749  1.00  0.00    -0.427 NA
BRANCH  35  36
HETATM   36  C18 UNL     1     -45.044  29.966 -18.506  1.00  0.00     0.222 C 
BRANCH  36  37
HETATM   37  C19 UNL     1     -45.685  30.529 -19.752  1.00  0.00     0.060 C 
BRANCH  37  38
HETATM   38  C20 UNL     1     -44.621  31.304 -20.560  1.00  0.00     0.232 C 
BRANCH  38  39
HETATM   39  N8  UNL     1     -44.441  30.539 -21.801  1.00  0.00    -0.079 N 
ATOM     40  H83 UNL     1     -44.787  29.582 -21.747  1.00  0.00     0.274 HD
ATOM     41  H82 UNL     1     -45.048  30.843 -22.562  1.00  0.00     0.274 HD
ATOM     42  H81 UNL     1     -43.446  30.605 -22.017  1.00  0.00     0.274 HD
ENDBRANCH  38  39
ENDBRANCH  37  38
ENDBRANCH  36  37
ENDBRANCH  35  36
ENDBRANCH  32  35
ENDBRANCH  30  32
ENDBRANCH  28  30
ENDBRANCH  27  28
ENDBRANCH  26  27
ENDBRANCH  25  26
ENDBRANCH  20  25
ENDBRANCH  19  20
ENDBRANCH  18  19
ENDBRANCH  13  18
ENDBRANCH   9  10
ENDBRANCH   8   9
ENDBRANCH   7   8
ENDBRANCH   4   7
ENDBRANCH   3   4
TORSDOF 20
ENDMDL
MODEL 3
REMARK VINA RESULT: -7.081238400      3.149     11.204
REMARK  20 active torsions:
REMARK  status: ('A' for Active; 'I' for Inactive)
REMARK    1  A    between atoms: C3_3  and  N1_4 
REMARK    2  A    between atoms: N1_4  and  C6_7 
REMARK    3  A    between atoms: C6_7  and  C7_8 
REMARK    4  A    between atoms: C7_8  and  C8_9 
REMARK    5  A    between atoms: C8_9  and  N2_10 
REMARK       I    between atoms: N2_10  and  C9_12 
REMARK       I    between atoms: C9_12  and  N4_16 
REMARK    6  A    between atoms: N4_16  and  C10_18 
REMARK    7  A    between atoms: C10_18  and  C11_19 
REMARK    8  A    between atoms: C11_19  and  N5_20 
REMARK    9  A    between atoms: N5_20  and  C12_21 
REMARK   10  A    between atoms: C12_21  and  C13_22 
REMARK   11  A    between atoms: C13_22  and  C14_23 
REMARK   12  A    between atoms: C14_23  and  N6_24 
REMARK   13  A    between atoms: N6_24  and  C15_26 
REMARK   14  A    between atoms: C15_26  and  C17_28 
REMARK   15  A    between atoms: C17_28  and  O1_29 
REMARK   16  A    between atoms: C17_28  and  N7_31 
REMARK   17  A    between atoms: N7_31  and  C18_32 
REMARK   18  A    between atoms: C18_32  and  C19_33 
REMARK   19  A    between atoms: C19_33  and  C20_34 
REMARK   20  A    between atoms: C20_34  and  N8_35 
ROOT
HETATM    1  C1  UNL     1     -44.839  33.090 -17.797  1.00  0.00     0.013 C 
HETATM    2  C2  UNL     1     -45.965  32.839 -17.952  1.00  0.00    -0.089 C 
HETATM    3  C3  UNL     1     -47.332  32.519 -18.242  1.00  0.00     0.328 C 
ENDROOT
BRANCH   3   4
HETATM    4  N1  UNL     1     -47.542  32.378 -19.657  1.00  0.00    -0.065 N 
HETATM    5  C4  UNL     1     -48.976  32.018 -19.844  1.00  0.00     0.273 C 
HETATM    6  C5  UNL     1     -47.308  33.618 -20.385  1.00  0.00     0.273 C 
BRANCH   4   7
HETATM    7  C6  UNL     1     -46.723  31.296 -20.170  1.00  0.00     0.239 C 
BRANCH   7   8
HETATM    8  C7  UNL     1     -46.585  30.124 -19.233  1.00  0.00     0.048 C 
BRANCH   8   9
HETATM    9  C8  UNL     1     -45.245  29.495 -19.232  1.00  0.00     0.139 C 
BRANCH   9  10
HETATM   10  N2  UNL     1     -44.360  29.988 -20.231  1.00  0.00    -0.227 N 
HETATM   11  C9  UNL     1     -43.001  30.338 -20.045  1.00  0.00     0.667 C 
HETATM   12  N3  UNL     1     -42.574  31.543 -19.809  1.00  0.00    -0.235 N 
HETATM   13  N4  UNL     1     -41.954  29.348 -20.131  1.00  0.00    -0.225 N 
ATOM     14  H32 UNL     1     -43.314  32.243 -19.748  1.00  0.00     0.174 HD
ATOM     15  H31 UNL     1     -41.594  31.795 -19.675  1.00  0.00     0.174 HD
ATOM     16  H4  UNL     1     -41.708  28.898 -21.014  1.00  0.00     0.177 HD
ATOM     17  H2  UNL     1     -44.741  30.100 -21.171  1.00  0.00     0.177 HD
BRANCH  13  18
HETATM   18  C10 UNL     1     -41.262  29.027 -18.880  1.00  0.00     0.166 C 
BRANCH  18  19
HETATM   19  C11 UNL     1     -42.123  28.196 -18.023  1.00  0.00     0.257 C 
BRANCH  19  20
HETATM   20  N5  UNL     1     -42.023  28.433 -16.613  1.00  0.00    -0.065 N 
HETATM   21  C21 UNL     1     -43.248  28.000 -15.945  1.00  0.00     0.237 C 
HETATM   22  C22 UNL     1     -44.200  29.191 -15.924  1.00  0.00     0.029 C 
HETATM   23  C23 UNL     1     -43.359  30.353 -16.301  1.00  0.00     0.029 C 
HETATM   24  C24 UNL     1     -41.975  29.830 -16.335  1.00  0.00     0.237 C 
BRANCH  20  25
HETATM   25  C12 UNL     1     -40.879  27.860 -15.969  1.00  0.00     0.242 C 
BRANCH  25  26
HETATM   26  C13 UNL     1     -40.710  26.359 -16.316  1.00  0.00     0.072 C 
BRANCH  26  27
HETATM   27  C14 UNL     1     -40.695  25.662 -15.046  1.00  0.00     0.058 C 
BRANCH  27  28
HETATM   28  N6  UNL     1     -41.861  25.138 -14.379  1.00  0.00    -0.390 N 
ATOM     29  H6  UNL     1     -42.732  25.666 -14.318  1.00  0.00     0.159 HD
BRANCH  28  30
HETATM   30  C15 UNL     1     -41.726  23.848 -13.816  1.00  0.00     0.166 C 
HETATM   31  C16 UNL     1     -40.299  23.298 -13.935  1.00  0.00     0.042 C 
BRANCH  30  32
HETATM   32  C17 UNL     1     -42.660  22.841 -14.358  1.00  0.00     0.206 C 
BRANCH  32  33
HETATM   33  O1  UNL     1     -43.202  23.148 -15.500  1.00  0.00    -0.338 OA
ATOM     34  H1  UNL     1     -43.932  22.598 -15.762  1.00  0.00     0.220 HD
ENDBRANCH  32  33
BRANCH  32  35
HETATM   35  N7  UNL     1     -42.890  21.665 -13.725  1.00  0.00    -0.427 NA
BRANCH  35  36
HETATM   36  C18 UNL     1     -43.123  20.436 -13.052  1.00  0.00     0.222 C 
BRANCH  36  37
HETATM   37  C19 UNL     1     -41.872  19.615 -12.853  1.00  0.00     0.060 C 
BRANCH  37  38
HETATM   38  C20 UNL     1     -40.859  20.432 -12.023  1.00  0.00     0.232 C 
BRANCH  38  39
HETATM   39  N8  UNL     1     -41.562  20.777 -10.780  1.00  0.00    -0.079 N 
ATOM     40  H83 UNL     1     -42.547  20.513 -10.778  1.00  0.00     0.274 HD
ATOM     41  H82 UNL     1     -41.285  20.208  -9.980  1.00  0.00     0.274 HD
ATOM     42  H81 UNL     1     -41.405  21.777 -10.648  1.00  0.00     0.274 HD
ENDBRANCH  38  39
ENDBRANCH  37  38
ENDBRANCH  36  37
ENDBRANCH  35  36
ENDBRANCH  32  35
ENDBRANCH  30  32
ENDBRANCH  28  30
ENDBRANCH  27  28
ENDBRANCH  26  27
ENDBRANCH  25  26
ENDBRANCH  20  25
ENDBRANCH  19  20
ENDBRANCH  18  19
ENDBRANCH  13  18
ENDBRANCH   9  10
ENDBRANCH   8   9
ENDBRANCH   7   8
ENDBRANCH   4   7
ENDBRANCH   3   4
TORSDOF 20
ENDMDL
MODEL 4
REMARK VINA RESULT: -6.935761412      4.012     11.668
REMARK  20 active torsions:
REMARK  status: ('A' for Active; 'I' for Inactive)
REMARK    1  A    between atoms: C3_3  and  N1_4 
REMARK    2  A    between atoms: N1_4  and  C6_7 
REMARK    3  A    between atoms: C6_7  and  C7_8 
REMARK    4  A    between atoms: C7_8  and  C8_9 
REMARK    5  A    between atoms: C8_9  and  N2_10 
REMARK       I    between atoms: N2_10  and  C9_12 
REMARK       I    between atoms: C9_12  and  N4_16 
REMARK    6  A    between atoms: N4_16  and  C10_18 
REMARK    7  A    between atoms: C10_18  and  C11_19 
REMARK    8  A    between atoms: C11_19  and  N5_20 
REMARK    9  A    between atoms: N5_20  and  C12_21 
REMARK   10  A    between atoms: C12_21  and  C13_22 
REMARK   11  A    between atoms: C13_22  and  C14_23 
REMARK   12  A    between atoms: C14_23  and  N6_24 
REMARK   13  A    between atoms: N6_24  and  C15_26 
REMARK   14  A    between atoms: C15_26  and  C17_28 
REMARK   15  A    between atoms: C17_28  and  O1_29 
REMARK   16  A    between atoms: C17_28  and  N7_31 
REMARK   17  A    between atoms: N7_31  and  C18_32 
REMARK   18  A    between atoms: C18_32  and  C19_33 
REMARK   19  A    between atoms: C19_33  and  C20_34 
REMARK   20  A    between atoms: C20_34  and  N8_35 
ROOT
HETATM    1  C1  UNL     1     -42.285  29.286 -23.377  1.00  0.00     0.013 C 
HETATM    2  C2  UNL     1     -42.953  29.861 -24.137  1.00  0.00    -0.089 C 
HETATM    3  C3  UNL     1     -43.841  30.587 -24.997  1.00  0.00     0.328 C 
ENDROOT
BRANCH   3   4
HETATM    4  N1  UNL     1     -45.042  30.963 -24.303  1.00  0.00    -0.065 N 
HETATM    5  C4  UNL     1     -45.793  31.876 -25.210  1.00  0.00     0.273 C 
HETATM    6  C5  UNL     1     -45.907  29.825 -24.020  1.00  0.00     0.273 C 
BRANCH   4   7
HETATM    7  C6  UNL     1     -44.703  31.689 -23.093  1.00  0.00     0.239 C 
BRANCH   7   8
HETATM    8  C7  UNL     1     -45.516  31.299 -21.886  1.00  0.00     0.048 C 
BRANCH   8   9
HETATM    9  C8  UNL     1     -45.004  31.831 -20.604  1.00  0.00     0.139 C 
BRANCH   9  10
HETATM   10  N2  UNL     1     -46.014  32.225 -19.682  1.00  0.00    -0.227 N 
HETATM   11  C9  UNL     1     -46.402  31.523 -18.516  1.00  0.00     0.667 C 
HETATM   12  N3  UNL     1     -47.399  30.691 -18.453  1.00  0.00    -0.235 N 
HETATM   13  N4  UNL     1     -45.707  31.706 -17.264  1.00  0.00    -0.225 N 
ATOM     14  H32 UNL     1     -47.890  30.561 -19.337  1.00  0.00     0.174 HD
ATOM     15  H31 UNL     1     -47.679  30.184 -17.612  1.00  0.00     0.174 HD
ATOM     16  H4  UNL     1     -45.757  32.582 -16.743  1.00  0.00     0.177 HD
ATOM     17  H2  UNL     1     -46.504  33.098 -19.880  1.00  0.00     0.177 HD
BRANCH  13  18
HETATM   18  C10 UNL     1     -44.927  30.564 -16.784  1.00  0.00     0.166 C 
BRANCH  18  19
HETATM   19  C11 UNL     1     -43.501  30.758 -17.089  1.00  0.00     0.257 C 
BRANCH  19  20
HETATM   20  N5  UNL     1     -42.751  29.570 -17.376  1.00  0.00    -0.065 N 
HETATM   21  C21 UNL     1     -41.771  29.838 -18.425  1.00  0.00     0.237 C 
HETATM   22  C22 UNL     1     -42.445  29.553 -19.762  1.00  0.00     0.029 C 
HETATM   23  C23 UNL     1     -43.690  28.827 -19.410  1.00  0.00     0.029 C 
HETATM   24  C24 UNL     1     -43.585  28.571 -17.955  1.00  0.00     0.237 C 
BRANCH  20  25
HETATM   25  C12 UNL     1     -42.115  28.953 -16.250  1.00  0.00     0.242 C 
BRANCH  25  26
HETATM   26  C13 UNL     1     -40.746  28.333 -16.626  1.00  0.00     0.072 C 
BRANCH  26  27
HETATM   27  C14 UNL     1     -40.886  26.907 -16.404  1.00  0.00     0.058 C 
BRANCH  27  28
HETATM   28  N6  UNL     1     -41.942  26.291 -15.639  1.00  0.00    -0.390 N 
ATOM     29  H6  UNL     1     -42.914  26.588 -15.724  1.00  0.00     0.159 HD
BRANCH  28  30
HETATM   30  C15 UNL     1     -41.548  25.252 -14.765  1.00  0.00     0.166 C 
HETATM   31  C16 UNL     1     -40.090  24.823 -14.976  1.00  0.00     0.042 C 
BRANCH  30  32
HETATM   32  C17 UNL     1     -42.401  24.048 -14.822  1.00  0.00     0.206 C 
BRANCH  32  33
HETATM   33  O1  UNL     1     -43.288  24.042 -15.774  1.00  0.00    -0.338 OA
ATOM     34  H1  UNL     1     -44.011  23.438 -15.649  1.00  0.00     0.220 HD
ENDBRANCH  32  33
BRANCH  32  35
HETATM   35  N7  UNL     1     -42.229  23.009 -13.968  1.00  0.00    -0.427 NA
BRANCH  35  36
HETATM   36  C18 UNL     1     -42.039  21.918 -13.078  1.00  0.00     0.222 C 
BRANCH  36  37
HETATM   37  C19 UNL     1     -42.992  20.773 -13.324  1.00  0.00     0.060 C 
BRANCH  37  38
HETATM   38  C20 UNL     1     -44.429  21.236 -13.003  1.00  0.00     0.232 C 
BRANCH  38  39
HETATM   39  N8  UNL     1     -44.924  21.857 -14.239  1.00  0.00    -0.079 N 
ATOM     40  H83 UNL     1     -44.356  21.648 -15.059  1.00  0.00     0.274 HD
ATOM     41  H82 UNL     1     -45.791  21.447 -14.587  1.00  0.00     0.274 HD
ATOM     42  H81 UNL     1     -44.995  22.854 -14.031  1.00  0.00     0.274 HD
ENDBRANCH  38  39
ENDBRANCH  37  38
ENDBRANCH  36  37
ENDBRANCH  35  36
ENDBRANCH  32  35
ENDBRANCH  30  32
ENDBRANCH  28  30
ENDBRANCH  27  28
ENDBRANCH  26  27
ENDBRANCH  25  26
ENDBRANCH  20  25
ENDBRANCH  19  20
ENDBRANCH  18  19
ENDBRANCH  13  18
ENDBRANCH   9  10
ENDBRANCH   8   9
ENDBRANCH   7   8
ENDBRANCH   4   7
ENDBRANCH   3   4
TORSDOF 20
ENDMDL
MODEL 5
REMARK VINA RESULT: -6.863541613      4.093      8.713
REMARK  20 active torsions:
REMARK  status: ('A' for Active; 'I' for Inactive)
REMARK    1  A    between atoms: C3_3  and  N1_4 
REMARK    2  A    between atoms: N1_4  and  C6_7 
REMARK    3  A    between atoms: C6_7  and  C7_8 
REMARK    4  A    between atoms: C7_8  and  C8_9 
REMARK    5  A    between atoms: C8_9  and  N2_10 
REMARK       I    between atoms: N2_10  and  C9_12 
REMARK       I    between atoms: C9_12  and  N4_16 
REMARK    6  A    between atoms: N4_16  and  C10_18 
REMARK    7  A    between atoms: C10_18  and  C11_19 
REMARK    8  A    between atoms: C11_19  and  N5_20 
REMARK    9  A    between atoms: N5_20  and  C12_21 
REMARK   10  A    between atoms: C12_21  and  C13_22 
REMARK   11  A    between atoms: C13_22  and  C14_23 
REMARK   12  A    between atoms: C14_23  and  N6_24 
REMARK   13  A    between atoms: N6_24  and  C15_26 
REMARK   14  A    between atoms: C15_26  and  C17_28 
REMARK   15  A    between atoms: C17_28  and  O1_29 
REMARK   16  A    between atoms: C17_28  and  N7_31 
REMARK   17  A    between atoms: N7_31  and  C18_32 
REMARK   18  A    between atoms: C18_32  and  C19_33 
REMARK   19  A    between atoms: C19_33  and  C20_34 
REMARK   20  A    between atoms: C20_34  and  N8_35 
ROOT
HETATM    1  C1  UNL     1     -40.390  21.617 -12.708  1.00  0.00     0.013 C 
HETATM    2  C2  UNL     1     -40.855  22.677 -12.837  1.00  0.00    -0.089 C 
HETATM    3  C3  UNL     1     -41.434  23.962 -13.097  1.00  0.00     0.328 C 
ENDROOT
BRANCH   3   4
HETATM    4  N1  UNL     1     -41.602  24.180 -14.508  1.00  0.00    -0.065 N 
HETATM    5  C4  UNL     1     -40.372  23.660 -15.171  1.00  0.00     0.273 C 
HETATM    6  C5  UNL     1     -42.734  23.446 -15.058  1.00  0.00     0.273 C 
BRANCH   4   7
HETATM    7  C6  UNL     1     -41.707  25.601 -14.776  1.00  0.00     0.239 C 
BRANCH   7   8
HETATM    8  C7  UNL     1     -40.588  26.159 -15.617  1.00  0.00     0.048 C 
BRANCH   8   9
HETATM    9  C8  UNL     1     -40.633  27.626 -15.801  1.00  0.00     0.139 C 
BRANCH   9  10
HETATM   10  N2  UNL     1     -40.953  28.047 -17.123  1.00  0.00    -0.227 N 
HETATM   11  C9  UNL     1     -42.101  28.777 -17.513  1.00  0.00     0.667 C 
HETATM   12  N3  UNL     1     -43.193  28.245 -17.976  1.00  0.00    -0.235 N 
HETATM   13  N4  UNL     1     -42.132  30.219 -17.444  1.00  0.00    -0.225 N 
ATOM     14  H32 UNL     1     -43.171  27.226 -18.025  1.00  0.00     0.174 HD
ATOM     15  H31 UNL     1     -44.021  28.771 -18.257  1.00  0.00     0.174 HD
ATOM     16  H4  UNL     1     -41.563  30.801 -18.060  1.00  0.00     0.177 HD
ATOM     17  H2  UNL     1     -40.291  27.799 -17.859  1.00  0.00     0.177 HD
BRANCH  13  18
HETATM   18  C10 UNL     1     -43.027  30.799 -16.440  1.00  0.00     0.166 C 
BRANCH  18  19
HETATM   19  C11 UNL     1     -43.690  31.996 -16.982  1.00  0.00     0.257 C 
BRANCH  19  20
HETATM   20  N5  UNL     1     -45.097  31.876 -17.233  1.00  0.00    -0.065 N 
HETATM   21  C21 UNL     1     -45.670  33.192 -17.503  1.00  0.00     0.237 C 
HETATM   22  C22 UNL     1     -46.113  33.778 -16.167  1.00  0.00     0.029 C 
HETATM   23  C23 UNL     1     -46.063  32.637 -15.219  1.00  0.00     0.029 C 
HETATM   24  C24 UNL     1     -45.787  31.452 -16.062  1.00  0.00     0.237 C 
BRANCH  20  25
HETATM   25  C12 UNL     1     -45.464  30.955 -18.267  1.00  0.00     0.242 C 
BRANCH  25  26
HETATM   26  C13 UNL     1     -45.688  31.667 -19.625  1.00  0.00     0.072 C 
BRANCH  26  27
HETATM   27  C14 UNL     1     -44.468  31.467 -20.380  1.00  0.00     0.058 C 
BRANCH  27  28
HETATM   28  N6  UNL     1     -44.166  30.295 -21.164  1.00  0.00    -0.390 N 
ATOM     29  H6  UNL     1     -44.562  29.381 -20.943  1.00  0.00     0.159 HD
BRANCH  28  30
HETATM   30  C15 UNL     1     -43.288  30.489 -22.255  1.00  0.00     0.166 C 
HETATM   31  C16 UNL     1     -43.826  31.502 -23.274  1.00  0.00     0.042 C 
BRANCH  30  32
HETATM   32  C17 UNL     1     -42.926  29.252 -22.976  1.00  0.00     0.206 C 
BRANCH  32  33
HETATM   33  O1  UNL     1     -41.910  28.603 -22.487  1.00  0.00    -0.338 OA
ATOM     34  H1  UNL     1     -41.824  27.704 -22.783  1.00  0.00     0.220 HD
ENDBRANCH  32  33
BRANCH  32  35
HETATM   35  N7  UNL     1     -43.640  28.810 -24.041  1.00  0.00    -0.427 NA
BRANCH  35  36
HETATM   36  C18 UNL     1     -44.382  28.338 -25.157  1.00  0.00     0.222 C 
BRANCH  36  37
HETATM   37  C19 UNL     1     -43.517  27.974 -26.339  1.00  0.00     0.060 C 
BRANCH  37  38
HETATM   38  C20 UNL     1     -43.283  29.234 -27.200  1.00  0.00     0.232 C 
BRANCH  38  39
HETATM   39  N8  UNL     1     -42.183  29.954 -26.546  1.00  0.00    -0.079 N 
ATOM     40  H83 UNL     1     -41.276  29.499 -26.647  1.00  0.00     0.274 HD
ATOM     41  H82 UNL     1     -41.929  30.827 -27.010  1.00  0.00     0.274 HD
ATOM     42  H81 UNL     1     -42.477  30.075 -25.576  1.00  0.00     0.274 HD
ENDBRANCH  38  39
ENDBRANCH  37  38
ENDBRANCH  36  37
ENDBRANCH  35  36
ENDBRANCH  32  35
ENDBRANCH  30  32
ENDBRANCH  28  30
ENDBRANCH  27  28
ENDBRANCH  26  27
ENDBRANCH  25  26
ENDBRANCH  20  25
ENDBRANCH  19  20
ENDBRANCH  18  19
ENDBRANCH  13  18
ENDBRANCH   9  10
ENDBRANCH   8   9
ENDBRANCH   7   8
ENDBRANCH   4   7
ENDBRANCH   3   4
TORSDOF 20
ENDMDL
