MODEL 1
REMARK VINA RESULT: -7.535681686      0.000      0.000
REMARK  20 active torsions:
REMARK  status: ('A' for Active; 'I' for Inactive)
REMARK    1  A    between atoms: C3_3  and  C4_4 
REMARK    2  A    between atoms: C4_4  and  C5_5 
REMARK    3  A    between atoms: C5_5  and  C6_6 
REMARK    4  A    between atoms: C6_6  and  N1_7 
REMARK    5  A    between atoms: N1_7  and  C7_9 
REMARK    6  A    between atoms: C7_9  and  C8_10 
REMARK    7  A    between atoms: C8_10  and  N2_11 
REMARK    8  A    between atoms: C13_18  and  C14_19 
REMARK    9  A    between atoms: C14_19  and  C15_20 
REMARK   10  A    between atoms: C15_20  and  N4_21 
REMARK   11  A    between atoms: C15_20  and  C22_31 
REMARK   12  A    between atoms: N4_21  and  C16_24 
REMARK   13  A    between atoms: C16_24  and  C17_25 
REMARK   14  A    between atoms: C17_25  and  C18_26 
REMARK   15  A    between atoms: C18_26  and  N5_27 
REMARK   16  A    between atoms: C22_31  and  N7_35 
REMARK   17  A    between atoms: N7_35  and  C23_37 
REMARK   18  A    between atoms: C23_37  and  C24_38 
REMARK   19  A    between atoms: C24_38  and  C25_39 
REMARK   20  A    between atoms: C25_39  and  N8_40 
ROOT
HETATM    1  C15 UNL     1      22.476   5.357  12.495  1.00  0.00     0.257 C 
ENDROOT
BRANCH   1   2
HETATM    2  C14 UNL     1      23.086   4.101  12.950  1.00  0.00     0.098 C 
BRANCH   2   3
HETATM    3  C13 UNL     1      24.484   4.032  13.339  1.00  0.00     0.018 A 
HETATM    4  C2  UNL     1      25.165   3.234  14.207  1.00  0.00    -0.032 A 
HETATM    5  C1  UNL     1      24.709   2.034  14.997  1.00  0.00     0.050 C 
HETATM    6  C3  UNL     1      26.511   3.621  14.254  1.00  0.00    -0.035 A 
HETATM    7  C12 UNL     1      26.601   4.682  13.376  1.00  0.00     0.095 A 
HETATM    8  N3  UNL     1      25.404   4.921  12.840  1.00  0.00    -0.368 N 
ATOM      9  H3  UNL     1      25.202   5.655  12.160  1.00  0.00     0.165 HD
BRANCH   6  10
HETATM   10  C4  UNL     1      27.636   3.067  15.009  1.00  0.00     0.042 C 
BRANCH  10  11
HETATM   11  C5  UNL     1      28.589   4.158  15.429  1.00  0.00     0.024 C 
BRANCH  11  12
HETATM   12  C6  UNL     1      29.924   3.926  14.682  1.00  0.00     0.114 C 
BRANCH  12  13
HETATM   13  N1  UNL     1      30.504   5.224  14.507  1.00  0.00    -0.420 N 
ATOM     14  H1  UNL     1      31.470   5.351  14.206  1.00  0.00     0.153 HD
BRANCH  13  15
HETATM   15  C7  UNL     1      29.638   6.331  14.783  1.00  0.00     0.141 C 
BRANCH  15  16
HETATM   16  C8  UNL     1      30.475   7.548  15.116  1.00  0.00     0.255 C 
BRANCH  16  17
HETATM   17  N2  UNL     1      30.465   7.928  16.485  1.00  0.00    -0.077 N 
HETATM   18  C9  UNL     1      30.545   9.362  16.682  1.00  0.00     0.271 C 
HETATM   19  C10 UNL     1      31.666   7.384  17.126  1.00  0.00     0.271 C 
HETATM   20  C11 UNL     1      29.350   7.388  17.243  1.00  0.00     0.271 C 
ENDBRANCH  16  17
ENDBRANCH  15  16
ENDBRANCH  13  15
ENDBRANCH  12  13
ENDBRANCH  11  12
ENDBRANCH  10  11
ENDBRANCH   6  10
ENDBRANCH   2   3
ENDBRANCH   1   2
BRANCH   1  21
HETATM   21  N4  UNL     1      21.220   5.030  11.761  1.00  0.00    -0.064 N 
ATOM     22  H42 UNL     1      20.405   5.291  12.317  1.00  0.00     0.278 HD
ATOM     23  H41 UNL     1      21.099   5.660  10.967  1.00  0.00     0.278 HD
BRANCH  21  24
HETATM   24  C16 UNL     1      21.118   3.690  11.343  1.00  0.00     0.235 C 
BRANCH  24  25
HETATM   25  C17 UNL     1      19.754   3.079  11.595  1.00  0.00     0.055 C 
BRANCH  25  26
HETATM   26  C18 UNL     1      19.765   1.587  11.547  1.00  0.00     0.237 C 
BRANCH  26  27
HETATM   27  N5  UNL     1      18.493   1.097  12.049  1.00  0.00    -0.079 N 
HETATM   28  C19 UNL     1      17.670   0.652  10.909  1.00  0.00     0.271 C 
HETATM   29  C20 UNL     1      18.774  -0.105  12.811  1.00  0.00     0.271 C 
HETATM   30  C21 UNL     1      17.786   2.048  12.858  1.00  0.00     0.271 C 
ENDBRANCH  26  27
ENDBRANCH  25  26
ENDBRANCH  24  25
ENDBRANCH  21  24
ENDBRANCH   1  21
BRANCH   1  31
HETATM   31  C22 UNL     1      22.143   6.453  13.359  1.00  0.00     0.102 C 
HETATM   32  N6  UNL     1      22.903   7.238  13.965  1.00  0.00    -0.387 N 
ATOM     33  H62 UNL     1      23.900   7.065  13.838  1.00  0.00     0.157 HD
ATOM     34  H61 UNL     1      22.666   8.018  14.579  1.00  0.00     0.157 HD
BRANCH  31  35
HETATM   35  N7  UNL     1      20.721   6.699  13.539  1.00  0.00    -0.378 N 
ATOM     36  H7  UNL     1      20.169   6.971  12.725  1.00  0.00     0.160 HD
BRANCH  35  37
HETATM   37  C23 UNL     1      20.059   6.578  14.807  1.00  0.00     0.122 C 
BRANCH  37  38
HETATM   38  C24 UNL     1      20.184   5.175  15.334  1.00  0.00     0.047 C 
BRANCH  38  39
HETATM   39  C25 UNL     1      20.995   5.130  16.617  1.00  0.00     0.231 C 
BRANCH  39  40
HETATM   40  N8  UNL     1      22.202   4.330  16.474  1.00  0.00    -0.079 N 
ATOM     41  H83 UNL     1      22.174   3.766  15.624  1.00  0.00     0.274 HD
ATOM     42  H82 UNL     1      23.009   4.914  16.253  1.00  0.00     0.274 HD
ATOM     43  H81 UNL     1      22.379   3.752  17.295  1.00  0.00     0.274 HD
ENDBRANCH  39  40
ENDBRANCH  38  39
ENDBRANCH  37  38
ENDBRANCH  35  37
ENDBRANCH  31  35
ENDBRANCH   1  31
TORSDOF 20
ENDMDL
MODEL 2
REMARK VINA RESULT: -7.458829706      0.844      1.228
REMARK  20 active torsions:
REMARK  status: ('A' for Active; 'I' for Inactive)
REMARK    1  A    between atoms: C3_3  and  C4_4 
REMARK    2  A    between atoms: C4_4  and  C5_5 
REMARK    3  A    between atoms: C5_5  and  C6_6 
REMARK    4  A    between atoms: C6_6  and  N1_7 
REMARK    5  A    between atoms: N1_7  and  C7_9 
REMARK    6  A    between atoms: C7_9  and  C8_10 
REMARK    7  A    between atoms: C8_10  and  N2_11 
REMARK    8  A    between atoms: C13_18  and  C14_19 
REMARK    9  A    between atoms: C14_19  and  C15_20 
REMARK   10  A    between atoms: C15_20  and  N4_21 
REMARK   11  A    between atoms: C15_20  and  C22_31 
REMARK   12  A    between atoms: N4_21  and  C16_24 
REMARK   13  A    between atoms: C16_24  and  C17_25 
REMARK   14  A    between atoms: C17_25  and  C18_26 
REMARK   15  A    between atoms: C18_26  and  N5_27 
REMARK   16  A    between atoms: C22_31  and  N7_35 
REMARK   17  A    between atoms: N7_35  and  C23_37 
REMARK   18  A    between atoms: C23_37  and  C24_38 
REMARK   19  A    between atoms: C24_38  and  C25_39 
REMARK   20  A    between atoms: C25_39  and  N8_40 
ROOT
HETATM    1  C15 UNL     1      22.466   5.349  12.478  1.00  0.00     0.257 C 
ENDROOT
BRANCH   1   2
HETATM    2  C14 UNL     1      23.074   4.088  12.921  1.00  0.00     0.098 C 
BRANCH   2   3
HETATM    3  C13 UNL     1      24.462   4.019  13.341  1.00  0.00     0.018 A 
HETATM    4  C2  UNL     1      25.122   3.231  14.234  1.00  0.00    -0.032 A 
HETATM    5  C1  UNL     1      24.644   2.041  15.029  1.00  0.00     0.050 C 
HETATM    6  C3  UNL     1      26.468   3.614  14.307  1.00  0.00    -0.035 A 
HETATM    7  C12 UNL     1      26.581   4.664  13.418  1.00  0.00     0.095 A 
HETATM    8  N3  UNL     1      25.397   4.899  12.852  1.00  0.00    -0.368 N 
ATOM      9  H3  UNL     1      25.213   5.625  12.158  1.00  0.00     0.165 HD
BRANCH   6  10
HETATM   10  C4  UNL     1      27.573   3.066  15.093  1.00  0.00     0.042 C 
BRANCH  10  11
HETATM   11  C5  UNL     1      28.900   3.545  14.560  1.00  0.00     0.024 C 
BRANCH  11  12
HETATM   12  C6  UNL     1      29.660   4.214  15.729  1.00  0.00     0.114 C 
BRANCH  12  13
HETATM   13  N1  UNL     1      29.119   5.537  15.841  1.00  0.00    -0.420 N 
ATOM     14  H1  UNL     1      28.431   5.783  16.551  1.00  0.00     0.153 HD
BRANCH  13  15
HETATM   15  C7  UNL     1      29.608   6.488  14.889  1.00  0.00     0.141 C 
BRANCH  15  16
HETATM   16  C8  UNL     1      31.101   6.300  14.717  1.00  0.00     0.255 C 
BRANCH  16  17
HETATM   17  N2  UNL     1      31.893   7.425  15.074  1.00  0.00    -0.077 N 
HETATM   18  C9  UNL     1      32.748   7.183  16.219  1.00  0.00     0.271 C 
HETATM   19  C10 UNL     1      30.997   8.510  15.486  1.00  0.00     0.271 C 
HETATM   20  C11 UNL     1      32.676   7.971  13.979  1.00  0.00     0.271 C 
ENDBRANCH  16  17
ENDBRANCH  15  16
ENDBRANCH  13  15
ENDBRANCH  12  13
ENDBRANCH  11  12
ENDBRANCH  10  11
ENDBRANCH   6  10
ENDBRANCH   2   3
ENDBRANCH   1   2
BRANCH   1  21
HETATM   21  N4  UNL     1      21.205   5.033  11.748  1.00  0.00    -0.064 N 
ATOM     22  H42 UNL     1      20.395   5.329  12.294  1.00  0.00     0.278 HD
ATOM     23  H41 UNL     1      21.102   5.643  10.937  1.00  0.00     0.278 HD
BRANCH  21  24
HETATM   24  C16 UNL     1      21.072   3.684  11.368  1.00  0.00     0.235 C 
BRANCH  24  25
HETATM   25  C17 UNL     1      19.732   3.080  11.738  1.00  0.00     0.055 C 
BRANCH  25  26
HETATM   26  C18 UNL     1      19.833   1.654  12.166  1.00  0.00     0.237 C 
BRANCH  26  27
HETATM   27  N5  UNL     1      18.491   1.124  12.338  1.00  0.00    -0.079 N 
HETATM   28  C19 UNL     1      17.899   0.889  11.007  1.00  0.00     0.271 C 
HETATM   29  C20 UNL     1      18.629  -0.192  12.933  1.00  0.00     0.271 C 
HETATM   30  C21 UNL     1      17.642   1.953  13.143  1.00  0.00     0.271 C 
ENDBRANCH  26  27
ENDBRANCH  25  26
ENDBRANCH  24  25
ENDBRANCH  21  24
ENDBRANCH   1  21
BRANCH   1  31
HETATM   31  C22 UNL     1      22.142   6.440  13.353  1.00  0.00     0.102 C 
HETATM   32  N6  UNL     1      22.908   7.213  13.966  1.00  0.00    -0.387 N 
ATOM     33  H62 UNL     1      23.904   7.033  13.838  1.00  0.00     0.157 HD
ATOM     34  H61 UNL     1      22.678   7.988  14.587  1.00  0.00     0.157 HD
BRANCH  31  35
HETATM   35  N7  UNL     1      20.722   6.696  13.534  1.00  0.00    -0.378 N 
ATOM     36  H7  UNL     1      20.172   6.978  12.723  1.00  0.00     0.160 HD
BRANCH  35  37
HETATM   37  C23 UNL     1      20.059   6.571  14.802  1.00  0.00     0.122 C 
BRANCH  37  38
HETATM   38  C24 UNL     1      20.166   5.162  15.315  1.00  0.00     0.047 C 
BRANCH  38  39
HETATM   39  C25 UNL     1      20.951   5.099  16.613  1.00  0.00     0.231 C 
BRANCH  39  40
HETATM   40  N8  UNL     1      22.181   4.332  16.472  1.00  0.00    -0.079 N 
ATOM     41  H83 UNL     1      22.016   3.337  16.628  1.00  0.00     0.274 HD
ATOM     42  H82 UNL     1      22.484   4.295  15.499  1.00  0.00     0.274 HD
ATOM     43  H81 UNL     1      22.923   4.683  17.077  1.00  0.00     0.274 HD
ENDBRANCH  39  40
ENDBRANCH  38  39
ENDBRANCH  37  38
ENDBRANCH  35  37
ENDBRANCH  31  35
ENDBRANCH   1  31
TORSDOF 20
ENDMDL
MODEL 3
REMARK VINA RESULT: -7.450789360      1.808      4.354
REMARK  20 active torsions:
REMARK  status: ('A' for Active; 'I' for Inactive)
REMARK    1  A    between atoms: C3_3  and  C4_4 
REMARK    2  A    between atoms: C4_4  and  C5_5 
REMARK    3  A    between atoms: C5_5  and  C6_6 
REMARK    4  A    between atoms: C6_6  and  N1_7 
REMARK    5  A    between atoms: N1_7  and  C7_9 
REMARK    6  A    between atoms: C7_9  and  C8_10 
REMARK    7  A    between atoms: C8_10  and  N2_11 
REMARK    8  A    between atoms: C13_18  and  C14_19 
REMARK    9  A    between atoms: C14_19  and  C15_20 
REMARK   10  A    between atoms: C15_20  and  N4_21 
REMARK   11  A    between atoms: C15_20  and  C22_31 
REMARK   12  A    between atoms: N4_21  and  C16_24 
REMARK   13  A    between atoms: C16_24  and  C17_25 
REMARK   14  A    between atoms: C17_25  and  C18_26 
REMARK   15  A    between atoms: C18_26  and  N5_27 
REMARK   16  A    between atoms: C22_31  and  N7_35 
REMARK   17  A    between atoms: N7_35  and  C23_37 
REMARK   18  A    between atoms: C23_37  and  C24_38 
REMARK   19  A    between atoms: C24_38  and  C25_39 
REMARK   20  A    between atoms: C25_39  and  N8_40 
ROOT
HETATM    1  C15 UNL     1      24.039   3.872  14.342  1.00  0.00     0.257 C 
ENDROOT
BRANCH   1   2
HETATM    2  C14 UNL     1      25.115   4.246  13.416  1.00  0.00     0.098 C 
BRANCH   2   3
HETATM    3  C13 UNL     1      26.458   4.535  13.888  1.00  0.00     0.018 A 
HETATM    4  C2  UNL     1      27.369   3.807  14.591  1.00  0.00    -0.032 A 
HETATM    5  C1  UNL     1      27.341   2.364  15.031  1.00  0.00     0.050 C 
HETATM    6  C3  UNL     1      28.510   4.582  14.838  1.00  0.00    -0.035 A 
HETATM    7  C12 UNL     1      28.239   5.801  14.251  1.00  0.00     0.095 A 
HETATM    8  N3  UNL     1      27.029   5.769  13.693  1.00  0.00    -0.368 N 
ATOM      9  H3  UNL     1      26.592   6.545  13.195  1.00  0.00     0.165 HD
BRANCH   6  10
HETATM   10  C4  UNL     1      29.758   4.248  15.526  1.00  0.00     0.042 C 
BRANCH  10  11
HETATM   11  C5  UNL     1      30.935   4.373  14.592  1.00  0.00     0.024 C 
BRANCH  11  12
HETATM   12  C6  UNL     1      32.148   4.844  15.428  1.00  0.00     0.114 C 
BRANCH  12  13
HETATM   13  N1  UNL     1      32.767   5.887  14.664  1.00  0.00    -0.420 N 
ATOM     14  H1  UNL     1      33.317   5.694  13.827  1.00  0.00     0.153 HD
BRANCH  13  15
HETATM   15  C7  UNL     1      32.564   7.217  15.154  1.00  0.00     0.141 C 
BRANCH  15  16
HETATM   16  C8  UNL     1      32.301   7.165  16.644  1.00  0.00     0.255 C 
BRANCH  16  17
HETATM   17  N2  UNL     1      31.195   7.941  17.086  1.00  0.00    -0.077 N 
HETATM   18  C9  UNL     1      30.233   7.179  17.857  1.00  0.00     0.271 C 
HETATM   19  C10 UNL     1      30.459   8.412  15.909  1.00  0.00     0.271 C 
HETATM   20  C11 UNL     1      31.565   9.144  17.811  1.00  0.00     0.271 C 
ENDBRANCH  16  17
ENDBRANCH  15  16
ENDBRANCH  13  15
ENDBRANCH  12  13
ENDBRANCH  11  12
ENDBRANCH  10  11
ENDBRANCH   6  10
ENDBRANCH   2   3
ENDBRANCH   1   2
BRANCH   1  21
HETATM   21  N4  UNL     1      22.805   4.615  13.953  1.00  0.00    -0.064 N 
ATOM     22  H42 UNL     1      22.179   4.010  13.420  1.00  0.00     0.278 HD
ATOM     23  H41 UNL     1      22.224   4.791  14.773  1.00  0.00     0.278 HD
BRANCH  21  24
HETATM   24  C16 UNL     1      23.040   5.813  13.253  1.00  0.00     0.235 C 
BRANCH  24  25
HETATM   25  C17 UNL     1      22.062   6.919  13.600  1.00  0.00     0.055 C 
BRANCH  25  26
HETATM   26  C18 UNL     1      20.755   6.404  14.103  1.00  0.00     0.237 C 
BRANCH  26  27
HETATM   27  N5  UNL     1      20.468   7.035  15.380  1.00  0.00    -0.079 N 
HETATM   28  C19 UNL     1      21.129   8.353  15.418  1.00  0.00     0.271 C 
HETATM   29  C20 UNL     1      19.046   7.319  15.401  1.00  0.00     0.271 C 
HETATM   30  C21 UNL     1      20.837   6.237  16.514  1.00  0.00     0.271 C 
ENDBRANCH  26  27
ENDBRANCH  25  26
ENDBRANCH  24  25
ENDBRANCH  21  24
ENDBRANCH   1  21
BRANCH   1  31
HETATM   31  C22 UNL     1      23.615   2.523  14.586  1.00  0.00     0.102 C 
HETATM   32  N6  UNL     1      23.346   1.966  15.671  1.00  0.00    -0.387 N 
ATOM     33  H62 UNL     1      23.458   2.549  16.501  1.00  0.00     0.157 HD
ATOM     34  H61 UNL     1      23.044   1.007  15.845  1.00  0.00     0.157 HD
BRANCH  31  35
HETATM   35  N7  UNL     1      23.454   1.693  13.403  1.00  0.00    -0.378 N 
ATOM     36  H7  UNL     1      24.291   1.393  12.903  1.00  0.00     0.160 HD
BRANCH  35  37
HETATM   37  C23 UNL     1      22.173   1.275  12.906  1.00  0.00     0.122 C 
BRANCH  37  38
HETATM   38  C24 UNL     1      21.836   2.009  11.638  1.00  0.00     0.047 C 
BRANCH  38  39
HETATM   39  C25 UNL     1      20.558   2.818  11.784  1.00  0.00     0.231 C 
BRANCH  39  40
HETATM   40  N8  UNL     1      20.649   4.109  11.119  1.00  0.00    -0.079 N 
ATOM     41  H83 UNL     1      20.946   4.005  10.149  1.00  0.00     0.274 HD
ATOM     42  H82 UNL     1      19.724   4.510  10.962  1.00  0.00     0.274 HD
ATOM     43  H81 UNL     1      21.252   4.759  11.623  1.00  0.00     0.274 HD
ENDBRANCH  39  40
ENDBRANCH  38  39
ENDBRANCH  37  38
ENDBRANCH  35  37
ENDBRANCH  31  35
ENDBRANCH   1  31
TORSDOF 20
ENDMDL
MODEL 4
REMARK VINA RESULT: -7.434179843      1.115      1.729
REMARK  20 active torsions:
REMARK  status: ('A' for Active; 'I' for Inactive)
REMARK    1  A    between atoms: C3_3  and  C4_4 
REMARK    2  A    between atoms: C4_4  and  C5_5 
REMARK    3  A    between atoms: C5_5  and  C6_6 
REMARK    4  A    between atoms: C6_6  and  N1_7 
REMARK    5  A    between atoms: N1_7  and  C7_9 
REMARK    6  A    between atoms: C7_9  and  C8_10 
REMARK    7  A    between atoms: C8_10  and  N2_11 
REMARK    8  A    between atoms: C13_18  and  C14_19 
REMARK    9  A    between atoms: C14_19  and  C15_20 
REMARK   10  A    between atoms: C15_20  and  N4_21 
REMARK   11  A    between atoms: C15_20  and  C22_31 
REMARK   12  A    between atoms: N4_21  and  C16_24 
REMARK   13  A    between atoms: C16_24  and  C17_25 
REMARK   14  A    between atoms: C17_25  and  C18_26 
REMARK   15  A    between atoms: C18_26  and  N5_27 
REMARK   16  A    between atoms: C22_31  and  N7_35 
REMARK   17  A    between atoms: N7_35  and  C23_37 
REMARK   18  A    between atoms: C23_37  and  C24_38 
REMARK   19  A    between atoms: C24_38  and  C25_39 
REMARK   20  A    between atoms: C25_39  and  N8_40 
ROOT
HETATM    1  C15 UNL     1      21.633   4.706  12.007  1.00  0.00     0.257 C 
ENDROOT
BRANCH   1   2
HETATM    2  C14 UNL     1      22.228   3.779  12.977  1.00  0.00     0.098 C 
BRANCH   2   3
HETATM    3  C13 UNL     1      23.643   3.822  13.300  1.00  0.00     0.018 A 
HETATM    4  C2  UNL     1      24.430   3.071  14.120  1.00  0.00    -0.032 A 
HETATM    5  C1  UNL     1      24.113   1.823  14.905  1.00  0.00     0.050 C 
HETATM    6  C3  UNL     1      25.739   3.570  14.114  1.00  0.00    -0.035 A 
HETATM    7  C12 UNL     1      25.698   4.649  13.254  1.00  0.00     0.095 A 
HETATM    8  N3  UNL     1      24.462   4.795  12.778  1.00  0.00    -0.368 N 
ATOM      9  H3  UNL     1      24.167   5.520  12.123  1.00  0.00     0.165 HD
BRANCH   6  10
HETATM   10  C4  UNL     1      26.941   3.101  14.805  1.00  0.00     0.042 C 
BRANCH  10  11
HETATM   11  C5  UNL     1      27.900   4.239  15.045  1.00  0.00     0.024 C 
BRANCH  11  12
HETATM   12  C6  UNL     1      29.308   3.763  14.617  1.00  0.00     0.114 C 
BRANCH  12  13
HETATM   13  N1  UNL     1      30.104   4.949  14.508  1.00  0.00    -0.420 N 
ATOM     14  H1  UNL     1      31.116   4.915  14.388  1.00  0.00     0.153 HD
BRANCH  13  15
HETATM   15  C7  UNL     1      29.386   6.186  14.579  1.00  0.00     0.141 C 
BRANCH  15  16
HETATM   16  C8  UNL     1      30.361   7.315  14.842  1.00  0.00     0.255 C 
BRANCH  16  17
HETATM   17  N2  UNL     1      30.486   7.696  16.205  1.00  0.00    -0.077 N 
HETATM   18  C9  UNL     1      29.313   7.384  16.996  1.00  0.00     0.271 C 
HETATM   19  C10 UNL     1      30.615   9.156  16.267  1.00  0.00     0.271 C 
HETATM   20  C11 UNL     1      31.675   7.180  16.860  1.00  0.00     0.271 C 
ENDBRANCH  16  17
ENDBRANCH  15  16
ENDBRANCH  13  15
ENDBRANCH  12  13
ENDBRANCH  11  12
ENDBRANCH  10  11
ENDBRANCH   6  10
ENDBRANCH   2   3
ENDBRANCH   1   2
BRANCH   1  21
HETATM   21  N4  UNL     1      20.897   3.909  10.984  1.00  0.00    -0.064 N 
ATOM     22  H42 UNL     1      19.891   4.051  11.078  1.00  0.00     0.278 HD
ATOM     23  H41 UNL     1      21.044   4.303  10.054  1.00  0.00     0.278 HD
BRANCH  21  24
HETATM   24  C16 UNL     1      21.199   2.534  10.986  1.00  0.00     0.235 C 
BRANCH  24  25
HETATM   25  C17 UNL     1      19.972   1.645  11.038  1.00  0.00     0.055 C 
BRANCH  25  26
HETATM   26  C18 UNL     1      19.104   1.918  12.222  1.00  0.00     0.237 C 
BRANCH  26  27
HETATM   27  N5  UNL     1      17.728   1.616  11.867  1.00  0.00    -0.079 N 
HETATM   28  C19 UNL     1      17.000   1.212  13.085  1.00  0.00     0.271 C 
HETATM   29  C20 UNL     1      17.115   2.864  11.451  1.00  0.00     0.271 C 
HETATM   30  C21 UNL     1      17.600   0.627  10.836  1.00  0.00     0.271 C 
ENDBRANCH  26  27
ENDBRANCH  25  26
ENDBRANCH  24  25
ENDBRANCH  21  24
ENDBRANCH   1  21
BRANCH   1  31
HETATM   31  C22 UNL     1      20.755   5.787  12.356  1.00  0.00     0.102 C 
HETATM   32  N6  UNL     1      19.510   5.788  12.462  1.00  0.00    -0.387 N 
ATOM     33  H62 UNL     1      19.054   4.899  12.257  1.00  0.00     0.157 HD
ATOM     34  H61 UNL     1      18.886   6.556  12.710  1.00  0.00     0.157 HD
BRANCH  31  35
HETATM   35  N7  UNL     1      21.406   7.054  12.649  1.00  0.00    -0.378 N 
ATOM     36  H7  UNL     1      21.380   7.788  11.941  1.00  0.00     0.160 HD
BRANCH  35  37
HETATM   37  C23 UNL     1      22.085   7.319  13.886  1.00  0.00     0.122 C 
BRANCH  37  38
HETATM   38  C24 UNL     1      21.137   7.920  14.887  1.00  0.00     0.047 C 
BRANCH  38  39
HETATM   39  C25 UNL     1      20.931   7.003  16.081  1.00  0.00     0.231 C 
BRANCH  39  40
HETATM   40  N8  UNL     1      21.660   5.752  15.942  1.00  0.00    -0.079 N 
ATOM     41  H83 UNL     1      22.644   5.868  16.184  1.00  0.00     0.274 HD
ATOM     42  H82 UNL     1      21.394   5.086  16.668  1.00  0.00     0.274 HD
ATOM     43  H81 UNL     1      21.554   5.346  15.012  1.00  0.00     0.274 HD
ENDBRANCH  39  40
ENDBRANCH  38  39
ENDBRANCH  37  38
ENDBRANCH  35  37
ENDBRANCH  31  35
ENDBRANCH   1  31
TORSDOF 20
ENDMDL
MODEL 5
REMARK VINA RESULT: -7.400758986      1.305      2.237
REMARK  20 active torsions:
REMARK  status: ('A' for Active; 'I' for Inactive)
REMARK    1  A    between atoms: C3_3  and  C4_4 
REMARK    2  A    between atoms: C4_4  and  C5_5 
REMARK    3  A    between atoms: C5_5  and  C6_6 
REMARK    4  A    between atoms: C6_6  and  N1_7 
REMARK    5  A    between atoms: N1_7  and  C7_9 
REMARK    6  A    between atoms: C7_9  and  C8_10 
REMARK    7  A    between atoms: C8_10  and  N2_11 
REMARK    8  A    between atoms: C13_18  and  C14_19 
REMARK    9  A    between atoms: C14_19  and  C15_20 
REMARK   10  A    between atoms: C15_20  and  N4_21 
REMARK   11  A    between atoms: C15_20  and  C22_31 
REMARK   12  A    between atoms: N4_21  and  C16_24 
REMARK   13  A    between atoms: C16_24  and  C17_25 
REMARK   14  A    between atoms: C17_25  and  C18_26 
REMARK   15  A    between atoms: C18_26  and  N5_27 
REMARK   16  A    between atoms: C22_31  and  N7_35 
REMARK   17  A    between atoms: N7_35  and  C23_37 
REMARK   18  A    between atoms: C23_37  and  C24_38 
REMARK   19  A    between atoms: C24_38  and  C25_39 
REMARK   20  A    between atoms: C25_39  and  N8_40 
ROOT
HETATM    1  C15 UNL     1      22.459   3.702  13.968  1.00  0.00     0.257 C 
ENDROOT
BRANCH   1   2
HETATM    2  C14 UNL     1      23.589   4.024  13.087  1.00  0.00     0.098 C 
BRANCH   2   3
HETATM    3  C13 UNL     1      24.943   4.137  13.598  1.00  0.00     0.018 A 
HETATM    4  C2  UNL     1      25.777   3.256  14.218  1.00  0.00    -0.032 A 
HETATM    5  C1  UNL     1      25.616   1.781  14.485  1.00  0.00     0.050 C 
HETATM    6  C3  UNL     1      26.976   3.894  14.561  1.00  0.00    -0.035 A 
HETATM    7  C12 UNL     1      26.821   5.193  14.118  1.00  0.00     0.095 A 
HETATM    8  N3  UNL     1      25.622   5.331  13.553  1.00  0.00    -0.368 N 
ATOM      9  H3  UNL     1      25.261   6.195  13.146  1.00  0.00     0.165 HD
BRANCH   6  10
HETATM   10  C4  UNL     1      28.179   3.375  15.212  1.00  0.00     0.042 C 
BRANCH  10  11
HETATM   11  C5  UNL     1      29.420   3.830  14.487  1.00  0.00     0.024 C 
BRANCH  11  12
HETATM   12  C6  UNL     1      30.385   4.425  15.540  1.00  0.00     0.114 C 
BRANCH  12  13
HETATM   13  N1  UNL     1      31.582   4.761  14.826  1.00  0.00    -0.420 N 
ATOM     14  H1  UNL     1      31.892   4.236  14.008  1.00  0.00     0.153 HD
BRANCH  13  15
HETATM   15  C7  UNL     1      32.314   5.880  15.337  1.00  0.00     0.141 C 
BRANCH  15  16
HETATM   16  C8  UNL     1      31.598   6.431  16.553  1.00  0.00     0.255 C 
BRANCH  16  17
HETATM   17  N2  UNL     1      31.253   7.808  16.474  1.00  0.00    -0.077 N 
HETATM   18  C9  UNL     1      32.027   8.644  17.370  1.00  0.00     0.271 C 
HETATM   19  C10 UNL     1      29.861   7.961  16.910  1.00  0.00     0.271 C 
HETATM   20  C11 UNL     1      31.295   8.355  15.129  1.00  0.00     0.271 C 
ENDBRANCH  16  17
ENDBRANCH  15  16
ENDBRANCH  13  15
ENDBRANCH  12  13
ENDBRANCH  11  12
ENDBRANCH  10  11
ENDBRANCH   6  10
ENDBRANCH   2   3
ENDBRANCH   1   2
BRANCH   1  21
HETATM   21  N4  UNL     1      22.108   2.265  13.777  1.00  0.00    -0.064 N 
ATOM     22  H42 UNL     1      22.635   1.681  14.426  1.00  0.00     0.278 HD
ATOM     23  H41 UNL     1      21.160   2.084  14.107  1.00  0.00     0.278 HD
BRANCH  21  24
HETATM   24  C16 UNL     1      22.265   1.795  12.459  1.00  0.00     0.235 C 
BRANCH  24  25
HETATM   25  C17 UNL     1      20.967   1.736  11.679  1.00  0.00     0.055 C 
BRANCH  25  26
HETATM   26  C18 UNL     1      19.878   1.024  12.410  1.00  0.00     0.237 C 
BRANCH  26  27
HETATM   27  N5  UNL     1      18.600   1.572  11.989  1.00  0.00    -0.079 N 
HETATM   28  C19 UNL     1      18.846   2.695  11.064  1.00  0.00     0.271 C 
HETATM   29  C20 UNL     1      17.948   0.553  11.188  1.00  0.00     0.271 C 
HETATM   30  C21 UNL     1      17.755   1.972  13.076  1.00  0.00     0.271 C 
ENDBRANCH  26  27
ENDBRANCH  25  26
ENDBRANCH  24  25
ENDBRANCH  21  24
ENDBRANCH   1  21
BRANCH   1  31
HETATM   31  C22 UNL     1      22.456   3.912  15.388  1.00  0.00     0.102 C 
HETATM   32  N6  UNL     1      22.924   3.189  16.292  1.00  0.00    -0.387 N 
ATOM     33  H62 UNL     1      23.357   2.321  15.978  1.00  0.00     0.157 HD
ATOM     34  H61 UNL     1      22.922   3.339  17.302  1.00  0.00     0.157 HD
BRANCH  31  35
HETATM   35  N7  UNL     1      21.839   5.151  15.836  1.00  0.00    -0.378 N 
ATOM     36  H7  UNL     1      22.125   5.538  16.735  1.00  0.00     0.160 HD
BRANCH  35  37
HETATM   37  C23 UNL     1      20.848   5.854  15.072  1.00  0.00     0.122 C 
BRANCH  37  38
HETATM   38  C24 UNL     1      21.329   7.238  14.732  1.00  0.00     0.047 C 
BRANCH  38  39
HETATM   39  C25 UNL     1      22.000   7.277  13.370  1.00  0.00     0.231 C 
BRANCH  39  40
HETATM   40  N8  UNL     1      21.093   6.882  12.302  1.00  0.00    -0.079 N 
ATOM     41  H83 UNL     1      21.468   6.096  11.770  1.00  0.00     0.274 HD
ATOM     42  H82 UNL     1      20.254   6.438  12.675  1.00  0.00     0.274 HD
ATOM     43  H81 UNL     1      20.857   7.663  11.690  1.00  0.00     0.274 HD
ENDBRANCH  39  40
ENDBRANCH  38  39
ENDBRANCH  37  38
ENDBRANCH  35  37
ENDBRANCH  31  35
ENDBRANCH   1  31
TORSDOF 20
ENDMDL
