MODEL 1
REMARK VINA RESULT: -8.294654339      0.000      0.000
REMARK  19 active torsions:
REMARK  status: ('A' for Active; 'I' for Inactive)
REMARK    1  A    between atoms: C2_2  and  C3_3 
REMARK    2  A    between atoms: C3_3  and  C4_4 
REMARK    3  A    between atoms: C4_4  and  C5_5 
REMARK    4  A    between atoms: C4_4  and  N6_31 
REMARK    5  A    between atoms: C5_5  and  N1_6 
REMARK       I    between atoms: N1_6  and  C6_8 
REMARK    6  A    between atoms: N3_10  and  C7_12 
REMARK    7  A    between atoms: C7_12  and  C8_13 
REMARK    8  A    between atoms: C8_13  and  C9_14 
REMARK    9  A    between atoms: C9_14  and  C10_15 
REMARK   10  A    between atoms: C10_15  and  C11_16 
REMARK   11  A    between atoms: C11_16  and  N4_17 
REMARK   12  A    between atoms: N4_17  and  C12_18 
REMARK   13  A    between atoms: C12_18  and  C13_19 
REMARK   14  A    between atoms: C13_19  and  C14_20 
REMARK   15  A    between atoms: C19_25  and  N5_26 
REMARK       I    between atoms: N6_31  and  C21_33 
REMARK   16  A    between atoms: C21_33  and  C22_35 
REMARK   17  A    between atoms: C22_35  and  N7_36 
REMARK   18  A    between atoms: N7_36  and  C23_38 
REMARK   19  A    between atoms: N8_39  and  N9_41 
ROOT
HETATM    1  N1  UNL     1      22.933   3.794  16.167  1.00  0.00    -0.363 N 
ATOM      2  H1  UNL     1      23.115   3.989  17.152  1.00  0.00     0.162 HD
HETATM    3  C6  UNL     1      23.883   3.038  15.402  1.00  0.00     0.184 C 
HETATM    4  N2  UNL     1      23.663   1.642  15.160  1.00  0.00    -0.064 NA
HETATM    5  N3  UNL     1      24.907   3.623  14.944  1.00  0.00    -0.365 N 
ATOM      6  H3  UNL     1      24.982   4.617  15.159  1.00  0.00     0.162 HD
ENDROOT
BRANCH   1   7
HETATM    7  C5  UNL     1      21.726   4.278  15.557  1.00  0.00     0.147 C 
BRANCH   7   8
HETATM    8  C4  UNL     1      21.787   5.090  14.356  1.00  0.00     0.102 C 
BRANCH   8   9
HETATM    9  C3  UNL     1      21.171   6.379  14.143  1.00  0.00     0.026 C 
BRANCH   9  10
HETATM   10  C2  UNL     1      21.644   7.677  14.602  1.00  0.00    -0.002 C 
HETATM   11  C1  UNL     1      20.874   8.389  15.677  1.00  0.00     0.005 C 
ENDBRANCH   9  10
ENDBRANCH   8   9
BRANCH   8  12
HETATM   12  N6  UNL     1      21.234   4.210  13.261  1.00  0.00    -0.353 N 
HETATM   13  C21 UNL     1      22.028   3.713  12.224  1.00  0.00     0.235 C 
HETATM   14  O1  UNL     1      23.249   3.998  12.190  1.00  0.00    -0.272 OA
ATOM     15  H6  UNL     1      20.243   3.968  13.280  1.00  0.00     0.163 HD
BRANCH  13  16
HETATM   16  C22 UNL     1      21.473   2.863  11.163  1.00  0.00     0.223 C 
BRANCH  16  17
HETATM   17  N7  UNL     1      20.205   2.247  11.463  1.00  0.00    -0.376 N 
ATOM     18  H7  UNL     1      20.123   1.599  12.246  1.00  0.00     0.160 HD
BRANCH  17  19
HETATM   19  C23 UNL     1      19.071   2.548  10.662  1.00  0.00     0.194 C 
HETATM   20  N8  UNL     1      19.180   2.867   9.410  1.00  0.00    -0.283 N 
ATOM     21  H8  UNL     1      20.113   2.900   9.000  1.00  0.00     0.189 HD
BRANCH  20  22
HETATM   22  N9  UNL     1      18.103   3.164   8.606  1.00  0.00    -0.248 N 
HETATM   23  N10 UNL     1      17.100   3.834   8.965  1.00  0.00    -0.331 N 
ATOM     24 2H10 UNL     1      17.102   4.175   9.927  1.00  0.00     0.178 HD
ATOM     25 1H10 UNL     1      16.302   4.054   8.370  1.00  0.00     0.178 HD
ATOM     26  H9  UNL     1      18.119   2.814   7.649  1.00  0.00     0.207 HD
ENDBRANCH  20  22
ENDBRANCH  17  19
ENDBRANCH  16  17
ENDBRANCH  13  16
ENDBRANCH   8  12
ENDBRANCH   7   8
ENDBRANCH   1   7
BRANCH   5  27
HETATM   27  C7  UNL     1      25.977   3.074  14.163  1.00  0.00     0.122 C 
BRANCH  27  28
HETATM   28  C8  UNL     1      27.190   2.736  14.958  1.00  0.00     0.020 C 
BRANCH  28  29
HETATM   29  C9  UNL     1      28.404   3.533  14.524  1.00  0.00     0.003 C 
BRANCH  29  30
HETATM   30  C10 UNL     1      29.153   4.033  15.765  1.00  0.00     0.028 C 
BRANCH  30  31
HETATM   31  C11 UNL     1      28.897   5.514  15.837  1.00  0.00     0.237 C 
BRANCH  31  32
HETATM   32  N4  UNL     1      30.071   6.333  15.752  1.00  0.00    -0.065 N 
HETATM   33  C17 UNL     1      30.145   6.861  14.384  1.00  0.00     0.239 C 
HETATM   34  C18 UNL     1      31.556   7.328  14.259  1.00  0.00     0.062 C 
HETATM   35  C19 UNL     1      32.339   6.381  15.112  1.00  0.00     0.211 C 
HETATM   36  C20 UNL     1      31.305   5.634  15.965  1.00  0.00     0.270 C 
BRANCH  32  37
HETATM   37  C12 UNL     1      30.034   7.491  16.612  1.00  0.00     0.238 C 
BRANCH  37  38
HETATM   38  C13 UNL     1      30.287   7.235  18.057  1.00  0.00     0.032 C 
BRANCH  38  39
HETATM   39  C14 UNL     1      29.049   7.505  18.904  1.00  0.00    -0.021 C 
HETATM   40  C15 UNL     1      29.238   7.112  20.336  1.00  0.00     0.009 C 
HETATM   41  C16 UNL     1      28.764   8.990  18.800  1.00  0.00     0.009 C 
ENDBRANCH  38  39
ENDBRANCH  37  38
ENDBRANCH  32  37
BRANCH  35  42
HETATM   42  N5  UNL     1      33.306   7.066  15.928  1.00  0.00    -0.073 N 
ATOM     43  H53 UNL     1      33.534   7.982  15.542  1.00  0.00     0.274 HD
ATOM     44  H52 UNL     1      32.899   7.362  16.815  1.00  0.00     0.274 HD
ATOM     45  H51 UNL     1      34.146   6.506  16.074  1.00  0.00     0.274 HD
ENDBRANCH  35  42
ENDBRANCH  31  32
ENDBRANCH  30  31
ENDBRANCH  29  30
ENDBRANCH  28  29
ENDBRANCH  27  28
ENDBRANCH   5  27
TORSDOF 19
ENDMDL
MODEL 2
REMARK VINA RESULT: -8.230487939      5.620      9.548
REMARK  19 active torsions:
REMARK  status: ('A' for Active; 'I' for Inactive)
REMARK    1  A    between atoms: C2_2  and  C3_3 
REMARK    2  A    between atoms: C3_3  and  C4_4 
REMARK    3  A    between atoms: C4_4  and  C5_5 
REMARK    4  A    between atoms: C4_4  and  N6_31 
REMARK    5  A    between atoms: C5_5  and  N1_6 
REMARK       I    between atoms: N1_6  and  C6_8 
REMARK    6  A    between atoms: N3_10  and  C7_12 
REMARK    7  A    between atoms: C7_12  and  C8_13 
REMARK    8  A    between atoms: C8_13  and  C9_14 
REMARK    9  A    between atoms: C9_14  and  C10_15 
REMARK   10  A    between atoms: C10_15  and  C11_16 
REMARK   11  A    between atoms: C11_16  and  N4_17 
REMARK   12  A    between atoms: N4_17  and  C12_18 
REMARK   13  A    between atoms: C12_18  and  C13_19 
REMARK   14  A    between atoms: C13_19  and  C14_20 
REMARK   15  A    between atoms: C19_25  and  N5_26 
REMARK       I    between atoms: N6_31  and  C21_33 
REMARK   16  A    between atoms: C21_33  and  C22_35 
REMARK   17  A    between atoms: C22_35  and  N7_36 
REMARK   18  A    between atoms: N7_36  and  C23_38 
REMARK   19  A    between atoms: N8_39  and  N9_41 
ROOT
HETATM    1  N1  UNL     1      32.109   5.912  14.389  1.00  0.00    -0.363 N 
ATOM      2  H1  UNL     1      32.391   5.129  13.800  1.00  0.00     0.162 HD
HETATM    3  C6  UNL     1      32.407   7.255  13.980  1.00  0.00     0.184 C 
HETATM    4  N2  UNL     1      31.396   8.060  13.360  1.00  0.00    -0.064 NA
HETATM    5  N3  UNL     1      33.569   7.715  14.181  1.00  0.00    -0.365 N 
ATOM      6  H3  UNL     1      34.224   7.077  14.633  1.00  0.00     0.162 HD
ENDROOT
BRANCH   1   7
HETATM    7  C5  UNL     1      31.415   5.663  15.621  1.00  0.00     0.147 C 
BRANCH   7   8
HETATM    8  C4  UNL     1      30.047   6.114  15.796  1.00  0.00     0.102 C 
BRANCH   8   9
HETATM    9  C3  UNL     1      29.454   6.655  16.998  1.00  0.00     0.026 C 
BRANCH   9  10
HETATM   10  C2  UNL     1      30.136   7.280  18.122  1.00  0.00    -0.002 C 
HETATM   11  C1  UNL     1      29.461   7.290  19.463  1.00  0.00     0.005 C 
ENDBRANCH   9  10
ENDBRANCH   8   9
BRANCH   8  12
HETATM   12  N6  UNL     1      29.193   4.920  15.446  1.00  0.00    -0.353 N 
HETATM   13  C21 UNL     1      28.159   4.986  14.508  1.00  0.00     0.235 C 
HETATM   14  O1  UNL     1      27.923   6.070  13.923  1.00  0.00    -0.272 OA
ATOM     15  H6  UNL     1      29.378   4.031  15.912  1.00  0.00     0.163 HD
BRANCH  13  16
HETATM   16  C22 UNL     1      27.334   3.815  14.182  1.00  0.00     0.223 C 
BRANCH  16  17
HETATM   17  N7  UNL     1      25.974   3.865  14.654  1.00  0.00    -0.376 N 
ATOM     18  H7  UNL     1      25.763   3.671  15.632  1.00  0.00     0.160 HD
BRANCH  17  19
HETATM   19  C23 UNL     1      24.927   4.187  13.748  1.00  0.00     0.194 C 
HETATM   20  N8  UNL     1      24.824   5.360  13.208  1.00  0.00    -0.283 N 
ATOM     21  H8  UNL     1      25.520   6.066  13.448  1.00  0.00     0.189 HD
BRANCH  20  22
HETATM   22  N9  UNL     1      23.823   5.705  12.327  1.00  0.00    -0.248 N 
HETATM   23  N10 UNL     1      22.898   6.521  12.572  1.00  0.00    -0.331 N 
ATOM     24 2H10 UNL     1      22.905   6.951  13.498  1.00  0.00     0.178 HD
ATOM     25 1H10 UNL     1      22.157   6.776  11.920  1.00  0.00     0.178 HD
ATOM     26  H9  UNL     1      23.833   5.265  11.407  1.00  0.00     0.207 HD
ENDBRANCH  20  22
ENDBRANCH  17  19
ENDBRANCH  16  17
ENDBRANCH  13  16
ENDBRANCH   8  12
ENDBRANCH   7   8
ENDBRANCH   1   7
BRANCH   5  27
HETATM   27  C7  UNL     1      34.086   9.013  13.860  1.00  0.00     0.122 C 
BRANCH  27  28
HETATM   28  C8  UNL     1      35.096   9.003  12.765  1.00  0.00     0.020 C 
BRANCH  28  29
HETATM   29  C9  UNL     1      36.228   9.979  13.017  1.00  0.00     0.003 C 
BRANCH  29  30
HETATM   30  C10 UNL     1      36.613   9.936  14.501  1.00  0.00     0.028 C 
BRANCH  30  31
HETATM   31  C11 UNL     1      37.372  11.207  14.771  1.00  0.00     0.237 C 
BRANCH  31  32
HETATM   32  N4  UNL     1      38.702  11.020  15.271  1.00  0.00    -0.065 N 
HETATM   33  C17 UNL     1      38.831   9.613  15.671  1.00  0.00     0.239 C 
HETATM   34  C18 UNL     1      40.042   9.600  16.541  1.00  0.00     0.062 C 
HETATM   35  C19 UNL     1      40.030  10.935  17.216  1.00  0.00     0.211 C 
HETATM   36  C20 UNL     1      39.015  11.786  16.442  1.00  0.00     0.270 C 
BRANCH  32  37
HETATM   37  C12 UNL     1      39.730  11.236  14.282  1.00  0.00     0.238 C 
BRANCH  37  38
HETATM   38  C13 UNL     1      39.344  12.078  13.116  1.00  0.00     0.032 C 
BRANCH  38  39
HETATM   39  C14 UNL     1      39.344  11.280  11.817  1.00  0.00    -0.021 C 
HETATM   40  C15 UNL     1      40.036  12.002  10.703  1.00  0.00     0.009 C 
HETATM   41  C16 UNL     1      40.046   9.970  12.110  1.00  0.00     0.009 C 
ENDBRANCH  38  39
ENDBRANCH  37  38
ENDBRANCH  32  37
BRANCH  35  42
HETATM   42  N5  UNL     1      41.334  11.543  17.229  1.00  0.00    -0.073 N 
ATOM     43  H53 UNL     1      41.555  11.926  18.148  1.00  0.00     0.274 HD
ATOM     44  H52 UNL     1      42.072  10.841  17.166  1.00  0.00     0.274 HD
ATOM     45  H51 UNL     1      41.432  12.249  16.500  1.00  0.00     0.274 HD
ENDBRANCH  35  42
ENDBRANCH  31  32
ENDBRANCH  30  31
ENDBRANCH  29  30
ENDBRANCH  28  29
ENDBRANCH  27  28
ENDBRANCH   5  27
TORSDOF 19
ENDMDL
MODEL 3
REMARK VINA RESULT: -8.177248296      5.708      9.617
REMARK  19 active torsions:
REMARK  status: ('A' for Active; 'I' for Inactive)
REMARK    1  A    between atoms: C2_2  and  C3_3 
REMARK    2  A    between atoms: C3_3  and  C4_4 
REMARK    3  A    between atoms: C4_4  and  C5_5 
REMARK    4  A    between atoms: C4_4  and  N6_31 
REMARK    5  A    between atoms: C5_5  and  N1_6 
REMARK       I    between atoms: N1_6  and  C6_8 
REMARK    6  A    between atoms: N3_10  and  C7_12 
REMARK    7  A    between atoms: C7_12  and  C8_13 
REMARK    8  A    between atoms: C8_13  and  C9_14 
REMARK    9  A    between atoms: C9_14  and  C10_15 
REMARK   10  A    between atoms: C10_15  and  C11_16 
REMARK   11  A    between atoms: C11_16  and  N4_17 
REMARK   12  A    between atoms: N4_17  and  C12_18 
REMARK   13  A    between atoms: C12_18  and  C13_19 
REMARK   14  A    between atoms: C13_19  and  C14_20 
REMARK   15  A    between atoms: C19_25  and  N5_26 
REMARK       I    between atoms: N6_31  and  C21_33 
REMARK   16  A    between atoms: C21_33  and  C22_35 
REMARK   17  A    between atoms: C22_35  and  N7_36 
REMARK   18  A    between atoms: N7_36  and  C23_38 
REMARK   19  A    between atoms: N8_39  and  N9_41 
ROOT
HETATM    1  N1  UNL     1      32.549   6.004  14.342  1.00  0.00    -0.363 N 
ATOM      2  H1  UNL     1      32.993   5.302  13.750  1.00  0.00     0.162 HD
HETATM    3  C6  UNL     1      32.668   7.395  14.011  1.00  0.00     0.184 C 
HETATM    4  N2  UNL     1      31.597   8.070  13.339  1.00  0.00    -0.064 NA
HETATM    5  N3  UNL     1      33.727   8.013  14.326  1.00  0.00    -0.365 N 
ATOM      6  H3  UNL     1      34.436   7.459  14.806  1.00  0.00     0.162 HD
ENDROOT
BRANCH   1   7
HETATM    7  C5  UNL     1      31.808   5.592  15.502  1.00  0.00     0.147 C 
BRANCH   7   8
HETATM    8  C4  UNL     1      30.442   6.041  15.695  1.00  0.00     0.102 C 
BRANCH   8   9
HETATM    9  C3  UNL     1      29.849   6.524  16.922  1.00  0.00     0.026 C 
BRANCH   9  10
HETATM   10  C2  UNL     1      29.509   7.897  17.264  1.00  0.00    -0.002 C 
HETATM   11  C1  UNL     1      30.353   9.010  16.713  1.00  0.00     0.005 C 
ENDBRANCH   9  10
ENDBRANCH   8   9
BRANCH   8  12
HETATM   12  N6  UNL     1      29.584   4.869  15.284  1.00  0.00    -0.353 N 
HETATM   13  C21 UNL     1      28.453   5.014  14.476  1.00  0.00     0.235 C 
HETATM   14  O1  UNL     1      28.129   6.154  14.065  1.00  0.00    -0.272 OA
ATOM     15  H6  UNL     1      29.839   3.936  15.609  1.00  0.00     0.163 HD
BRANCH  13  16
HETATM   16  C22 UNL     1      27.625   3.864  14.090  1.00  0.00     0.223 C 
BRANCH  16  17
HETATM   17  N7  UNL     1      26.280   3.867  14.605  1.00  0.00    -0.376 N 
ATOM     18  H7  UNL     1      26.108   3.657  15.588  1.00  0.00     0.160 HD
BRANCH  17  19
HETATM   19  C23 UNL     1      25.195   4.166  13.737  1.00  0.00     0.194 C 
HETATM   20  N8  UNL     1      25.047   5.337  13.202  1.00  0.00    -0.283 N 
ATOM     21  H8  UNL     1      25.737   6.057  13.417  1.00  0.00     0.189 HD
BRANCH  20  22
HETATM   22  N9  UNL     1      24.009   5.659  12.357  1.00  0.00    -0.248 N 
HETATM   23  N10 UNL     1      23.029   6.384  12.666  1.00  0.00    -0.331 N 
ATOM     24 2H10 UNL     1      23.018   6.753  13.618  1.00  0.00     0.178 HD
ATOM     25 1H10 UNL     1      22.259   6.623  12.041  1.00  0.00     0.178 HD
ATOM     26  H9  UNL     1      24.037   5.281  11.410  1.00  0.00     0.207 HD
ENDBRANCH  20  22
ENDBRANCH  17  19
ENDBRANCH  16  17
ENDBRANCH  13  16
ENDBRANCH   8  12
ENDBRANCH   7   8
ENDBRANCH   1   7
BRANCH   5  27
HETATM   27  C7  UNL     1      34.063   9.388  14.098  1.00  0.00     0.122 C 
BRANCH  27  28
HETATM   28  C8  UNL     1      35.355   9.581  13.382  1.00  0.00     0.020 C 
BRANCH  28  29
HETATM   29  C9  UNL     1      35.425   8.783  12.095  1.00  0.00     0.003 C 
BRANCH  29  30
HETATM   30  C10 UNL     1      35.290   9.736  10.900  1.00  0.00     0.028 C 
BRANCH  30  31
HETATM   31  C11 UNL     1      36.353  10.785  11.083  1.00  0.00     0.237 C 
BRANCH  31  32
HETATM   32  N4  UNL     1      37.331  10.841  10.037  1.00  0.00    -0.065 N 
HETATM   33  C17 UNL     1      37.118  12.091   9.297  1.00  0.00     0.239 C 
HETATM   34  C18 UNL     1      37.859  11.879   8.020  1.00  0.00     0.062 C 
HETATM   35  C19 UNL     1      37.730  10.413   7.754  1.00  0.00     0.211 C 
HETATM   36  C20 UNL     1      37.227   9.792   9.064  1.00  0.00     0.270 C 
BRANCH  32  37
HETATM   37  C12 UNL     1      38.691  10.901  10.517  1.00  0.00     0.238 C 
BRANCH  37  38
HETATM   38  C13 UNL     1      39.008  10.032  11.683  1.00  0.00     0.032 C 
BRANCH  38  39
HETATM   39  C14 UNL     1      39.652  10.820  12.818  1.00  0.00    -0.021 C 
HETATM   40  C15 UNL     1      39.356  12.285  12.736  1.00  0.00     0.009 C 
HETATM   41  C16 UNL     1      39.109  10.246  14.111  1.00  0.00     0.009 C 
ENDBRANCH  38  39
ENDBRANCH  37  38
ENDBRANCH  32  37
BRANCH  35  42
HETATM   42  N5  UNL     1      38.978   9.830   7.335  1.00  0.00    -0.073 N 
ATOM     43  H53 UNL     1      38.842   9.187   6.555  1.00  0.00     0.274 HD
ATOM     44  H52 UNL     1      39.572  10.519   6.874  1.00  0.00     0.274 HD
ATOM     45  H51 UNL     1      39.466   9.378   8.107  1.00  0.00     0.274 HD
ENDBRANCH  35  42
ENDBRANCH  31  32
ENDBRANCH  30  31
ENDBRANCH  29  30
ENDBRANCH  28  29
ENDBRANCH  27  28
ENDBRANCH   5  27
TORSDOF 19
ENDMDL
MODEL 4
REMARK VINA RESULT: -8.159612984      5.538      9.384
REMARK  19 active torsions:
REMARK  status: ('A' for Active; 'I' for Inactive)
REMARK    1  A    between atoms: C2_2  and  C3_3 
REMARK    2  A    between atoms: C3_3  and  C4_4 
REMARK    3  A    between atoms: C4_4  and  C5_5 
REMARK    4  A    between atoms: C4_4  and  N6_31 
REMARK    5  A    between atoms: C5_5  and  N1_6 
REMARK       I    between atoms: N1_6  and  C6_8 
REMARK    6  A    between atoms: N3_10  and  C7_12 
REMARK    7  A    between atoms: C7_12  and  C8_13 
REMARK    8  A    between atoms: C8_13  and  C9_14 
REMARK    9  A    between atoms: C9_14  and  C10_15 
REMARK   10  A    between atoms: C10_15  and  C11_16 
REMARK   11  A    between atoms: C11_16  and  N4_17 
REMARK   12  A    between atoms: N4_17  and  C12_18 
REMARK   13  A    between atoms: C12_18  and  C13_19 
REMARK   14  A    between atoms: C13_19  and  C14_20 
REMARK   15  A    between atoms: C19_25  and  N5_26 
REMARK       I    between atoms: N6_31  and  C21_33 
REMARK   16  A    between atoms: C21_33  and  C22_35 
REMARK   17  A    between atoms: C22_35  and  N7_36 
REMARK   18  A    between atoms: N7_36  and  C23_38 
REMARK   19  A    between atoms: N8_39  and  N9_41 
ROOT
HETATM    1  N1  UNL     1      32.061   6.083  14.634  1.00  0.00    -0.363 N 
ATOM      2  H1  UNL     1      32.192   5.172  14.193  1.00  0.00     0.162 HD
HETATM    3  C6  UNL     1      32.452   7.275  13.936  1.00  0.00     0.184 C 
HETATM    4  N2  UNL     1      31.470   8.067  13.258  1.00  0.00    -0.064 NA
HETATM    5  N3  UNL     1      33.672   7.614  13.937  1.00  0.00    -0.365 N 
ATOM      6  H3  UNL     1      34.302   6.997  14.449  1.00  0.00     0.162 HD
ENDROOT
BRANCH   1   7
HETATM    7  C5  UNL     1      31.486   6.163  15.947  1.00  0.00     0.147 C 
BRANCH   7   8
HETATM    8  C4  UNL     1      30.091   6.525  16.116  1.00  0.00     0.102 C 
BRANCH   8   9
HETATM    9  C3  UNL     1      29.467   7.062  17.303  1.00  0.00     0.026 C 
BRANCH   9  10
HETATM   10  C2  UNL     1      30.098   7.368  18.578  1.00  0.00    -0.002 C 
HETATM   11  C1  UNL     1      29.312   7.166  19.842  1.00  0.00     0.005 C 
ENDBRANCH   9  10
ENDBRANCH   8   9
BRANCH   8  12
HETATM   12  N6  UNL     1      29.320   5.265  15.808  1.00  0.00    -0.353 N 
HETATM   13  C21 UNL     1      28.331   5.211  14.822  1.00  0.00     0.235 C 
HETATM   14  O1  UNL     1      28.067   6.240  14.156  1.00  0.00    -0.272 OA
ATOM     15  H6  UNL     1      29.529   4.419  16.340  1.00  0.00     0.163 HD
BRANCH  13  16
HETATM   16  C22 UNL     1      27.586   3.977  14.539  1.00  0.00     0.223 C 
BRANCH  16  17
HETATM   17  N7  UNL     1      26.205   3.980  14.948  1.00  0.00    -0.376 N 
ATOM     18  H7  UNL     1      25.961   3.849  15.929  1.00  0.00     0.160 HD
BRANCH  17  19
HETATM   19  C23 UNL     1      25.185   4.167  13.976  1.00  0.00     0.194 C 
HETATM   20  N8  UNL     1      25.050   5.280  13.327  1.00  0.00    -0.283 N 
ATOM     21  H8  UNL     1      25.702   6.038  13.529  1.00  0.00     0.189 HD
BRANCH  20  22
HETATM   22  N9  UNL     1      24.074   5.494  12.380  1.00  0.00    -0.248 N 
HETATM   23  N10 UNL     1      23.075   6.243  12.533  1.00  0.00    -0.331 N 
ATOM     24 2H10 UNL     1      22.998   6.721  13.431  1.00  0.00     0.178 HD
ATOM     25 1H10 UNL     1      22.352   6.402  11.832  1.00  0.00     0.178 HD
ATOM     26  H9  UNL     1      24.168   5.008  11.489  1.00  0.00     0.207 HD
ENDBRANCH  20  22
ENDBRANCH  17  19
ENDBRANCH  16  17
ENDBRANCH  13  16
ENDBRANCH   8  12
ENDBRANCH   7   8
ENDBRANCH   1   7
BRANCH   5  27
HETATM   27  C7  UNL     1      34.285   8.750  13.314  1.00  0.00     0.122 C 
BRANCH  27  28
HETATM   28  C8  UNL     1      35.435   9.308  14.080  1.00  0.00     0.020 C 
BRANCH  28  29
HETATM   29  C9  UNL     1      35.598  10.800  13.866  1.00  0.00     0.003 C 
BRANCH  29  30
HETATM   30  C10 UNL     1      36.039  11.060  12.420  1.00  0.00     0.028 C 
BRANCH  30  31
HETATM   31  C11 UNL     1      37.416  11.660  12.506  1.00  0.00     0.237 C 
BRANCH  31  32
HETATM   32  N4  UNL     1      38.464  10.842  11.972  1.00  0.00    -0.065 N 
HETATM   33  C17 UNL     1      39.413  11.728  11.287  1.00  0.00     0.239 C 
HETATM   34  C18 UNL     1      40.207  10.803  10.428  1.00  0.00     0.062 C 
HETATM   35  C19 UNL     1      39.241   9.728  10.045  1.00  0.00     0.211 C 
HETATM   36  C20 UNL     1      38.038   9.893  10.984  1.00  0.00     0.270 C 
BRANCH  32  37
HETATM   37  C12 UNL     1      39.235  10.154  12.980  1.00  0.00     0.238 C 
BRANCH  37  38
HETATM   38  C13 UNL     1      39.587  10.953  14.186  1.00  0.00     0.032 C 
BRANCH  38  39
HETATM   39  C14 UNL     1      39.022  10.334  15.459  1.00  0.00    -0.021 C 
HETATM   40  C15 UNL     1      40.082   9.711  16.312  1.00  0.00     0.009 C 
HETATM   41  C16 UNL     1      38.328  11.449  16.215  1.00  0.00     0.009 C 
ENDBRANCH  38  39
ENDBRANCH  37  38
ENDBRANCH  32  37
BRANCH  35  42
HETATM   42  N5  UNL     1      39.823   8.417  10.153  1.00  0.00    -0.073 N 
ATOM     43  H53 UNL     1      40.478   8.239   9.392  1.00  0.00     0.274 HD
ATOM     44  H52 UNL     1      40.472   8.363  10.939  1.00  0.00     0.274 HD
ATOM     45  H51 UNL     1      39.113   7.687  10.209  1.00  0.00     0.274 HD
ENDBRANCH  35  42
ENDBRANCH  31  32
ENDBRANCH  30  31
ENDBRANCH  29  30
ENDBRANCH  28  29
ENDBRANCH  27  28
ENDBRANCH   5  27
TORSDOF 19
ENDMDL
MODEL 5
REMARK VINA RESULT: -8.130582586      6.112     10.093
REMARK  19 active torsions:
REMARK  status: ('A' for Active; 'I' for Inactive)
REMARK    1  A    between atoms: C2_2  and  C3_3 
REMARK    2  A    between atoms: C3_3  and  C4_4 
REMARK    3  A    between atoms: C4_4  and  C5_5 
REMARK    4  A    between atoms: C4_4  and  N6_31 
REMARK    5  A    between atoms: C5_5  and  N1_6 
REMARK       I    between atoms: N1_6  and  C6_8 
REMARK    6  A    between atoms: N3_10  and  C7_12 
REMARK    7  A    between atoms: C7_12  and  C8_13 
REMARK    8  A    between atoms: C8_13  and  C9_14 
REMARK    9  A    between atoms: C9_14  and  C10_15 
REMARK   10  A    between atoms: C10_15  and  C11_16 
REMARK   11  A    between atoms: C11_16  and  N4_17 
REMARK   12  A    between atoms: N4_17  and  C12_18 
REMARK   13  A    between atoms: C12_18  and  C13_19 
REMARK   14  A    between atoms: C13_19  and  C14_20 
REMARK   15  A    between atoms: C19_25  and  N5_26 
REMARK       I    between atoms: N6_31  and  C21_33 
REMARK   16  A    between atoms: C21_33  and  C22_35 
REMARK   17  A    between atoms: C22_35  and  N7_36 
REMARK   18  A    between atoms: N7_36  and  C23_38 
REMARK   19  A    between atoms: N8_39  and  N9_41 
ROOT
HETATM    1  N1  UNL     1      32.124   5.933  14.428  1.00  0.00    -0.363 N 
ATOM      2  H1  UNL     1      32.406   5.126  13.872  1.00  0.00     0.162 HD
HETATM    3  C6  UNL     1      32.444   7.257  13.974  1.00  0.00     0.184 C 
HETATM    4  N2  UNL     1      31.451   8.049  13.309  1.00  0.00    -0.064 NA
HETATM    5  N3  UNL     1      33.608   7.711  14.175  1.00  0.00    -0.365 N 
ATOM      6  H3  UNL     1      34.250   7.083  14.659  1.00  0.00     0.162 HD
ENDROOT
BRANCH   1   7
HETATM    7  C5  UNL     1      31.409   5.738  15.658  1.00  0.00     0.147 C 
BRANCH   7   8
HETATM    8  C4  UNL     1      30.030   6.171  15.781  1.00  0.00     0.102 C 
BRANCH   8   9
HETATM    9  C3  UNL     1      29.387   6.711  16.957  1.00  0.00     0.026 C 
BRANCH   9  10
HETATM   10  C2  UNL     1      30.022   7.315  18.118  1.00  0.00    -0.002 C 
HETATM   11  C1  UNL     1      29.335   7.219  19.451  1.00  0.00     0.005 C 
ENDBRANCH   9  10
ENDBRANCH   8   9
BRANCH   8  12
HETATM   12  N6  UNL     1      29.207   4.962  15.409  1.00  0.00    -0.353 N 
HETATM   13  C21 UNL     1      28.206   5.005  14.434  1.00  0.00     0.235 C 
HETATM   14  O1  UNL     1      27.975   6.082  13.834  1.00  0.00    -0.272 OA
ATOM     15  H6  UNL     1      29.387   4.078  15.888  1.00  0.00     0.163 HD
BRANCH  13  16
HETATM   16  C22 UNL     1      27.410   3.821  14.088  1.00  0.00     0.223 C 
BRANCH  16  17
HETATM   17  N7  UNL     1      26.053   3.823  14.572  1.00  0.00    -0.376 N 
ATOM     18  H7  UNL     1      25.853   3.574  15.540  1.00  0.00     0.160 HD
BRANCH  17  19
HETATM   19  C23 UNL     1      24.994   4.175  13.692  1.00  0.00     0.194 C 
HETATM   20  N8  UNL     1      24.900   5.357  13.170  1.00  0.00    -0.283 N 
ATOM     21  H8  UNL     1      25.613   6.048  13.406  1.00  0.00     0.189 HD
BRANCH  20  22
HETATM   22  N9  UNL     1      23.888   5.731  12.315  1.00  0.00    -0.248 N 
HETATM   23  N10 UNL     1      22.933   6.493  12.618  1.00  0.00    -0.331 N 
ATOM     24 2H10 UNL     1      22.924   6.851  13.573  1.00  0.00     0.178 HD
ATOM     25 1H10 UNL     1      22.183   6.769  11.985  1.00  0.00     0.178 HD
ATOM     26  H9  UNL     1      23.914   5.362  11.364  1.00  0.00     0.207 HD
ENDBRANCH  20  22
ENDBRANCH  17  19
ENDBRANCH  16  17
ENDBRANCH  13  16
ENDBRANCH   8  12
ENDBRANCH   7   8
ENDBRANCH   1   7
BRANCH   5  27
HETATM   27  C7  UNL     1      34.145   8.990  13.813  1.00  0.00     0.122 C 
BRANCH  27  28
HETATM   28  C8  UNL     1      35.336   8.911  12.921  1.00  0.00     0.020 C 
BRANCH  28  29
HETATM   29  C9  UNL     1      34.959   8.613  11.484  1.00  0.00     0.003 C 
BRANCH  29  30
HETATM   30  C10 UNL     1      35.555   9.690  10.569  1.00  0.00     0.028 C 
BRANCH  30  31
HETATM   31  C11 UNL     1      36.888   9.160  10.115  1.00  0.00     0.237 C 
BRANCH  31  32
HETATM   32  N4  UNL     1      37.977  10.085  10.235  1.00  0.00    -0.065 N 
HETATM   33  C17 UNL     1      39.219   9.303  10.287  1.00  0.00     0.239 C 
HETATM   34  C18 UNL     1      40.223  10.268  10.822  1.00  0.00     0.062 C 
HETATM   35  C19 UNL     1      39.442  11.145  11.747  1.00  0.00     0.211 C 
HETATM   36  C20 UNL     1      37.965  10.873  11.434  1.00  0.00     0.270 C 
BRANCH  32  37
HETATM   37  C12 UNL     1      38.120  10.964   9.099  1.00  0.00     0.238 C 
BRANCH  37  38
HETATM   38  C13 UNL     1      37.996  10.322   7.761  1.00  0.00     0.032 C 
BRANCH  38  39
HETATM   39  C14 UNL     1      39.009  10.882   6.770  1.00  0.00    -0.021 C 
HETATM   40  C15 UNL     1      40.076  11.692   7.438  1.00  0.00     0.009 C 
HETATM   41  C16 UNL     1      39.622   9.694   6.055  1.00  0.00     0.009 C 
ENDBRANCH  38  39
ENDBRANCH  37  38
ENDBRANCH  32  37
BRANCH  35  42
HETATM   42  N5  UNL     1      39.773  12.535  11.579  1.00  0.00    -0.073 N 
ATOM     43  H53 UNL     1      39.153  12.985  10.906  1.00  0.00     0.274 HD
ATOM     44  H52 UNL     1      39.530  13.077  12.409  1.00  0.00     0.274 HD
ATOM     45  H51 UNL     1      40.752  12.665  11.326  1.00  0.00     0.274 HD
ENDBRANCH  35  42
ENDBRANCH  31  32
ENDBRANCH  30  31
ENDBRANCH  29  30
ENDBRANCH  28  29
ENDBRANCH  27  28
ENDBRANCH   5  27
TORSDOF 19
ENDMDL
