MODEL 1
REMARK VINA RESULT: -7.674117261      0.000      0.000
REMARK  18 active torsions:
REMARK  status: ('A' for Active; 'I' for Inactive)
REMARK    1  A    between atoms: N1_1  and  C1_5 
REMARK    2  A    between atoms: C1_5  and  C2_6 
REMARK    3  A    between atoms: C2_6  and  C3_7 
REMARK    4  A    between atoms: C3_7  and  C4_8 
REMARK    5  A    between atoms: C4_8  and  N2_9 
REMARK    6  A    between atoms: N2_9  and  C5_12 
REMARK    7  A    between atoms: C5_12  and  C6_13 
REMARK    8  A    between atoms: C6_13  and  C7_14 
REMARK    9  A    between atoms: C7_14  and  C8_15 
REMARK   10  A    between atoms: C8_15  and  N3_16 
REMARK   11  A    between atoms: N3_16  and  C9_19 
REMARK   12  A    between atoms: C9_19  and  C10_20 
REMARK   13  A    between atoms: C10_20  and  N4_21 
REMARK   14  A    between atoms: N5_24  and  C13_25 
REMARK   15  A    between atoms: C13_25  and  C14_26 
REMARK   16  A    between atoms: C14_26  and  C15_27 
REMARK   17  A    between atoms: C15_27  and  N6_28 
REMARK   18  A    between atoms: C20_36  and  C21_37 
ROOT
HETATM    1  N4  UNL     1      23.445   3.250  13.867  1.00  0.00    -0.052 N 
HETATM    2  C11 UNL     1      22.418   3.210  14.843  1.00  0.00     0.266 C 
HETATM    3  C12 UNL     1      21.131   2.764  14.158  1.00  0.00     0.265 C 
HETATM    4  N5  UNL     1      21.433   2.068  12.951  1.00  0.00    -0.061 N 
HETATM    5  C17 UNL     1      22.433   1.046  13.363  1.00  0.00     0.265 C 
HETATM    6  C18 UNL     1      23.707   1.832  13.523  1.00  0.00     0.266 C 
HETATM    7  C19 UNL     1      22.155   2.856  11.956  1.00  0.00     0.276 C 
HETATM    8  C20 UNL     1      23.073   3.869  12.626  1.00  0.00     0.251 C 
ENDROOT
BRANCH   1   9
HETATM    9  C10 UNL     1      24.741   3.710  14.318  1.00  0.00     0.266 C 
BRANCH   9  10
HETATM   10  C9  UNL     1      25.741   3.791  13.218  1.00  0.00     0.260 C 
BRANCH  10  11
HETATM   11  N3  UNL     1      26.378   5.085  13.209  1.00  0.00    -0.074 N 
ATOM     12  H32 UNL     1      25.689   5.834  13.262  1.00  0.00     0.277 HD
ATOM     13  H31 UNL     1      26.775   5.293  12.292  1.00  0.00     0.277 HD
BRANCH  11  14
HETATM   14  C8  UNL     1      27.362   5.215  14.238  1.00  0.00     0.232 C 
BRANCH  14  15
HETATM   15  C7  UNL     1      28.302   4.086  14.394  1.00  0.00     0.029 C 
BRANCH  15  16
HETATM   16  C6  UNL     1      29.172   4.054  15.588  1.00  0.00     0.029 C 
BRANCH  16  17
HETATM   17  C5  UNL     1      30.357   4.961  15.578  1.00  0.00     0.232 C 
BRANCH  17  18
HETATM   18  N2  UNL     1      30.215   6.054  16.499  1.00  0.00    -0.075 N 
ATOM     19  H22 UNL     1      31.008   6.101  17.140  1.00  0.00     0.277 HD
ATOM     20  H21 UNL     1      29.471   5.874  17.174  1.00  0.00     0.277 HD
BRANCH  18  21
HETATM   21  C4  UNL     1      30.017   7.290  15.838  1.00  0.00     0.232 C 
BRANCH  21  22
HETATM   22  C3  UNL     1      30.533   7.265  14.435  1.00  0.00     0.029 C 
BRANCH  22  23
HETATM   23  C2  UNL     1      31.499   8.338  14.147  1.00  0.00     0.029 C 
BRANCH  23  24
HETATM   24  C1  UNL     1      32.943   7.990  14.062  1.00  0.00     0.229 C 
BRANCH  24  25
HETATM   25  N1  UNL     1      32.996   6.564  13.646  1.00  0.00    -0.079 N 
ATOM     26  H13 UNL     1      33.810   6.065  14.004  1.00  0.00     0.274 HD
ATOM     27  H12 UNL     1      32.288   5.982  14.093  1.00  0.00     0.274 HD
ATOM     28  H11 UNL     1      32.936   6.567  12.627  1.00  0.00     0.274 HD
ENDBRANCH  24  25
ENDBRANCH  23  24
ENDBRANCH  22  23
ENDBRANCH  21  22
ENDBRANCH  18  21
ENDBRANCH  17  18
ENDBRANCH  16  17
ENDBRANCH  15  16
ENDBRANCH  14  15
ENDBRANCH  11  14
ENDBRANCH  10  11
ENDBRANCH   9  10
ENDBRANCH   1   9
BRANCH   8  29
HETATM   29  C21 UNL     1      22.361   5.139  12.736  1.00  0.00    -0.009 A 
HETATM   30  C22 UNL     1      22.691   6.304  13.393  1.00  0.00     0.027 A 
HETATM   31  C23 UNL     1      21.705   7.241  13.182  1.00  0.00     0.088 A 
HETATM   32  N9  UNL     1      20.764   6.694  12.409  1.00  0.00    -0.375 N 
HETATM   33  C24 UNL     1      21.159   5.413  12.134  1.00  0.00     0.096 A 
ATOM     34  H9  UNL     1      19.909   7.146  12.084  1.00  0.00     0.164 HD
ENDBRANCH   8  29
BRANCH   4  35
HETATM   35  C13 UNL     1      20.384   1.333  12.346  1.00  0.00     0.239 C 
BRANCH  35  36
HETATM   36  C14 UNL     1      20.035   1.635  10.939  1.00  0.00     0.048 C 
BRANCH  36  37
HETATM   37  C15 UNL     1      18.695   2.392  10.877  1.00  0.00     0.123 C 
BRANCH  37  38
HETATM   38  N6  UNL     1      18.347   2.779   9.542  1.00  0.00    -0.367 N 
HETATM   39  C16 UNL     1      17.127   2.773   9.162  1.00  0.00     0.196 C 
HETATM   40  N7  UNL     1      16.116   2.376  10.070  1.00  0.00    -0.067 NA
HETATM   41  N8  UNL     1      16.802   3.164   7.853  1.00  0.00    -0.067 NA
ATOM     42  H6  UNL     1      19.078   3.063   8.890  1.00  0.00     0.161 HD
ENDBRANCH  37  38
ENDBRANCH  36  37
ENDBRANCH  35  36
ENDBRANCH   4  35
TORSDOF 18
ENDMDL
MODEL 2
REMARK VINA RESULT: -7.631668781      2.185      2.711
REMARK  18 active torsions:
REMARK  status: ('A' for Active; 'I' for Inactive)
REMARK    1  A    between atoms: N1_1  and  C1_5 
REMARK    2  A    between atoms: C1_5  and  C2_6 
REMARK    3  A    between atoms: C2_6  and  C3_7 
REMARK    4  A    between atoms: C3_7  and  C4_8 
REMARK    5  A    between atoms: C4_8  and  N2_9 
REMARK    6  A    between atoms: N2_9  and  C5_12 
REMARK    7  A    between atoms: C5_12  and  C6_13 
REMARK    8  A    between atoms: C6_13  and  C7_14 
REMARK    9  A    between atoms: C7_14  and  C8_15 
REMARK   10  A    between atoms: C8_15  and  N3_16 
REMARK   11  A    between atoms: N3_16  and  C9_19 
REMARK   12  A    between atoms: C9_19  and  C10_20 
REMARK   13  A    between atoms: C10_20  and  N4_21 
REMARK   14  A    between atoms: N5_24  and  C13_25 
REMARK   15  A    between atoms: C13_25  and  C14_26 
REMARK   16  A    between atoms: C14_26  and  C15_27 
REMARK   17  A    between atoms: C15_27  and  N6_28 
REMARK   18  A    between atoms: C20_36  and  C21_37 
ROOT
HETATM    1  N4  UNL     1      22.671   2.822  13.583  1.00  0.00    -0.052 N 
HETATM    2  C11 UNL     1      21.630   2.929  14.539  1.00  0.00     0.266 C 
HETATM    3  C12 UNL     1      20.299   2.850  13.800  1.00  0.00     0.265 C 
HETATM    4  N5  UNL     1      20.475   2.215  12.536  1.00  0.00    -0.061 N 
HETATM    5  C17 UNL     1      21.206   0.959  12.861  1.00  0.00     0.265 C 
HETATM    6  C18 UNL     1      22.619   1.419  13.108  1.00  0.00     0.266 C 
HETATM    7  C19 UNL     1      21.388   2.905  11.628  1.00  0.00     0.276 C 
HETATM    8  C20 UNL     1      22.487   3.619  12.402  1.00  0.00     0.251 C 
ENDROOT
BRANCH   1   9
HETATM    9  C10 UNL     1      24.021   2.934  14.089  1.00  0.00     0.266 C 
BRANCH   9  10
HETATM   10  C9  UNL     1      24.877   1.775  13.718  1.00  0.00     0.260 C 
BRANCH  10  11
HETATM   11  N3  UNL     1      26.247   2.192  13.544  1.00  0.00    -0.074 N 
ATOM     12  H32 UNL     1      26.412   2.526  12.596  1.00  0.00     0.277 HD
ATOM     13  H31 UNL     1      26.879   1.391  13.547  1.00  0.00     0.277 HD
BRANCH  11  14
HETATM   14  C8  UNL     1      26.646   3.167  14.512  1.00  0.00     0.232 C 
BRANCH  14  15
HETATM   15  C7  UNL     1      28.009   3.021  15.065  1.00  0.00     0.029 C 
BRANCH  15  16
HETATM   16  C6  UNL     1      29.049   3.979  14.636  1.00  0.00     0.029 C 
BRANCH  16  17
HETATM   17  C5  UNL     1      28.627   5.403  14.485  1.00  0.00     0.232 C 
BRANCH  17  18
HETATM   18  N2  UNL     1      28.696   6.126  15.724  1.00  0.00    -0.075 N 
ATOM     19  H22 UNL     1      28.758   5.490  16.519  1.00  0.00     0.277 HD
ATOM     20  H21 UNL     1      27.805   6.572  15.941  1.00  0.00     0.277 HD
BRANCH  18  21
HETATM   21  C4  UNL     1      29.754   7.067  15.737  1.00  0.00     0.232 C 
BRANCH  21  22
HETATM   22  C3  UNL     1      30.691   6.841  16.880  1.00  0.00     0.029 C 
BRANCH  22  23
HETATM   23  C2  UNL     1      32.075   6.564  16.457  1.00  0.00     0.029 C 
BRANCH  23  24
HETATM   24  C1  UNL     1      32.321   5.426  15.532  1.00  0.00     0.229 C 
BRANCH  24  25
HETATM   25  N1  UNL     1      32.932   6.015  14.312  1.00  0.00    -0.079 N 
ATOM     26  H13 UNL     1      33.127   7.013  14.396  1.00  0.00     0.274 HD
ATOM     27  H12 UNL     1      33.893   5.714  14.151  1.00  0.00     0.274 HD
ATOM     28  H11 UNL     1      32.300   5.788  13.544  1.00  0.00     0.274 HD
ENDBRANCH  24  25
ENDBRANCH  23  24
ENDBRANCH  22  23
ENDBRANCH  21  22
ENDBRANCH  18  21
ENDBRANCH  17  18
ENDBRANCH  16  17
ENDBRANCH  15  16
ENDBRANCH  14  15
ENDBRANCH  11  14
ENDBRANCH  10  11
ENDBRANCH   9  10
ENDBRANCH   1   9
BRANCH   8  29
HETATM   29  C21 UNL     1      22.076   5.003  12.624  1.00  0.00    -0.009 A 
HETATM   30  C22 UNL     1      22.680   6.021  13.326  1.00  0.00     0.027 A 
HETATM   31  C23 UNL     1      21.915   7.161  13.225  1.00  0.00     0.088 A 
HETATM   32  N9  UNL     1      20.844   6.883  12.478  1.00  0.00    -0.375 N 
HETATM   33  C24 UNL     1      20.937   5.568  12.109  1.00  0.00     0.096 A 
ATOM     34  H9  UNL     1      20.095   7.530  12.229  1.00  0.00     0.164 HD
ENDBRANCH   8  29
BRANCH   4  35
HETATM   35  C13 UNL     1      19.309   1.794  11.852  1.00  0.00     0.239 C 
BRANCH  35  36
HETATM   36  C14 UNL     1      18.810   0.421  12.091  1.00  0.00     0.048 C 
BRANCH  36  37
HETATM   37  C15 UNL     1      17.380   0.468  12.659  1.00  0.00     0.123 C 
BRANCH  37  38
HETATM   38  N6  UNL     1      17.346   0.902  14.024  1.00  0.00    -0.367 N 
HETATM   39  C16 UNL     1      16.494   0.409  14.839  1.00  0.00     0.196 C 
HETATM   40  N7  UNL     1      15.577  -0.569  14.385  1.00  0.00    -0.067 NA
HETATM   41  N8  UNL     1      16.480   0.839  16.177  1.00  0.00    -0.067 NA
ATOM     42  H6  UNL     1      18.006   1.608  14.347  1.00  0.00     0.161 HD
ENDBRANCH  37  38
ENDBRANCH  36  37
ENDBRANCH  35  36
ENDBRANCH   4  35
TORSDOF 18
ENDMDL
MODEL 3
REMARK VINA RESULT: -7.626906998      1.553      1.962
REMARK  18 active torsions:
REMARK  status: ('A' for Active; 'I' for Inactive)
REMARK    1  A    between atoms: N1_1  and  C1_5 
REMARK    2  A    between atoms: C1_5  and  C2_6 
REMARK    3  A    between atoms: C2_6  and  C3_7 
REMARK    4  A    between atoms: C3_7  and  C4_8 
REMARK    5  A    between atoms: C4_8  and  N2_9 
REMARK    6  A    between atoms: N2_9  and  C5_12 
REMARK    7  A    between atoms: C5_12  and  C6_13 
REMARK    8  A    between atoms: C6_13  and  C7_14 
REMARK    9  A    between atoms: C7_14  and  C8_15 
REMARK   10  A    between atoms: C8_15  and  N3_16 
REMARK   11  A    between atoms: N3_16  and  C9_19 
REMARK   12  A    between atoms: C9_19  and  C10_20 
REMARK   13  A    between atoms: C10_20  and  N4_21 
REMARK   14  A    between atoms: N5_24  and  C13_25 
REMARK   15  A    between atoms: C13_25  and  C14_26 
REMARK   16  A    between atoms: C14_26  and  C15_27 
REMARK   17  A    between atoms: C15_27  and  N6_28 
REMARK   18  A    between atoms: C20_36  and  C21_37 
ROOT
HETATM    1  N4  UNL     1      23.107   2.990  13.619  1.00  0.00    -0.052 N 
HETATM    2  C11 UNL     1      22.116   3.020  14.632  1.00  0.00     0.266 C 
HETATM    3  C12 UNL     1      20.758   2.809  13.971  1.00  0.00     0.265 C 
HETATM    4  N5  UNL     1      20.920   2.171  12.708  1.00  0.00    -0.061 N 
HETATM    5  C17 UNL     1      21.779   0.992  13.005  1.00  0.00     0.265 C 
HETATM    6  C18 UNL     1      23.156   1.580  13.166  1.00  0.00     0.266 C 
HETATM    7  C19 UNL     1      21.715   2.923  11.740  1.00  0.00     0.276 C 
HETATM    8  C20 UNL     1      22.787   3.747  12.442  1.00  0.00     0.251 C 
ENDROOT
BRANCH   1   9
HETATM    9  C10 UNL     1      24.468   3.232  14.046  1.00  0.00     0.266 C 
BRANCH   9  10
HETATM   10  C9  UNL     1      25.356   2.055  13.842  1.00  0.00     0.260 C 
BRANCH  10  11
HETATM   11  N3  UNL     1      26.704   2.483  13.558  1.00  0.00    -0.074 N 
ATOM     12  H32 UNL     1      26.803   2.766  12.583  1.00  0.00     0.277 HD
ATOM     13  H31 UNL     1      27.350   1.693  13.565  1.00  0.00     0.277 HD
BRANCH  11  14
HETATM   14  C8  UNL     1      27.145   3.517  14.442  1.00  0.00     0.232 C 
BRANCH  14  15
HETATM   15  C7  UNL     1      28.411   3.268  15.163  1.00  0.00     0.029 C 
BRANCH  15  16
HETATM   16  C6  UNL     1      29.448   4.320  15.148  1.00  0.00     0.029 C 
BRANCH  16  17
HETATM   17  C5  UNL     1      29.066   5.630  14.540  1.00  0.00     0.232 C 
BRANCH  17  18
HETATM   18  N2  UNL     1      29.241   6.726  15.452  1.00  0.00    -0.075 N 
ATOM     19  H22 UNL     1      28.374   7.251  15.567  1.00  0.00     0.277 HD
ATOM     20  H21 UNL     1      29.822   7.457  15.042  1.00  0.00     0.277 HD
BRANCH  18  21
HETATM   21  C4  UNL     1      29.754   6.306  16.703  1.00  0.00     0.232 C 
BRANCH  21  22
HETATM   22  C3  UNL     1      30.983   7.066  17.088  1.00  0.00     0.029 C 
BRANCH  22  23
HETATM   23  C2  UNL     1      32.205   6.579  16.426  1.00  0.00     0.029 C 
BRANCH  23  24
HETATM   24  C1  UNL     1      32.699   7.304  15.225  1.00  0.00     0.229 C 
BRANCH  24  25
HETATM   25  N1  UNL     1      32.736   6.300  14.128  1.00  0.00    -0.079 N 
ATOM     26  H13 UNL     1      33.506   5.637  14.209  1.00  0.00     0.274 HD
ATOM     27  H12 UNL     1      31.980   5.618  14.175  1.00  0.00     0.274 HD
ATOM     28  H11 UNL     1      32.748   6.835  13.260  1.00  0.00     0.274 HD
ENDBRANCH  24  25
ENDBRANCH  23  24
ENDBRANCH  22  23
ENDBRANCH  21  22
ENDBRANCH  18  21
ENDBRANCH  17  18
ENDBRANCH  16  17
ENDBRANCH  15  16
ENDBRANCH  14  15
ENDBRANCH  11  14
ENDBRANCH  10  11
ENDBRANCH   9  10
ENDBRANCH   1   9
BRANCH   8  29
HETATM   29  C21 UNL     1      22.264   5.092  12.669  1.00  0.00    -0.009 A 
HETATM   30  C22 UNL     1      22.750   6.130  13.433  1.00  0.00     0.027 A 
HETATM   31  C23 UNL     1      21.914   7.215  13.310  1.00  0.00     0.088 A 
HETATM   32  N9  UNL     1      20.913   6.885  12.489  1.00  0.00    -0.375 N 
HETATM   33  C24 UNL     1      21.123   5.591  12.095  1.00  0.00     0.096 A 
ATOM     34  H9  UNL     1      20.138   7.485  12.208  1.00  0.00     0.164 HD
ENDBRANCH   8  29
BRANCH   4  35
HETATM   35  C13 UNL     1      19.760   1.635  12.097  1.00  0.00     0.239 C 
BRANCH  35  36
HETATM   36  C14 UNL     1      19.209   2.325  10.908  1.00  0.00     0.048 C 
BRANCH  36  37
HETATM   37  C15 UNL     1      17.853   2.970  11.252  1.00  0.00     0.123 C 
BRANCH  37  38
HETATM   38  N6  UNL     1      17.988   4.330  11.683  1.00  0.00    -0.367 N 
HETATM   39  C16 UNL     1      17.695   4.661  12.882  1.00  0.00     0.196 C 
HETATM   40  N7  UNL     1      17.233   3.675  13.786  1.00  0.00    -0.067 NA
HETATM   41  N8  UNL     1      17.841   5.997  13.291  1.00  0.00    -0.067 NA
ATOM     42  H6  UNL     1      18.319   5.039  11.028  1.00  0.00     0.161 HD
ENDBRANCH  37  38
ENDBRANCH  36  37
ENDBRANCH  35  36
ENDBRANCH   4  35
TORSDOF 18
ENDMDL
MODEL 4
REMARK VINA RESULT: -7.551931254      1.897      2.344
REMARK  18 active torsions:
REMARK  status: ('A' for Active; 'I' for Inactive)
REMARK    1  A    between atoms: N1_1  and  C1_5 
REMARK    2  A    between atoms: C1_5  and  C2_6 
REMARK    3  A    between atoms: C2_6  and  C3_7 
REMARK    4  A    between atoms: C3_7  and  C4_8 
REMARK    5  A    between atoms: C4_8  and  N2_9 
REMARK    6  A    between atoms: N2_9  and  C5_12 
REMARK    7  A    between atoms: C5_12  and  C6_13 
REMARK    8  A    between atoms: C6_13  and  C7_14 
REMARK    9  A    between atoms: C7_14  and  C8_15 
REMARK   10  A    between atoms: C8_15  and  N3_16 
REMARK   11  A    between atoms: N3_16  and  C9_19 
REMARK   12  A    between atoms: C9_19  and  C10_20 
REMARK   13  A    between atoms: C10_20  and  N4_21 
REMARK   14  A    between atoms: N5_24  and  C13_25 
REMARK   15  A    between atoms: C13_25  and  C14_26 
REMARK   16  A    between atoms: C14_26  and  C15_27 
REMARK   17  A    between atoms: C15_27  and  N6_28 
REMARK   18  A    between atoms: C20_36  and  C21_37 
ROOT
HETATM    1  N4  UNL     1      23.233   3.036  13.828  1.00  0.00    -0.052 N 
HETATM    2  C11 UNL     1      22.202   3.051  14.800  1.00  0.00     0.266 C 
HETATM    3  C12 UNL     1      20.890   2.705  14.104  1.00  0.00     0.265 C 
HETATM    4  N5  UNL     1      21.148   2.010  12.887  1.00  0.00    -0.061 N 
HETATM    5  C17 UNL     1      22.074   0.915  13.284  1.00  0.00     0.265 C 
HETATM    6  C18 UNL     1      23.399   1.610  13.460  1.00  0.00     0.266 C 
HETATM    7  C19 UNL     1      21.926   2.763  11.907  1.00  0.00     0.276 C 
HETATM    8  C20 UNL     1      22.908   3.700  12.597  1.00  0.00     0.251 C 
ENDROOT
BRANCH   1   9
HETATM    9  C10 UNL     1      24.555   3.399  14.289  1.00  0.00     0.266 C 
BRANCH   9  10
HETATM   10  C9  UNL     1      25.549   3.490  13.185  1.00  0.00     0.260 C 
BRANCH  10  11
HETATM   11  N3  UNL     1      26.643   2.578  13.413  1.00  0.00    -0.074 N 
ATOM     12  H32 UNL     1      27.408   2.753  12.762  1.00  0.00     0.277 HD
ATOM     13  H31 UNL     1      26.398   1.631  13.126  1.00  0.00     0.277 HD
BRANCH  11  14
HETATM   14  C8  UNL     1      27.101   2.604  14.767  1.00  0.00     0.232 C 
BRANCH  14  15
HETATM   15  C7  UNL     1      28.386   3.291  15.013  1.00  0.00     0.029 C 
BRANCH  15  16
HETATM   16  C6  UNL     1      28.360   4.709  15.424  1.00  0.00     0.029 C 
BRANCH  16  17
HETATM   17  C5  UNL     1      28.267   5.722  14.330  1.00  0.00     0.232 C 
BRANCH  17  18
HETATM   18  N2  UNL     1      29.430   6.563  14.267  1.00  0.00    -0.075 N 
ATOM     19  H22 UNL     1      29.304   7.314  13.587  1.00  0.00     0.277 HD
ATOM     20  H21 UNL     1      30.213   6.077  13.829  1.00  0.00     0.277 HD
BRANCH  18  21
HETATM   21  C4  UNL     1      29.791   7.077  15.536  1.00  0.00     0.232 C 
BRANCH  21  22
HETATM   22  C3  UNL     1      30.814   8.161  15.432  1.00  0.00     0.029 C 
BRANCH  22  23
HETATM   23  C2  UNL     1      31.410   8.277  14.090  1.00  0.00     0.029 C 
BRANCH  23  24
HETATM   24  C1  UNL     1      32.875   8.064  13.943  1.00  0.00     0.229 C 
BRANCH  24  25
HETATM   25  N1  UNL     1      33.059   6.598  13.774  1.00  0.00    -0.079 N 
ATOM     26  H13 UNL     1      32.502   6.040  14.421  1.00  0.00     0.274 HD
ATOM     27  H12 UNL     1      32.651   6.232  12.914  1.00  0.00     0.274 HD
ATOM     28  H11 UNL     1      34.062   6.431  13.852  1.00  0.00     0.274 HD
ENDBRANCH  24  25
ENDBRANCH  23  24
ENDBRANCH  22  23
ENDBRANCH  21  22
ENDBRANCH  18  21
ENDBRANCH  17  18
ENDBRANCH  16  17
ENDBRANCH  15  16
ENDBRANCH  14  15
ENDBRANCH  11  14
ENDBRANCH  10  11
ENDBRANCH   9  10
ENDBRANCH   1   9
BRANCH   8  29
HETATM   29  C21 UNL     1      22.284   5.014  12.725  1.00  0.00    -0.009 A 
HETATM   30  C22 UNL     1      22.701   6.149  13.384  1.00  0.00     0.027 A 
HETATM   31  C23 UNL     1      21.777   7.151  13.196  1.00  0.00     0.088 A 
HETATM   32  N9  UNL     1      20.789   6.674  12.434  1.00  0.00    -0.375 N 
HETATM   33  C24 UNL     1      21.094   5.371  12.145  1.00  0.00     0.096 A 
ATOM     34  H9  UNL     1      19.961   7.184  12.127  1.00  0.00     0.164 HD
ENDBRANCH   8  29
BRANCH   4  35
HETATM   35  C13 UNL     1      20.054   1.359  12.267  1.00  0.00     0.239 C 
BRANCH  35  36
HETATM   36  C14 UNL     1      18.754   1.338  12.975  1.00  0.00     0.048 C 
BRANCH  36  37
HETATM   37  C15 UNL     1      18.080  -0.036  12.806  1.00  0.00     0.123 C 
BRANCH  37  38
HETATM   38  N6  UNL     1      17.155  -0.326  13.861  1.00  0.00    -0.367 N 
HETATM   39  C16 UNL     1      15.901  -0.147  13.690  1.00  0.00     0.196 C 
HETATM   40  N7  UNL     1      15.428   0.343  12.449  1.00  0.00    -0.067 NA
HETATM   41  N8  UNL     1      15.007  -0.445  14.732  1.00  0.00    -0.067 NA
ATOM     42  H6  UNL     1      17.499  -0.677  14.755  1.00  0.00     0.161 HD
ENDBRANCH  37  38
ENDBRANCH  36  37
ENDBRANCH  35  36
ENDBRANCH   4  35
TORSDOF 18
ENDMDL
MODEL 5
REMARK VINA RESULT: -7.541726716      1.535      1.927
REMARK  18 active torsions:
REMARK  status: ('A' for Active; 'I' for Inactive)
REMARK    1  A    between atoms: N1_1  and  C1_5 
REMARK    2  A    between atoms: C1_5  and  C2_6 
REMARK    3  A    between atoms: C2_6  and  C3_7 
REMARK    4  A    between atoms: C3_7  and  C4_8 
REMARK    5  A    between atoms: C4_8  and  N2_9 
REMARK    6  A    between atoms: N2_9  and  C5_12 
REMARK    7  A    between atoms: C5_12  and  C6_13 
REMARK    8  A    between atoms: C6_13  and  C7_14 
REMARK    9  A    between atoms: C7_14  and  C8_15 
REMARK   10  A    between atoms: C8_15  and  N3_16 
REMARK   11  A    between atoms: N3_16  and  C9_19 
REMARK   12  A    between atoms: C9_19  and  C10_20 
REMARK   13  A    between atoms: C10_20  and  N4_21 
REMARK   14  A    between atoms: N5_24  and  C13_25 
REMARK   15  A    between atoms: C13_25  and  C14_26 
REMARK   16  A    between atoms: C14_26  and  C15_27 
REMARK   17  A    between atoms: C15_27  and  N6_28 
REMARK   18  A    between atoms: C20_36  and  C21_37 
ROOT
HETATM    1  N4  UNL     1      22.613   2.651  13.341  1.00  0.00    -0.052 N 
HETATM    2  C11 UNL     1      21.765   2.824  14.464  1.00  0.00     0.266 C 
HETATM    3  C12 UNL     1      20.326   2.887  13.965  1.00  0.00     0.265 C 
HETATM    4  N5  UNL     1      20.224   2.276  12.682  1.00  0.00    -0.061 N 
HETATM    5  C17 UNL     1      20.878   0.950  12.858  1.00  0.00     0.265 C 
HETATM    6  C18 UNL     1      22.349   1.273  12.865  1.00  0.00     0.266 C 
HETATM    7  C19 UNL     1      21.029   2.906  11.639  1.00  0.00     0.276 C 
HETATM    8  C20 UNL     1      22.306   3.495  12.221  1.00  0.00     0.251 C 
ENDROOT
BRANCH   1   9
HETATM    9  C10 UNL     1      24.034   2.626  13.609  1.00  0.00     0.266 C 
BRANCH   9  10
HETATM   10  C9  UNL     1      24.366   2.986  15.014  1.00  0.00     0.260 C 
BRANCH  10  11
HETATM   11  N3  UNL     1      25.486   3.893  15.053  1.00  0.00    -0.074 N 
ATOM     12  H32 UNL     1      25.854   3.982  16.000  1.00  0.00     0.277 HD
ATOM     13  H31 UNL     1      25.184   4.856  14.904  1.00  0.00     0.277 HD
BRANCH  11  14
HETATM   14  C8  UNL     1      26.516   3.527  14.132  1.00  0.00     0.232 C 
BRANCH  14  15
HETATM   15  C7  UNL     1      27.668   2.791  14.693  1.00  0.00     0.029 C 
BRANCH  15  16
HETATM   16  C6  UNL     1      28.666   3.541  15.483  1.00  0.00     0.029 C 
BRANCH  16  17
HETATM   17  C5  UNL     1      29.695   4.302  14.714  1.00  0.00     0.232 C 
BRANCH  17  18
HETATM   18  N2  UNL     1      29.246   5.620  14.359  1.00  0.00    -0.075 N 
ATOM     19  H22 UNL     1      28.310   5.593  13.956  1.00  0.00     0.277 HD
ATOM     20  H21 UNL     1      29.760   5.980  13.554  1.00  0.00     0.277 HD
BRANCH  18  21
HETATM   21  C4  UNL     1      29.309   6.520  15.450  1.00  0.00     0.232 C 
BRANCH  21  22
HETATM   22  C3  UNL     1      30.718   6.855  15.820  1.00  0.00     0.029 C 
BRANCH  22  23
HETATM   23  C2  UNL     1      31.308   7.913  14.982  1.00  0.00     0.029 C 
BRANCH  23  24
HETATM   24  C1  UNL     1      32.343   7.533  13.983  1.00  0.00     0.229 C 
BRANCH  24  25
HETATM   25  N1  UNL     1      32.791   6.166  14.358  1.00  0.00    -0.079 N 
ATOM     26  H13 UNL     1      33.482   6.155  15.109  1.00  0.00     0.274 HD
ATOM     27  H12 UNL     1      32.077   5.621  14.841  1.00  0.00     0.274 HD
ATOM     28  H11 UNL     1      33.120   5.732  13.496  1.00  0.00     0.274 HD
ENDBRANCH  24  25
ENDBRANCH  23  24
ENDBRANCH  22  23
ENDBRANCH  21  22
ENDBRANCH  18  21
ENDBRANCH  17  18
ENDBRANCH  16  17
ENDBRANCH  15  16
ENDBRANCH  14  15
ENDBRANCH  11  14
ENDBRANCH  10  11
ENDBRANCH   9  10
ENDBRANCH   1   9
BRANCH   8  29
HETATM   29  C21 UNL     1      22.071   4.903  12.528  1.00  0.00    -0.009 A 
HETATM   30  C22 UNL     1      22.827   5.810  13.236  1.00  0.00     0.027 A 
HETATM   31  C23 UNL     1      22.195   7.032  13.233  1.00  0.00     0.088 A 
HETATM   32  N9  UNL     1      21.058   6.916  12.541  1.00  0.00    -0.375 N 
HETATM   33  C24 UNL     1      20.979   5.619  12.109  1.00  0.00     0.096 A 
ATOM     34  H9  UNL     1      20.377   7.655  12.367  1.00  0.00     0.164 HD
ENDBRANCH   8  29
BRANCH   4  35
HETATM   35  C13 UNL     1      18.923   1.982  12.204  1.00  0.00     0.239 C 
BRANCH  35  36
HETATM   36  C14 UNL     1      18.737   0.777  11.365  1.00  0.00     0.048 C 
BRANCH  36  37
HETATM   37  C15 UNL     1      17.383   0.843  10.635  1.00  0.00     0.123 C 
BRANCH  37  38
HETATM   38  N6  UNL     1      16.339   0.178  11.356  1.00  0.00    -0.367 N 
HETATM   39  C16 UNL     1      15.329   0.834  11.786  1.00  0.00     0.196 C 
HETATM   40  N7  UNL     1      15.249   2.227  11.547  1.00  0.00    -0.067 NA
HETATM   41  N8  UNL     1      14.310   0.166  12.484  1.00  0.00    -0.067 NA
ATOM     42  H6  UNL     1      16.401  -0.825  11.528  1.00  0.00     0.161 HD
ENDBRANCH  37  38
ENDBRANCH  36  37
ENDBRANCH  35  36
ENDBRANCH   4  35
TORSDOF 18
ENDMDL
