MODEL 1
REMARK VINA RESULT: -7.628509641      0.000      0.000
REMARK  19 active torsions:
REMARK  status: ('A' for Active; 'I' for Inactive)
REMARK    1  A    between atoms: C3_3  and  C4_4 
REMARK    2  A    between atoms: C6_11  and  N3_12 
REMARK    3  A    between atoms: N3_12  and  C7_14 
REMARK    4  A    between atoms: N4_15  and  C8_16 
REMARK    5  A    between atoms: N4_15  and  C11_19 
REMARK    6  A    between atoms: C8_16  and  C9_17 
REMARK    7  A    between atoms: C11_19  and  C12_20 
REMARK    8  A    between atoms: C12_20  and  N5_21 
REMARK    9  A    between atoms: N5_21  and  C14_24 
REMARK   10  A    between atoms: C14_24  and  C15_25 
REMARK   11  A    between atoms: C15_25  and  N6_26 
REMARK   12  A    between atoms: N6_26  and  C16_28 
REMARK   13  A    between atoms: C16_28  and  O3_29 
REMARK   14  A    between atoms: N7_31  and  C17_33 
REMARK   15  A    between atoms: C17_33  and  C18_34 
REMARK   16  A    between atoms: C18_34  and  C19_35 
REMARK   17  A    between atoms: C19_35  and  N8_36 
REMARK   18  A    between atoms: N8_36  and  C20_38 
REMARK   19  A    between atoms: C20_38  and  C21_39 
ROOT
HETATM    1  C1  UNL     1      22.106   1.278  12.883  1.00  0.00     0.097 C 
HETATM    2  C2  UNL     1      21.919   2.359  12.338  1.00  0.00    -0.181 C 
HETATM    3  C3  UNL     1      21.695   3.630  11.661  1.00  0.00     0.140 C 
ENDROOT
BRANCH   3   4
HETATM    4  C4  UNL     1      21.950   4.772  12.553  1.00  0.00     0.068 A 
HETATM    5  N1  UNL     1      20.940   5.427  13.203  1.00  0.00    -0.308 N 
HETATM    6  C5  UNL     1      21.504   6.390  13.928  1.00  0.00     0.326 A 
ATOM      7  H1  UNL     1      19.944   5.216  13.144  1.00  0.00     0.170 HD
HETATM    8  O1  UNL     1      20.839   7.178  14.649  1.00  0.00    -0.247 OA
HETATM    9  N2  UNL     1      22.849   6.348  13.741  1.00  0.00    -0.293 N 
HETATM   10  C6  UNL     1      23.148   5.349  12.889  1.00  0.00     0.134 A 
ATOM     11  H2  UNL     1      23.526   6.975  14.177  1.00  0.00     0.172 HD
BRANCH  10  12
HETATM   12  N3  UNL     1      24.421   4.969  12.408  1.00  0.00    -0.337 N 
ATOM     13  H3  UNL     1      24.505   4.788  11.408  1.00  0.00     0.168 HD
BRANCH  12  14
HETATM   14  C7  UNL     1      25.594   4.816  13.194  1.00  0.00     0.184 C 
HETATM   15  N4  UNL     1      25.992   3.828  13.860  1.00  0.00    -0.355 N 
BRANCH  15  16
HETATM   16  C8  UNL     1      25.378   2.575  14.006  1.00  0.00     0.064 C 
BRANCH  16  17
HETATM   17  C9  UNL     1      24.800   2.128  15.286  1.00  0.00     0.040 C 
HETATM   18  C10 UNL     1      23.687   3.034  15.792  1.00  0.00     0.010 C 
ENDBRANCH  16  17
ENDBRANCH  15  16
BRANCH  15  19
HETATM   19  C11 UNL     1      27.199   4.027  14.715  1.00  0.00     0.165 C 
BRANCH  19  20
HETATM   20  C12 UNL     1      27.919   5.291  14.324  1.00  0.00     0.331 C 
BRANCH  20  21
HETATM   21  N5  UNL     1      29.069   5.488  15.159  1.00  0.00     0.012 N 
HETATM   22  C13 UNL     1      29.250   4.200  15.869  1.00  0.00     0.356 C 
HETATM   23  O2  UNL     1      28.787   6.455  16.079  1.00  0.00    -0.065 OA
BRANCH  21  24
HETATM   24  C14 UNL     1      30.303   5.816  14.536  1.00  0.00     0.331 C 
BRANCH  24  25
HETATM   25  C15 UNL     1      31.327   4.827  15.044  1.00  0.00     0.159 C 
BRANCH  25  26
HETATM   26  N6  UNL     1      32.629   5.368  15.290  1.00  0.00    -0.354 N 
ATOM     27  H6  UNL     1      33.480   4.875  15.018  1.00  0.00     0.163 HD
BRANCH  26  28
HETATM   28  C16 UNL     1      32.669   6.661  15.950  1.00  0.00     0.212 C 
HETATM   29  N7  UNL     1      33.094   7.621  15.230  1.00  0.00    -0.356 N 
ATOM     30  H7  UNL     1      33.353   7.368  14.276  1.00  0.00     0.163 HD
BRANCH  28  31
HETATM   31  O3  UNL     1      32.288   6.860  17.239  1.00  0.00    -0.333 OA
ATOM     32  H3  UNL     1      32.437   7.670  17.713  1.00  0.00     0.220 HD
ENDBRANCH  28  31
BRANCH  29  33
HETATM   33  C17 UNL     1      33.262   9.014  15.564  1.00  0.00     0.128 C 
BRANCH  33  34
HETATM   34  C18 UNL     1      32.019   9.733  15.137  1.00  0.00     0.064 C 
BRANCH  34  35
HETATM   35  C19 UNL     1      31.068  10.219  16.136  1.00  0.00     0.057 C 
BRANCH  35  36
HETATM   36  N8  UNL     1      30.282   9.333  16.866  1.00  0.00    -0.402 N 
ATOM     37  H8  UNL     1      29.782   8.601  16.362  1.00  0.00     0.158 HD
BRANCH  36  38
HETATM   38  C20 UNL     1      30.144   9.394  18.258  1.00  0.00     0.118 C 
BRANCH  38  39
HETATM   39  C21 UNL     1      28.862   8.635  18.647  1.00  0.00     0.015 C 
HETATM   40  C22 UNL     1      29.170   7.430  19.464  1.00  0.00     0.006 C 
ENDBRANCH  38  39
ENDBRANCH  36  38
ENDBRANCH  35  36
ENDBRANCH  34  35
ENDBRANCH  33  34
ENDBRANCH  29  33
ENDBRANCH  26  28
ENDBRANCH  25  26
ENDBRANCH  24  25
ENDBRANCH  21  24
ENDBRANCH  20  21
ENDBRANCH  19  20
ENDBRANCH  15  19
ENDBRANCH  12  14
ENDBRANCH  10  12
ENDBRANCH   3   4
TORSDOF 19
ENDMDL
MODEL 2
REMARK VINA RESULT: -7.463326519      2.492      3.986
REMARK  19 active torsions:
REMARK  status: ('A' for Active; 'I' for Inactive)
REMARK    1  A    between atoms: C3_3  and  C4_4 
REMARK    2  A    between atoms: C6_11  and  N3_12 
REMARK    3  A    between atoms: N3_12  and  C7_14 
REMARK    4  A    between atoms: N4_15  and  C8_16 
REMARK    5  A    between atoms: N4_15  and  C11_19 
REMARK    6  A    between atoms: C8_16  and  C9_17 
REMARK    7  A    between atoms: C11_19  and  C12_20 
REMARK    8  A    between atoms: C12_20  and  N5_21 
REMARK    9  A    between atoms: N5_21  and  C14_24 
REMARK   10  A    between atoms: C14_24  and  C15_25 
REMARK   11  A    between atoms: C15_25  and  N6_26 
REMARK   12  A    between atoms: N6_26  and  C16_28 
REMARK   13  A    between atoms: C16_28  and  O3_29 
REMARK   14  A    between atoms: N7_31  and  C17_33 
REMARK   15  A    between atoms: C17_33  and  C18_34 
REMARK   16  A    between atoms: C18_34  and  C19_35 
REMARK   17  A    between atoms: C19_35  and  N8_36 
REMARK   18  A    between atoms: N8_36  and  C20_38 
REMARK   19  A    between atoms: C20_38  and  C21_39 
ROOT
HETATM    1  C1  UNL     1      22.584   1.417  12.530  1.00  0.00     0.097 C 
HETATM    2  C2  UNL     1      22.092   2.472  12.149  1.00  0.00    -0.181 C 
HETATM    3  C3  UNL     1      21.497   3.712  11.668  1.00  0.00     0.140 C 
ENDROOT
BRANCH   3   4
HETATM    4  C4  UNL     1      21.931   4.868  12.468  1.00  0.00     0.068 A 
HETATM    5  N1  UNL     1      21.041   5.770  12.984  1.00  0.00    -0.308 N 
HETATM    6  C5  UNL     1      21.749   6.675  13.656  1.00  0.00     0.326 A 
ATOM      7  H1  UNL     1      20.027   5.753  12.875  1.00  0.00     0.170 HD
HETATM    8  O1  UNL     1      21.220   7.647  14.255  1.00  0.00    -0.247 OA
HETATM    9  N2  UNL     1      23.066   6.353  13.569  1.00  0.00    -0.293 N 
HETATM   10  C6  UNL     1      23.201   5.233  12.834  1.00  0.00     0.134 A 
ATOM     11  H2  UNL     1      23.832   6.877  13.993  1.00  0.00     0.172 HD
BRANCH  10  12
HETATM   12  N3  UNL     1      24.395   4.564  12.480  1.00  0.00    -0.337 N 
ATOM     13  H3  UNL     1      24.378   4.000  11.630  1.00  0.00     0.168 HD
BRANCH  12  14
HETATM   14  C7  UNL     1      25.617   4.609  13.202  1.00  0.00     0.184 C 
HETATM   15  N4  UNL     1      26.071   3.814  14.063  1.00  0.00    -0.355 N 
BRANCH  15  16
HETATM   16  C8  UNL     1      25.486   2.635  14.551  1.00  0.00     0.064 C 
BRANCH  16  17
HETATM   17  C9  UNL     1      24.748   2.594  15.826  1.00  0.00     0.040 C 
HETATM   18  C10 UNL     1      23.300   3.046  15.697  1.00  0.00     0.010 C 
ENDBRANCH  16  17
ENDBRANCH  15  16
BRANCH  15  19
HETATM   19  C11 UNL     1      27.325   4.216  14.764  1.00  0.00     0.165 C 
BRANCH  19  20
HETATM   20  C12 UNL     1      27.956   5.399  14.078  1.00  0.00     0.331 C 
BRANCH  20  21
HETATM   21  N5  UNL     1      29.212   5.721  14.693  1.00  0.00     0.012 N 
HETATM   22  C13 UNL     1      28.907   5.858  16.136  1.00  0.00     0.356 C 
HETATM   23  O2  UNL     1      29.638   6.928  14.222  1.00  0.00    -0.065 OA
BRANCH  21  24
HETATM   24  C14 UNL     1      30.281   4.793  14.563  1.00  0.00     0.331 C 
BRANCH  24  25
HETATM   25  C15 UNL     1      31.483   5.413  15.235  1.00  0.00     0.159 C 
BRANCH  25  26
HETATM   26  N6  UNL     1      32.550   5.786  14.356  1.00  0.00    -0.354 N 
ATOM     27  H6  UNL     1      33.124   5.091  13.878  1.00  0.00     0.163 HD
BRANCH  26  28
HETATM   28  C16 UNL     1      32.767   7.212  14.184  1.00  0.00     0.212 C 
HETATM   29  N7  UNL     1      33.537   7.747  15.044  1.00  0.00    -0.356 N 
ATOM     30  H7  UNL     1      33.911   7.111  15.749  1.00  0.00     0.163 HD
BRANCH  28  31
HETATM   31  O3  UNL     1      32.203   7.943  13.188  1.00  0.00    -0.333 OA
ATOM     32  H3  UNL     1      32.490   8.817  12.949  1.00  0.00     0.220 HD
ENDBRANCH  28  31
BRANCH  29  33
HETATM   33  C17 UNL     1      33.959   9.120  15.168  1.00  0.00     0.128 C 
BRANCH  33  34
HETATM   34  C18 UNL     1      35.229   9.274  14.385  1.00  0.00     0.064 C 
BRANCH  34  35
HETATM   35  C19 UNL     1      35.232  10.014  13.124  1.00  0.00     0.057 C 
BRANCH  35  36
HETATM   36  N8  UNL     1      35.526   9.378  11.922  1.00  0.00    -0.402 N 
ATOM     37  H8  UNL     1      35.308   8.386  11.834  1.00  0.00     0.158 HD
BRANCH  36  38
HETATM   38  C20 UNL     1      36.107  10.030  10.828  1.00  0.00     0.118 C 
BRANCH  38  39
HETATM   39  C21 UNL     1      36.484   8.967   9.779  1.00  0.00     0.015 C 
HETATM   40  C22 UNL     1      35.981   9.335   8.428  1.00  0.00     0.006 C 
ENDBRANCH  38  39
ENDBRANCH  36  38
ENDBRANCH  35  36
ENDBRANCH  34  35
ENDBRANCH  33  34
ENDBRANCH  29  33
ENDBRANCH  26  28
ENDBRANCH  25  26
ENDBRANCH  24  25
ENDBRANCH  21  24
ENDBRANCH  20  21
ENDBRANCH  19  20
ENDBRANCH  15  19
ENDBRANCH  12  14
ENDBRANCH  10  12
ENDBRANCH   3   4
TORSDOF 19
ENDMDL
MODEL 3
REMARK VINA RESULT: -7.385381369      2.888      4.567
REMARK  19 active torsions:
REMARK  status: ('A' for Active; 'I' for Inactive)
REMARK    1  A    between atoms: C3_3  and  C4_4 
REMARK    2  A    between atoms: C6_11  and  N3_12 
REMARK    3  A    between atoms: N3_12  and  C7_14 
REMARK    4  A    between atoms: N4_15  and  C8_16 
REMARK    5  A    between atoms: N4_15  and  C11_19 
REMARK    6  A    between atoms: C8_16  and  C9_17 
REMARK    7  A    between atoms: C11_19  and  C12_20 
REMARK    8  A    between atoms: C12_20  and  N5_21 
REMARK    9  A    between atoms: N5_21  and  C14_24 
REMARK   10  A    between atoms: C14_24  and  C15_25 
REMARK   11  A    between atoms: C15_25  and  N6_26 
REMARK   12  A    between atoms: N6_26  and  C16_28 
REMARK   13  A    between atoms: C16_28  and  O3_29 
REMARK   14  A    between atoms: N7_31  and  C17_33 
REMARK   15  A    between atoms: C17_33  and  C18_34 
REMARK   16  A    between atoms: C18_34  and  C19_35 
REMARK   17  A    between atoms: C19_35  and  N8_36 
REMARK   18  A    between atoms: N8_36  and  C20_38 
REMARK   19  A    between atoms: C20_38  and  C21_39 
ROOT
HETATM    1  C1  UNL     1      20.996   7.051  15.789  1.00  0.00     0.097 C 
HETATM    2  C2  UNL     1      21.321   7.030  14.608  1.00  0.00    -0.181 C 
HETATM    3  C3  UNL     1      21.698   7.038  13.201  1.00  0.00     0.140 C 
ENDROOT
BRANCH   3   4
HETATM    4  C4  UNL     1      21.879   5.674  12.680  1.00  0.00     0.068 A 
HETATM    5  N1  UNL     1      21.042   5.138  11.740  1.00  0.00    -0.308 N 
HETATM    6  C5  UNL     1      21.483   3.909  11.481  1.00  0.00     0.326 A 
ATOM      7  H1  UNL     1      20.233   5.593  11.317  1.00  0.00     0.170 HD
HETATM    8  O1  UNL     1      20.926   3.145  10.651  1.00  0.00    -0.247 OA
HETATM    9  N2  UNL     1      22.582   3.669  12.243  1.00  0.00    -0.293 N 
HETATM   10  C6  UNL     1      22.845   4.754  12.997  1.00  0.00     0.134 A 
ATOM     11  H2  UNL     1      23.122   2.803  12.245  1.00  0.00     0.172 HD
BRANCH  10  12
HETATM   12  N3  UNL     1      23.882   4.924  13.942  1.00  0.00    -0.337 N 
ATOM     13  H3  UNL     1      23.612   5.226  14.879  1.00  0.00     0.168 HD
BRANCH  12  14
HETATM   14  C7  UNL     1      25.266   4.714  13.704  1.00  0.00     0.184 C 
HETATM   15  N4  UNL     1      25.940   3.655  13.764  1.00  0.00    -0.355 N 
BRANCH  15  16
HETATM   16  C8  UNL     1      25.498   2.362  14.083  1.00  0.00     0.064 C 
BRANCH  16  17
HETATM   17  C9  UNL     1      24.791   2.061  15.341  1.00  0.00     0.040 C 
HETATM   18  C10 UNL     1      23.332   1.680  15.135  1.00  0.00     0.010 C 
ENDBRANCH  16  17
ENDBRANCH  15  16
BRANCH  15  19
HETATM   19  C11 UNL     1      27.418   3.781  13.610  1.00  0.00     0.165 C 
BRANCH  19  20
HETATM   20  C12 UNL     1      28.074   3.975  14.952  1.00  0.00     0.331 C 
BRANCH  20  21
HETATM   21  N5  UNL     1      29.183   4.879  14.840  1.00  0.00     0.012 N 
HETATM   22  C13 UNL     1      29.320   5.483  16.186  1.00  0.00     0.356 C 
HETATM   23  O2  UNL     1      28.861   5.864  13.953  1.00  0.00    -0.065 OA
BRANCH  21  24
HETATM   24  C14 UNL     1      30.448   4.348  14.473  1.00  0.00     0.331 C 
BRANCH  24  25
HETATM   25  C15 UNL     1      31.493   5.176  15.183  1.00  0.00     0.159 C 
BRANCH  25  26
HETATM   26  N6  UNL     1      32.517   5.719  14.341  1.00  0.00    -0.354 N 
ATOM     27  H6  UNL     1      33.292   5.152  13.998  1.00  0.00     0.163 HD
BRANCH  26  28
HETATM   28  C16 UNL     1      32.387   7.126  14.005  1.00  0.00     0.212 C 
HETATM   29  N7  UNL     1      33.441   7.820  14.172  1.00  0.00    -0.356 N 
ATOM     30  H7  UNL     1      34.250   7.305  14.520  1.00  0.00     0.163 HD
BRANCH  28  31
HETATM   31  O3  UNL     1      31.238   7.686  13.544  1.00  0.00    -0.333 OA
ATOM     32  H3  UNL     1      30.515   7.942  14.105  1.00  0.00     0.220 HD
ENDBRANCH  28  31
BRANCH  29  33
HETATM   33  C17 UNL     1      33.659   9.227  13.942  1.00  0.00     0.128 C 
BRANCH  33  34
HETATM   34  C18 UNL     1      35.088   9.398  13.521  1.00  0.00     0.064 C 
BRANCH  34  35
HETATM   35  C19 UNL     1      35.479  10.533  12.687  1.00  0.00     0.057 C 
BRANCH  35  36
HETATM   36  N8  UNL     1      35.795  10.358  11.343  1.00  0.00    -0.402 N 
ATOM     37  H8  UNL     1      36.590  10.871  10.962  1.00  0.00     0.158 HD
BRANCH  36  38
HETATM   38  C20 UNL     1      35.077   9.515  10.487  1.00  0.00     0.118 C 
BRANCH  38  39
HETATM   39  C21 UNL     1      36.080   8.803   9.561  1.00  0.00     0.015 C 
HETATM   40  C22 UNL     1      36.082   9.402   8.199  1.00  0.00     0.006 C 
ENDBRANCH  38  39
ENDBRANCH  36  38
ENDBRANCH  35  36
ENDBRANCH  34  35
ENDBRANCH  33  34
ENDBRANCH  29  33
ENDBRANCH  26  28
ENDBRANCH  25  26
ENDBRANCH  24  25
ENDBRANCH  21  24
ENDBRANCH  20  21
ENDBRANCH  19  20
ENDBRANCH  15  19
ENDBRANCH  12  14
ENDBRANCH  10  12
ENDBRANCH   3   4
TORSDOF 19
ENDMDL
MODEL 4
REMARK VINA RESULT: -7.345553612      1.402      1.952
REMARK  19 active torsions:
REMARK  status: ('A' for Active; 'I' for Inactive)
REMARK    1  A    between atoms: C3_3  and  C4_4 
REMARK    2  A    between atoms: C6_11  and  N3_12 
REMARK    3  A    between atoms: N3_12  and  C7_14 
REMARK    4  A    between atoms: N4_15  and  C8_16 
REMARK    5  A    between atoms: N4_15  and  C11_19 
REMARK    6  A    between atoms: C8_16  and  C9_17 
REMARK    7  A    between atoms: C11_19  and  C12_20 
REMARK    8  A    between atoms: C12_20  and  N5_21 
REMARK    9  A    between atoms: N5_21  and  C14_24 
REMARK   10  A    between atoms: C14_24  and  C15_25 
REMARK   11  A    between atoms: C15_25  and  N6_26 
REMARK   12  A    between atoms: N6_26  and  C16_28 
REMARK   13  A    between atoms: C16_28  and  O3_29 
REMARK   14  A    between atoms: N7_31  and  C17_33 
REMARK   15  A    between atoms: C17_33  and  C18_34 
REMARK   16  A    between atoms: C18_34  and  C19_35 
REMARK   17  A    between atoms: C19_35  and  N8_36 
REMARK   18  A    between atoms: N8_36  and  C20_38 
REMARK   19  A    between atoms: C20_38  and  C21_39 
ROOT
HETATM    1  C1  UNL     1      21.888   1.205  12.860  1.00  0.00     0.097 C 
HETATM    2  C2  UNL     1      21.756   2.312  12.350  1.00  0.00    -0.181 C 
HETATM    3  C3  UNL     1      21.598   3.613  11.714  1.00  0.00     0.140 C 
ENDROOT
BRANCH   3   4
HETATM    4  C4  UNL     1      21.875   4.712  12.651  1.00  0.00     0.068 A 
HETATM    5  N1  UNL     1      20.881   5.331  13.360  1.00  0.00    -0.308 N 
HETATM    6  C5  UNL     1      21.462   6.261  14.114  1.00  0.00     0.326 A 
ATOM      7  H1  UNL     1      19.884   5.119  13.318  1.00  0.00     0.170 HD
HETATM    8  O1  UNL     1      20.815   7.011  14.890  1.00  0.00    -0.247 OA
HETATM    9  N2  UNL     1      22.802   6.234  13.889  1.00  0.00    -0.293 N 
HETATM   10  C6  UNL     1      23.080   5.278  12.982  1.00  0.00     0.134 A 
ATOM     11  H2  UNL     1      23.489   6.842  14.335  1.00  0.00     0.172 HD
BRANCH  10  12
HETATM   12  N3  UNL     1      24.340   4.926  12.449  1.00  0.00    -0.337 N 
ATOM     13  H3  UNL     1      24.410   4.846  11.434  1.00  0.00     0.168 HD
BRANCH  12  14
HETATM   14  C7  UNL     1      25.519   4.675  13.200  1.00  0.00     0.184 C 
HETATM   15  N4  UNL     1      25.862   3.648  13.838  1.00  0.00    -0.355 N 
BRANCH  15  16
HETATM   16  C8  UNL     1      25.162   2.439  13.978  1.00  0.00     0.064 C 
BRANCH  16  17
HETATM   17  C9  UNL     1      24.627   1.987  15.275  1.00  0.00     0.040 C 
HETATM   18  C10 UNL     1      23.447   2.817  15.761  1.00  0.00     0.010 C 
ENDBRANCH  16  17
ENDBRANCH  15  16
BRANCH  15  19
HETATM   19  C11 UNL     1      27.100   3.743  14.664  1.00  0.00     0.165 C 
BRANCH  19  20
HETATM   20  C12 UNL     1      27.845   5.014  14.352  1.00  0.00     0.331 C 
BRANCH  20  21
HETATM   21  N5  UNL     1      28.989   5.145  15.208  1.00  0.00     0.012 N 
HETATM   22  C13 UNL     1      29.144   3.815  15.843  1.00  0.00     0.356 C 
HETATM   23  O2  UNL     1      28.711   6.060  16.180  1.00  0.00    -0.065 OA
BRANCH  21  24
HETATM   24  C14 UNL     1      30.235   5.490  14.617  1.00  0.00     0.331 C 
BRANCH  24  25
HETATM   25  C15 UNL     1      31.312   4.853  15.463  1.00  0.00     0.159 C 
BRANCH  25  26
HETATM   26  N6  UNL     1      32.588   5.502  15.418  1.00  0.00    -0.354 N 
ATOM     27  H6  UNL     1      33.344   5.166  14.822  1.00  0.00     0.163 HD
BRANCH  26  28
HETATM   28  C16 UNL     1      32.742   6.667  16.272  1.00  0.00     0.212 C 
HETATM   29  N7  UNL     1      31.766   6.892  17.057  1.00  0.00    -0.356 N 
ATOM     30  H7  UNL     1      30.994   6.228  16.995  1.00  0.00     0.163 HD
BRANCH  28  31
HETATM   31  O3  UNL     1      33.835   7.473  16.254  1.00  0.00    -0.333 OA
ATOM     32  H3  UNL     1      34.339   7.694  17.029  1.00  0.00     0.220 HD
ENDBRANCH  28  31
BRANCH  29  33
HETATM   33  C17 UNL     1      31.591   7.949  18.022  1.00  0.00     0.128 C 
BRANCH  33  34
HETATM   34  C18 UNL     1      30.119   8.200  18.155  1.00  0.00     0.064 C 
BRANCH  34  35
HETATM   35  C19 UNL     1      29.371   7.627  19.273  1.00  0.00     0.057 C 
BRANCH  35  36
HETATM   36  N8  UNL     1      30.009   7.297  20.465  1.00  0.00    -0.402 N 
ATOM     37  H8  UNL     1      31.024   7.207  20.462  1.00  0.00     0.158 HD
BRANCH  36  38
HETATM   38  C20 UNL     1      29.326   7.081  21.668  1.00  0.00     0.118 C 
BRANCH  38  39
HETATM   39  C21 UNL     1      28.665   5.692  21.603  1.00  0.00     0.015 C 
HETATM   40  C22 UNL     1      28.849   4.942  22.875  1.00  0.00     0.006 C 
ENDBRANCH  38  39
ENDBRANCH  36  38
ENDBRANCH  35  36
ENDBRANCH  34  35
ENDBRANCH  33  34
ENDBRANCH  29  33
ENDBRANCH  26  28
ENDBRANCH  25  26
ENDBRANCH  24  25
ENDBRANCH  21  24
ENDBRANCH  20  21
ENDBRANCH  19  20
ENDBRANCH  15  19
ENDBRANCH  12  14
ENDBRANCH  10  12
ENDBRANCH   3   4
TORSDOF 19
ENDMDL
MODEL 5
REMARK VINA RESULT: -7.343257974      1.549      2.364
REMARK  19 active torsions:
REMARK  status: ('A' for Active; 'I' for Inactive)
REMARK    1  A    between atoms: C3_3  and  C4_4 
REMARK    2  A    between atoms: C6_11  and  N3_12 
REMARK    3  A    between atoms: N3_12  and  C7_14 
REMARK    4  A    between atoms: N4_15  and  C8_16 
REMARK    5  A    between atoms: N4_15  and  C11_19 
REMARK    6  A    between atoms: C8_16  and  C9_17 
REMARK    7  A    between atoms: C11_19  and  C12_20 
REMARK    8  A    between atoms: C12_20  and  N5_21 
REMARK    9  A    between atoms: N5_21  and  C14_24 
REMARK   10  A    between atoms: C14_24  and  C15_25 
REMARK   11  A    between atoms: C15_25  and  N6_26 
REMARK   12  A    between atoms: N6_26  and  C16_28 
REMARK   13  A    between atoms: C16_28  and  O3_29 
REMARK   14  A    between atoms: N7_31  and  C17_33 
REMARK   15  A    between atoms: C17_33  and  C18_34 
REMARK   16  A    between atoms: C18_34  and  C19_35 
REMARK   17  A    between atoms: C19_35  and  N8_36 
REMARK   18  A    between atoms: N8_36  and  C20_38 
REMARK   19  A    between atoms: C20_38  and  C21_39 
ROOT
HETATM    1  C1  UNL     1      21.069   7.981  15.100  1.00  0.00     0.097 C 
HETATM    2  C2  UNL     1      21.245   6.770  15.042  1.00  0.00    -0.181 C 
HETATM    3  C3  UNL     1      21.454   5.329  15.007  1.00  0.00     0.140 C 
ENDROOT
BRANCH   3   4
HETATM    4  C4  UNL     1      21.793   4.863  13.653  1.00  0.00     0.068 A 
HETATM    5  N1  UNL     1      20.877   4.244  12.847  1.00  0.00    -0.308 N 
HETATM    6  C5  UNL     1      21.493   3.963  11.702  1.00  0.00     0.326 A 
ATOM      7  H1  UNL     1      19.905   4.038  13.079  1.00  0.00     0.170 HD
HETATM    8  O1  UNL     1      20.918   3.388  10.741  1.00  0.00    -0.247 OA
HETATM    9  N2  UNL     1      22.779   4.396  11.779  1.00  0.00    -0.293 N 
HETATM   10  C6  UNL     1      22.986   4.958  12.985  1.00  0.00     0.134 A 
ATOM     11  H2  UNL     1      23.477   4.308  11.040  1.00  0.00     0.172 HD
BRANCH  10  12
HETATM   12  N3  UNL     1      24.183   5.516  13.489  1.00  0.00    -0.337 N 
ATOM     13  H3  UNL     1      24.149   6.489  13.794  1.00  0.00     0.168 HD
BRANCH  12  14
HETATM   14  C7  UNL     1      25.427   4.843  13.608  1.00  0.00     0.184 C 
HETATM   15  N4  UNL     1      25.758   3.891  14.358  1.00  0.00    -0.355 N 
BRANCH  15  16
HETATM   16  C8  UNL     1      24.967   3.211  15.298  1.00  0.00     0.064 C 
BRANCH  16  17
HETATM   17  C9  UNL     1      24.590   1.796  15.130  1.00  0.00     0.040 C 
HETATM   18  C10 UNL     1      23.565   1.573  14.027  1.00  0.00     0.010 C 
ENDBRANCH  16  17
ENDBRANCH  15  16
BRANCH  15  19
HETATM   19  C11 UNL     1      27.197   3.498  14.364  1.00  0.00     0.165 C 
BRANCH  19  20
HETATM   20  C12 UNL     1      28.065   4.674  13.999  1.00  0.00     0.331 C 
BRANCH  20  21
HETATM   21  N5  UNL     1      29.213   4.732  14.858  1.00  0.00     0.012 N 
HETATM   22  C13 UNL     1      28.845   3.921  16.042  1.00  0.00     0.356 C 
HETATM   23  O2  UNL     1      29.400   6.023  15.258  1.00  0.00    -0.065 OA
BRANCH  21  24
HETATM   24  C14 UNL     1      30.449   4.238  14.362  1.00  0.00     0.331 C 
BRANCH  24  25
HETATM   25  C15 UNL     1      31.540   4.883  15.184  1.00  0.00     0.159 C 
BRANCH  25  26
HETATM   26  N6  UNL     1      32.529   5.597  14.433  1.00  0.00    -0.354 N 
ATOM     27  H6  UNL     1      33.306   5.121  13.975  1.00  0.00     0.163 HD
BRANCH  26  28
HETATM   28  C16 UNL     1      32.361   7.037  14.363  1.00  0.00     0.212 C 
HETATM   29  N7  UNL     1      33.172   7.710  15.077  1.00  0.00    -0.356 N 
ATOM     30  H7  UNL     1      33.843   7.157  15.612  1.00  0.00     0.163 HD
BRANCH  28  31
HETATM   31  O3  UNL     1      31.418   7.648  13.600  1.00  0.00    -0.333 OA
ATOM     32  H3  UNL     1      31.622   8.233  12.879  1.00  0.00     0.220 HD
ENDBRANCH  28  31
BRANCH  29  33
HETATM   33  C17 UNL     1      33.282   9.138  15.242  1.00  0.00     0.128 C 
BRANCH  33  34
HETATM   34  C18 UNL     1      32.498   9.512  16.465  1.00  0.00     0.064 C 
BRANCH  34  35
HETATM   35  C19 UNL     1      31.065   9.784  16.367  1.00  0.00     0.057 C 
BRANCH  35  36
HETATM   36  N8  UNL     1      30.131   8.765  16.524  1.00  0.00    -0.402 N 
ATOM     37  H8  UNL     1      29.988   8.116  15.751  1.00  0.00     0.158 HD
BRANCH  36  38
HETATM   38  C20 UNL     1      29.377   8.585  17.690  1.00  0.00     0.118 C 
BRANCH  38  39
HETATM   39  C21 UNL     1      29.897   7.326  18.409  1.00  0.00     0.015 C 
HETATM   40  C22 UNL     1      29.352   7.224  19.789  1.00  0.00     0.006 C 
ENDBRANCH  38  39
ENDBRANCH  36  38
ENDBRANCH  35  36
ENDBRANCH  34  35
ENDBRANCH  33  34
ENDBRANCH  29  33
ENDBRANCH  26  28
ENDBRANCH  25  26
ENDBRANCH  24  25
ENDBRANCH  21  24
ENDBRANCH  20  21
ENDBRANCH  19  20
ENDBRANCH  15  19
ENDBRANCH  12  14
ENDBRANCH  10  12
ENDBRANCH   3   4
TORSDOF 19
ENDMDL
