MODEL 1
REMARK VINA RESULT: -8.003378167      0.000      0.000
REMARK  5 active torsions:
REMARK  status: ('A' for Active; 'I' for Inactive)
REMARK    1  A    between atoms: N2_14  and  C13_16 
REMARK    2  A    between atoms: C13_16  and  C14_17 
REMARK    3  A    between atoms: C14_17  and  C15_18 
REMARK    4  A    between atoms: C15_18  and  N3_19 
REMARK    5  A    between atoms: C16_21  and  C17_23 
ROOT
HETATM    1  C1  UNL     1      11.005  35.876  75.470  1.00  0.00     0.011 C 
HETATM    2  C2  UNL     1       9.772  35.278  76.169  1.00  0.00     0.005 C 
HETATM    3  C3  UNL     1      10.128  35.196  77.625  1.00  0.00     0.010 C 
HETATM    4  C4  UNL     1       9.171  34.499  78.505  1.00  0.00    -0.012 C 
HETATM    5  C5  UNL     1       8.141  35.407  79.139  1.00  0.00     0.015 C 
HETATM    6  C6  UNL     1       7.254  35.678  77.916  1.00  0.00    -0.029 C 
HETATM    7  C7  UNL     1       5.959  36.268  78.434  1.00  0.00     0.016 C 
HETATM    8  C8  UNL     1       7.940  36.702  77.107  1.00  0.00     0.035 C 
HETATM    9  C9  UNL     1       8.633  36.192  75.876  1.00  0.00     0.058 C 
HETATM   10  C10 UNL     1       9.037  37.382  75.095  1.00  0.00     0.070 C 
HETATM   11  N1  UNL     1       9.356  38.304  74.468  1.00  0.00    -0.196 NA
HETATM   12  C11 UNL     1       7.578  35.488  75.049  1.00  0.00     0.078 C 
HETATM   13  C12 UNL     1       7.171  34.277  75.855  1.00  0.00    -0.007 C 
HETATM   14  N2  UNL     1       6.905  33.255  75.201  1.00  0.00    -0.396 N 
ATOM     15  H2  UNL     1       7.013  33.424  74.201  1.00  0.00     0.159 HD
HETATM   16  C20 UNL     1       7.103  34.313  77.315  1.00  0.00     0.002 C 
HETATM   17  C21 UNL     1       5.801  33.677  77.758  1.00  0.00     0.022 C 
HETATM   18  C22 UNL     1       8.294  33.491  77.818  1.00  0.00     0.020 C 
ENDROOT
BRANCH  14  19
HETATM   19  C13 UNL     1       6.506  31.960  75.444  1.00  0.00     0.121 C 
BRANCH  19  20
HETATM   20  C14 UNL     1       7.374  31.048  74.550  1.00  0.00     0.039 C 
BRANCH  20  21
HETATM   21  C15 UNL     1       8.637  30.706  75.296  1.00  0.00     0.122 C 
BRANCH  21  22
HETATM   22  N3  UNL     1       9.572  30.162  74.335  1.00  0.00    -0.376 N 
HETATM   23  C16 UNL     1      10.694  30.713  74.170  1.00  0.00     0.146 C 
HETATM   24  N4  UNL     1      11.074  31.854  74.900  1.00  0.00    -0.080 NA
ATOM     25  H3  UNL     1       9.324  29.336  73.792  1.00  0.00     0.160 HD
BRANCH  23  26
HETATM   26  C17 UNL     1      11.645  30.162  73.193  1.00  0.00     0.115 A 
HETATM   27  N5  UNL     1      11.408  29.359  72.165  1.00  0.00    -0.357 N 
HETATM   28  C18 UNL     1      12.379  28.973  71.405  1.00  0.00     0.096 A 
ATOM     29  H5  UNL     1      10.457  29.045  71.973  1.00  0.00     0.166 HD
HETATM   30  C19 UNL     1      13.644  29.423  71.704  1.00  0.00     0.069 A 
HETATM   31  S1  UNL     1      13.345  30.387  73.082  1.00  0.00    -0.080 SA
ENDBRANCH  23  26
ENDBRANCH  21  22
ENDBRANCH  20  21
ENDBRANCH  19  20
ENDBRANCH  14  19
TORSDOF 5
ENDMDL
MODEL 2
REMARK VINA RESULT: -7.831164805      0.868      1.093
REMARK  5 active torsions:
REMARK  status: ('A' for Active; 'I' for Inactive)
REMARK    1  A    between atoms: N2_14  and  C13_16 
REMARK    2  A    between atoms: C13_16  and  C14_17 
REMARK    3  A    between atoms: C14_17  and  C15_18 
REMARK    4  A    between atoms: C15_18  and  N3_19 
REMARK    5  A    between atoms: C16_21  and  C17_23 
ROOT
HETATM    1  C1  UNL     1      11.022  35.914  75.458  1.00  0.00     0.011 C 
HETATM    2  C2  UNL     1       9.792  35.307  76.154  1.00  0.00     0.005 C 
HETATM    3  C3  UNL     1      10.137  35.246  77.614  1.00  0.00     0.010 C 
HETATM    4  C4  UNL     1       9.184  34.546  78.494  1.00  0.00    -0.012 C 
HETATM    5  C5  UNL     1       8.136  35.446  79.110  1.00  0.00     0.015 C 
HETATM    6  C6  UNL     1       7.255  35.691  77.876  1.00  0.00    -0.029 C 
HETATM    7  C7  UNL     1       5.947  36.268  78.378  1.00  0.00     0.016 C 
HETATM    8  C8  UNL     1       7.933  36.715  77.062  1.00  0.00     0.035 C 
HETATM    9  C9  UNL     1       8.642  36.201  75.842  1.00  0.00     0.058 C 
HETATM   10  C10 UNL     1       9.035  37.388  75.050  1.00  0.00     0.070 C 
HETATM   11  N1  UNL     1       9.346  38.306  74.415  1.00  0.00    -0.196 NA
HETATM   12  C11 UNL     1       7.604  35.473  75.015  1.00  0.00     0.078 C 
HETATM   13  C12 UNL     1       7.208  34.265  75.832  1.00  0.00    -0.007 C 
HETATM   14  N2  UNL     1       6.962  33.232  75.187  1.00  0.00    -0.396 N 
ATOM     15  H2  UNL     1       7.075  33.390  74.186  1.00  0.00     0.159 HD
HETATM   16  C20 UNL     1       7.128  34.317  77.291  1.00  0.00     0.002 C 
HETATM   17  C21 UNL     1       5.832  33.667  77.731  1.00  0.00     0.022 C 
HETATM   18  C22 UNL     1       8.327  33.517  77.813  1.00  0.00     0.020 C 
ENDROOT
BRANCH  14  19
HETATM   19  C13 UNL     1       6.579  31.934  75.442  1.00  0.00     0.121 C 
BRANCH  19  20
HETATM   20  C14 UNL     1       7.062  31.082  74.248  1.00  0.00     0.039 C 
BRANCH  20  21
HETATM   21  C15 UNL     1       8.062  30.074  74.750  1.00  0.00     0.122 C 
BRANCH  21  22
HETATM   22  N3  UNL     1       9.280  30.260  73.991  1.00  0.00    -0.376 N 
HETATM   23  C16 UNL     1      10.120  29.324  73.914  1.00  0.00     0.146 C 
HETATM   24  N4  UNL     1       9.912  28.086  74.549  1.00  0.00    -0.080 NA
ATOM     25  H3  UNL     1       9.457  31.147  73.519  1.00  0.00     0.160 HD
BRANCH  23  26
HETATM   26  C17 UNL     1      11.359  29.512  73.143  1.00  0.00     0.115 A 
HETATM   27  N5  UNL     1      12.171  30.559  73.118  1.00  0.00    -0.357 N 
HETATM   28  C18 UNL     1      13.225  30.547  72.372  1.00  0.00     0.096 A 
ATOM     29  H5  UNL     1      11.963  31.378  73.690  1.00  0.00     0.166 HD
HETATM   30  C19 UNL     1      13.463  29.420  71.620  1.00  0.00     0.069 A 
HETATM   31  S1  UNL     1      12.130  28.440  72.044  1.00  0.00    -0.080 SA
ENDBRANCH  23  26
ENDBRANCH  21  22
ENDBRANCH  20  21
ENDBRANCH  19  20
ENDBRANCH  14  19
TORSDOF 5
ENDMDL
MODEL 3
REMARK VINA RESULT: -7.769686713      1.338      1.403
REMARK  5 active torsions:
REMARK  status: ('A' for Active; 'I' for Inactive)
REMARK    1  A    between atoms: N2_14  and  C13_16 
REMARK    2  A    between atoms: C13_16  and  C14_17 
REMARK    3  A    between atoms: C14_17  and  C15_18 
REMARK    4  A    between atoms: C15_18  and  N3_19 
REMARK    5  A    between atoms: C16_21  and  C17_23 
ROOT
HETATM    1  C1  UNL     1      10.614  36.019  75.534  1.00  0.00     0.011 C 
HETATM    2  C2  UNL     1       9.666  35.192  76.419  1.00  0.00     0.005 C 
HETATM    3  C3  UNL     1      10.163  35.368  77.825  1.00  0.00     0.010 C 
HETATM    4  C4  UNL     1       9.523  34.540  78.864  1.00  0.00    -0.012 C 
HETATM    5  C5  UNL     1       8.344  35.203  79.543  1.00  0.00     0.015 C 
HETATM    6  C6  UNL     1       7.308  35.092  78.415  1.00  0.00    -0.029 C 
HETATM    7  C7  UNL     1       5.953  35.366  79.035  1.00  0.00     0.016 C 
HETATM    8  C8  UNL     1       7.605  36.167  77.452  1.00  0.00     0.035 C 
HETATM    9  C9  UNL     1       8.295  35.731  76.192  1.00  0.00     0.058 C 
HETATM   10  C10 UNL     1       8.279  36.893  75.276  1.00  0.00     0.070 C 
HETATM   11  N1  UNL     1       8.270  37.793  74.545  1.00  0.00    -0.196 NA
HETATM   12  C11 UNL     1       7.406  34.685  75.554  1.00  0.00     0.078 C 
HETATM   13  C12 UNL     1       7.427  33.504  76.497  1.00  0.00    -0.007 C 
HETATM   14  N2  UNL     1       7.397  32.383  75.962  1.00  0.00    -0.396 N 
ATOM     15  H2  UNL     1       7.361  32.464  74.946  1.00  0.00     0.159 HD
HETATM   16  C20 UNL     1       7.487  33.679  77.947  1.00  0.00     0.002 C 
HETATM   17  C21 UNL     1       6.460  32.770  78.591  1.00  0.00     0.022 C 
HETATM   18  C22 UNL     1       8.901  33.265  78.369  1.00  0.00     0.020 C 
ENDROOT
BRANCH  14  19
HETATM   19  C13 UNL     1       7.398  31.063  76.353  1.00  0.00     0.121 C 
BRANCH  19  20
HETATM   20  C14 UNL     1       7.619  30.218  75.079  1.00  0.00     0.039 C 
BRANCH  20  21
HETATM   21  C15 UNL     1       8.434  31.026  74.103  1.00  0.00     0.122 C 
BRANCH  21  22
HETATM   22  N3  UNL     1       9.740  30.409  74.018  1.00  0.00    -0.376 N 
HETATM   23  C16 UNL     1      10.732  30.963  74.564  1.00  0.00     0.146 C 
HETATM   24  N4  UNL     1      10.611  32.177  75.263  1.00  0.00    -0.080 NA
ATOM     25  H3  UNL     1       9.857  29.528  73.518  1.00  0.00     0.160 HD
BRANCH  23  26
HETATM   26  C17 UNL     1      12.061  30.337  74.478  1.00  0.00     0.115 A 
HETATM   27  N5  UNL     1      13.124  30.736  73.794  1.00  0.00    -0.357 N 
HETATM   28  C18 UNL     1      14.219  30.053  73.838  1.00  0.00     0.096 A 
ATOM     29  H5  UNL     1      13.077  31.586  73.231  1.00  0.00     0.166 HD
HETATM   30  C19 UNL     1      14.233  28.915  74.611  1.00  0.00     0.069 A 
HETATM   31  S1  UNL     1      12.641  28.907  75.232  1.00  0.00    -0.080 SA
ENDBRANCH  23  26
ENDBRANCH  21  22
ENDBRANCH  20  21
ENDBRANCH  19  20
ENDBRANCH  14  19
TORSDOF 5
ENDMDL
MODEL 4
REMARK VINA RESULT: -7.734097738      4.505      8.284
REMARK  5 active torsions:
REMARK  status: ('A' for Active; 'I' for Inactive)
REMARK    1  A    between atoms: N2_14  and  C13_16 
REMARK    2  A    between atoms: C13_16  and  C14_17 
REMARK    3  A    between atoms: C14_17  and  C15_18 
REMARK    4  A    between atoms: C15_18  and  N3_19 
REMARK    5  A    between atoms: C16_21  and  C17_23 
ROOT
HETATM    1  C1  UNL     1       9.552  31.841  76.346  1.00  0.00     0.011 C 
HETATM    2  C2  UNL     1       8.932  33.163  76.830  1.00  0.00     0.005 C 
HETATM    3  C3  UNL     1       9.940  34.229  76.506  1.00  0.00     0.010 C 
HETATM    4  C4  UNL     1       9.662  35.583  77.019  1.00  0.00    -0.012 C 
HETATM    5  C5  UNL     1       8.900  36.464  76.054  1.00  0.00     0.015 C 
HETATM    6  C6  UNL     1       7.508  35.826  76.173  1.00  0.00    -0.029 C 
HETATM    7  C7  UNL     1       6.524  36.803  75.564  1.00  0.00     0.016 C 
HETATM    8  C8  UNL     1       7.524  34.606  75.347  1.00  0.00     0.035 C 
HETATM    9  C9  UNL     1       7.639  33.316  76.107  1.00  0.00     0.058 C 
HETATM   10  C10 UNL     1       7.393  32.228  75.134  1.00  0.00     0.070 C 
HETATM   11  N1  UNL     1       7.197  31.365  74.385  1.00  0.00    -0.196 NA
HETATM   12  C11 UNL     1       6.476  33.281  77.075  1.00  0.00     0.078 C 
HETATM   13  C12 UNL     1       6.735  34.395  78.062  1.00  0.00    -0.007 C 
HETATM   14  N2  UNL     1       6.393  34.170  79.235  1.00  0.00    -0.396 N 
ATOM     15  H2  UNL     1       5.983  33.240  79.324  1.00  0.00     0.159 HD
HETATM   16  C20 UNL     1       7.356  35.654  77.654  1.00  0.00     0.002 C 
HETATM   17  C21 UNL     1       6.564  36.802  78.246  1.00  0.00     0.022 C 
HETATM   18  C22 UNL     1       8.776  35.636  78.230  1.00  0.00     0.020 C 
ENDROOT
BRANCH  14  19
HETATM   19  C13 UNL     1       6.410  34.821  80.448  1.00  0.00     0.121 C 
BRANCH  19  20
HETATM   20  C14 UNL     1       5.440  34.060  81.379  1.00  0.00     0.039 C 
BRANCH  20  21
HETATM   21  C15 UNL     1       4.036  34.250  80.867  1.00  0.00     0.122 C 
BRANCH  21  22
HETATM   22  N3  UNL     1       3.893  35.645  80.510  1.00  0.00    -0.376 N 
HETATM   23  C16 UNL     1       2.750  36.113  80.257  1.00  0.00     0.146 C 
HETATM   24  N4  UNL     1       1.593  35.315  80.311  1.00  0.00    -0.080 NA
ATOM     25  H3  UNL     1       4.714  36.247  80.463  1.00  0.00     0.160 HD
BRANCH  23  26
HETATM   26  C17 UNL     1       2.602  37.531  79.893  1.00  0.00     0.115 A 
HETATM   27  N5  UNL     1       3.286  38.235  79.002  1.00  0.00    -0.357 N 
HETATM   28  C18 UNL     1       3.015  39.484  78.814  1.00  0.00     0.096 A 
ATOM     29  H5  UNL     1       4.029  37.790  78.463  1.00  0.00     0.166 HD
HETATM   30  C19 UNL     1       2.005  40.039  79.564  1.00  0.00     0.069 A 
HETATM   31  S1  UNL     1       1.506  38.703  80.505  1.00  0.00    -0.080 SA
ENDBRANCH  23  26
ENDBRANCH  21  22
ENDBRANCH  20  21
ENDBRANCH  19  20
ENDBRANCH  14  19
TORSDOF 5
ENDMDL
MODEL 5
REMARK VINA RESULT: -7.720618686      5.575      9.926
REMARK  5 active torsions:
REMARK  status: ('A' for Active; 'I' for Inactive)
REMARK    1  A    between atoms: N2_14  and  C13_16 
REMARK    2  A    between atoms: C13_16  and  C14_17 
REMARK    3  A    between atoms: C14_17  and  C15_18 
REMARK    4  A    between atoms: C15_18  and  N3_19 
REMARK    5  A    between atoms: C16_21  and  C17_23 
ROOT
HETATM    1  C1  UNL     1      10.285  35.192  80.402  1.00  0.00     0.011 C 
HETATM    2  C2  UNL     1       9.423  35.190  79.128  1.00  0.00     0.005 C 
HETATM    3  C3  UNL     1      10.390  35.260  77.981  1.00  0.00     0.010 C 
HETATM    4  C4  UNL     1       9.813  35.438  76.636  1.00  0.00    -0.012 C 
HETATM    5  C5  UNL     1       9.539  34.142  75.904  1.00  0.00     0.015 C 
HETATM    6  C6  UNL     1       8.301  33.669  76.682  1.00  0.00    -0.029 C 
HETATM    7  C7  UNL     1       7.658  32.574  75.858  1.00  0.00     0.016 C 
HETATM    8  C8  UNL     1       8.787  33.080  77.942  1.00  0.00     0.035 C 
HETATM    9  C9  UNL     1       8.616  33.938  79.162  1.00  0.00     0.058 C 
HETATM   10  C10 UNL     1       8.932  33.083  80.328  1.00  0.00     0.070 C 
HETATM   11  N1  UNL     1       9.171  32.426  81.253  1.00  0.00    -0.196 NA
HETATM   12  C11 UNL     1       7.139  34.253  79.264  1.00  0.00     0.078 C 
HETATM   13  C12 UNL     1       6.826  35.124  78.069  1.00  0.00    -0.007 C 
HETATM   14  N2  UNL     1       5.988  36.021  78.257  1.00  0.00    -0.396 N 
ATOM     15  H2  UNL     1       5.648  36.008  79.219  1.00  0.00     0.159 HD
HETATM   16  C20 UNL     1       7.481  34.920  76.777  1.00  0.00     0.002 C 
HETATM   17  C21 UNL     1       6.428  34.952  75.688  1.00  0.00     0.022 C 
HETATM   18  C22 UNL     1       8.458  36.087  76.605  1.00  0.00     0.020 C 
ENDROOT
BRANCH  14  19
HETATM   19  C13 UNL     1       5.387  37.027  77.534  1.00  0.00     0.121 C 
BRANCH  19  20
HETATM   20  C14 UNL     1       4.762  38.002  78.557  1.00  0.00     0.039 C 
BRANCH  20  21
HETATM   21  C15 UNL     1       4.211  39.190  77.813  1.00  0.00     0.122 C 
BRANCH  21  22
HETATM   22  N3  UNL     1       3.077  39.681  78.566  1.00  0.00    -0.376 N 
HETATM   23  C16 UNL     1       3.148  40.796  79.150  1.00  0.00     0.146 C 
HETATM   24  N4  UNL     1       4.308  41.591  79.093  1.00  0.00    -0.080 NA
ATOM     25  H3  UNL     1       2.223  39.128  78.623  1.00  0.00     0.160 HD
BRANCH  23  26
HETATM   26  C17 UNL     1       1.997  41.298  79.916  1.00  0.00     0.115 A 
HETATM   27  N5  UNL     1       1.690  42.548  80.232  1.00  0.00    -0.357 N 
HETATM   28  C18 UNL     1       0.627  42.803  80.919  1.00  0.00     0.096 A 
ATOM     29  H5  UNL     1       2.296  43.312  79.930  1.00  0.00     0.166 HD
HETATM   30  C19 UNL     1      -0.158  41.739  81.301  1.00  0.00     0.069 A 
HETATM   31  S1  UNL     1       0.704  40.424  80.634  1.00  0.00    -0.080 SA
ENDBRANCH  23  26
ENDBRANCH  21  22
ENDBRANCH  20  21
ENDBRANCH  19  20
ENDBRANCH  14  19
TORSDOF 5
ENDMDL
