MODEL 1
REMARK VINA RESULT: -7.822400677      0.000      0.000
REMARK  6 active torsions:
REMARK  status: ('A' for Active; 'I' for Inactive)
REMARK    1  A    between atoms: O1_2  and  C2_3 
REMARK    2  A    between atoms: C4_5  and  C5_6 
REMARK       I    between atoms: C5_6  and  N1_8 
REMARK    3  A    between atoms: C6_10  and  N2_12 
REMARK    4  A    between atoms: N2_12  and  C7_14 
REMARK    5  A    between atoms: C17_24  and  O3_25 
REMARK    6  A    between atoms: C19_27  and  O4_28 
ROOT
HETATM    1  C5  UNL     1       5.497  35.652  80.039  1.00  0.00     0.257 C 
HETATM    2  O2  UNL     1       5.697  35.078  81.162  1.00  0.00    -0.267 OA
HETATM    3  N1  UNL     1       6.384  35.462  78.954  1.00  0.00    -0.303 N 
ATOM      4  H1  UNL     1       7.214  36.049  78.865  1.00  0.00     0.171 HD
HETATM    5  C6  UNL     1       6.147  34.553  78.083  1.00  0.00     0.154 C 
HETATM    6  S1  UNL     1       4.690  33.547  78.270  1.00  0.00    -0.013 SA
ENDROOT
BRANCH   1   7
HETATM    7  C4  UNL     1       4.341  36.523  79.842  1.00  0.00     0.037 A 
HETATM    8  C3  UNL     1       3.078  36.162  80.277  1.00  0.00     0.057 A 
HETATM    9  C2  UNL     1       2.027  37.004  80.074  1.00  0.00     0.105 A 
HETATM   10  C19 UNL     1       2.197  38.226  79.435  1.00  0.00     0.135 A 
HETATM   11  C17 UNL     1       3.447  38.593  78.999  1.00  0.00     0.105 A 
HETATM   12  C16 UNL     1       4.514  37.734  79.208  1.00  0.00     0.057 A 
BRANCH   9  13
HETATM   13  O1  UNL     1       0.779  36.634  80.510  1.00  0.00    -0.353 OA
HETATM   14  C1  UNL     1       0.498  35.332  80.956  1.00  0.00     0.210 C 
ENDBRANCH   9  13
BRANCH  10  15
HETATM   15  O4  UNL     1       1.160  39.113  79.207  1.00  0.00    -0.351 OA
HETATM   16  C20 UNL     1       0.824  40.011  80.258  1.00  0.00     0.210 C 
ENDBRANCH  10  15
BRANCH  11  17
HETATM   17  O3  UNL     1       3.636  39.783  78.373  1.00  0.00    -0.353 OA
HETATM   18  C18 UNL     1       4.194  40.940  78.901  1.00  0.00     0.210 C 
ENDBRANCH  11  17
ENDBRANCH   1   7
BRANCH   5  19
HETATM   19  N2  UNL     1       6.992  34.310  76.972  1.00  0.00    -0.365 N 
ATOM     20  H2  UNL     1       6.735  33.571  76.318  1.00  0.00     0.162 HD
BRANCH  19  21
HETATM   21  C7  UNL     1       8.205  35.061  76.724  1.00  0.00     0.083 C 
HETATM   22  C8  UNL     1       9.144  34.237  75.958  1.00  0.00     0.025 C 
HETATM   23  C9  UNL     1      10.596  34.518  76.129  1.00  0.00     0.002 C 
HETATM   24  C10 UNL     1      11.048  35.899  75.852  1.00  0.00     0.000 C 
HETATM   25  C11 UNL     1      10.581  36.410  74.508  1.00  0.00     0.000 C 
HETATM   26  C12 UNL     1       9.911  37.741  74.593  1.00  0.00     0.000 C 
HETATM   27  C13 UNL     1       8.472  37.759  74.222  1.00  0.00     0.000 C 
HETATM   28  C14 UNL     1       7.675  36.591  74.771  1.00  0.00     0.002 C 
HETATM   29  C15 UNL     1       7.849  36.406  76.224  1.00  0.00     0.025 C 
ENDBRANCH  19  21
ENDBRANCH   5  19
TORSDOF 6
ENDMDL
MODEL 2
REMARK VINA RESULT: -7.801844611      0.074      2.479
REMARK  6 active torsions:
REMARK  status: ('A' for Active; 'I' for Inactive)
REMARK    1  A    between atoms: O1_2  and  C2_3 
REMARK    2  A    between atoms: C4_5  and  C5_6 
REMARK       I    between atoms: C5_6  and  N1_8 
REMARK    3  A    between atoms: C6_10  and  N2_12 
REMARK    4  A    between atoms: N2_12  and  C7_14 
REMARK    5  A    between atoms: C17_24  and  O3_25 
REMARK    6  A    between atoms: C19_27  and  O4_28 
ROOT
HETATM    1  C5  UNL     1       5.480  35.668  80.028  1.00  0.00     0.257 C 
HETATM    2  O2  UNL     1       5.617  35.077  81.151  1.00  0.00    -0.267 OA
HETATM    3  N1  UNL     1       6.396  35.449  78.972  1.00  0.00    -0.303 N 
ATOM      4  H1  UNL     1       7.253  36.001  78.918  1.00  0.00     0.171 HD
HETATM    5  C6  UNL     1       6.151  34.558  78.084  1.00  0.00     0.154 C 
HETATM    6  S1  UNL     1       4.647  33.614  78.211  1.00  0.00    -0.013 SA
ENDROOT
BRANCH   1   7
HETATM    7  C4  UNL     1       4.370  36.589  79.799  1.00  0.00     0.037 A 
HETATM    8  C3  UNL     1       4.551  37.794  79.144  1.00  0.00     0.057 A 
HETATM    9  C2  UNL     1       3.489  38.624  78.950  1.00  0.00     0.105 A 
HETATM   10  C19 UNL     1       2.219  38.285  79.400  1.00  0.00     0.135 A 
HETATM   11  C17 UNL     1       2.029  37.090  80.052  1.00  0.00     0.105 A 
HETATM   12  C16 UNL     1       3.113  36.249  80.247  1.00  0.00     0.057 A 
BRANCH   9  13
HETATM   13  O1  UNL     1       3.681  39.818  78.299  1.00  0.00    -0.353 OA
HETATM   14  C1  UNL     1       4.241  40.936  78.937  1.00  0.00     0.210 C 
ENDBRANCH   9  13
BRANCH  10  15
HETATM   15  O4  UNL     1       1.111  39.096  79.227  1.00  0.00    -0.351 OA
HETATM   16  C20 UNL     1       0.860  40.080  80.222  1.00  0.00     0.210 C 
ENDBRANCH  10  15
BRANCH  11  17
HETATM   17  O3  UNL     1       0.796  36.739  80.500  1.00  0.00    -0.353 OA
HETATM   18  C18 UNL     1       0.393  35.503  80.990  1.00  0.00     0.210 C 
ENDBRANCH  11  17
ENDBRANCH   1   7
BRANCH   5  19
HETATM   19  N2  UNL     1       7.024  34.288  77.002  1.00  0.00    -0.365 N 
ATOM     20  H2  UNL     1       6.794  33.519  76.372  1.00  0.00     0.162 HD
BRANCH  19  21
HETATM   21  C7  UNL     1       8.228  35.052  76.748  1.00  0.00     0.083 C 
HETATM   22  C8  UNL     1       9.173  34.237  75.982  1.00  0.00     0.025 C 
HETATM   23  C9  UNL     1      10.623  34.534  76.148  1.00  0.00     0.002 C 
HETATM   24  C10 UNL     1      11.059  35.919  75.866  1.00  0.00     0.000 C 
HETATM   25  C11 UNL     1      10.583  36.422  74.522  1.00  0.00     0.000 C 
HETATM   26  C12 UNL     1       9.898  37.746  74.606  1.00  0.00     0.000 C 
HETATM   27  C13 UNL     1       8.458  37.747  74.239  1.00  0.00     0.000 C 
HETATM   28  C14 UNL     1       7.675  36.571  74.793  1.00  0.00     0.002 C 
HETATM   29  C15 UNL     1       7.855  36.392  76.246  1.00  0.00     0.025 C 
ENDBRANCH  19  21
ENDBRANCH   5  19
TORSDOF 6
ENDMDL
MODEL 3
REMARK VINA RESULT: -7.790288475      0.566      2.998
REMARK  6 active torsions:
REMARK  status: ('A' for Active; 'I' for Inactive)
REMARK    1  A    between atoms: O1_2  and  C2_3 
REMARK    2  A    between atoms: C4_5  and  C5_6 
REMARK       I    between atoms: C5_6  and  N1_8 
REMARK    3  A    between atoms: C6_10  and  N2_12 
REMARK    4  A    between atoms: N2_12  and  C7_14 
REMARK    5  A    between atoms: C17_24  and  O3_25 
REMARK    6  A    between atoms: C19_27  and  O4_28 
ROOT
HETATM    1  C5  UNL     1       5.882  35.592  80.001  1.00  0.00     0.257 C 
HETATM    2  O2  UNL     1       6.100  35.168  81.184  1.00  0.00    -0.267 OA
HETATM    3  N1  UNL     1       6.702  35.194  78.919  1.00  0.00    -0.303 N 
ATOM      4  H1  UNL     1       7.561  35.705  78.716  1.00  0.00     0.171 HD
HETATM    5  C6  UNL     1       6.368  34.192  78.195  1.00  0.00     0.154 C 
HETATM    6  S1  UNL     1       4.862  33.322  78.580  1.00  0.00    -0.013 SA
ENDROOT
BRANCH   1   7
HETATM    7  C4  UNL     1       4.774  36.504  79.727  1.00  0.00     0.037 A 
HETATM    8  C3  UNL     1       4.952  37.665  78.997  1.00  0.00     0.057 A 
HETATM    9  C2  UNL     1       3.893  38.488  78.764  1.00  0.00     0.105 A 
HETATM   10  C19 UNL     1       2.626  38.184  79.248  1.00  0.00     0.135 A 
HETATM   11  C17 UNL     1       2.438  37.033  79.975  1.00  0.00     0.105 A 
HETATM   12  C16 UNL     1       3.519  36.199  80.209  1.00  0.00     0.057 A 
BRANCH   9  13
HETATM   13  O1  UNL     1       4.083  39.637  78.037  1.00  0.00    -0.353 OA
HETATM   14  C1  UNL     1       4.390  40.864  78.647  1.00  0.00     0.210 C 
ENDBRANCH   9  13
BRANCH  10  15
HETATM   15  O4  UNL     1       1.520  38.989  79.037  1.00  0.00    -0.351 OA
HETATM   16  C20 UNL     1       1.201  39.938  80.047  1.00  0.00     0.210 C 
ENDBRANCH  10  15
BRANCH  11  17
HETATM   17  O3  UNL     1       1.209  36.717  80.458  1.00  0.00    -0.353 OA
HETATM   18  C18 UNL     1       0.762  35.476  80.891  1.00  0.00     0.210 C 
ENDBRANCH  11  17
ENDBRANCH   1   7
BRANCH   5  19
HETATM   19  N2  UNL     1       7.142  33.740  77.098  1.00  0.00    -0.365 N 
ATOM     20  H2  UNL     1       7.374  32.748  77.043  1.00  0.00     0.162 HD
BRANCH  19  21
HETATM   21  C7  UNL     1       7.620  34.621  76.053  1.00  0.00     0.083 C 
HETATM   22  C8  UNL     1       7.106  35.973  76.279  1.00  0.00     0.025 C 
HETATM   23  C9  UNL     1       6.925  36.845  75.084  1.00  0.00     0.002 C 
HETATM   24  C10 UNL     1       8.114  37.068  74.234  1.00  0.00     0.000 C 
HETATM   25  C11 UNL     1       9.323  37.521  75.022  1.00  0.00     0.000 C 
HETATM   26  C12 UNL     1      10.542  36.709  74.736  1.00  0.00     0.000 C 
HETATM   27  C13 UNL     1      11.069  35.919  75.879  1.00  0.00     0.000 C 
HETATM   28  C14 UNL     1       9.998  35.223  76.698  1.00  0.00     0.002 C 
HETATM   29  C15 UNL     1       9.074  34.420  75.876  1.00  0.00     0.025 C 
ENDBRANCH  19  21
ENDBRANCH   5  19
TORSDOF 6
ENDMDL
MODEL 4
REMARK VINA RESULT: -7.686235356      1.883      3.075
REMARK  6 active torsions:
REMARK  status: ('A' for Active; 'I' for Inactive)
REMARK    1  A    between atoms: O1_2  and  C2_3 
REMARK    2  A    between atoms: C4_5  and  C5_6 
REMARK       I    between atoms: C5_6  and  N1_8 
REMARK    3  A    between atoms: C6_10  and  N2_12 
REMARK    4  A    between atoms: N2_12  and  C7_14 
REMARK    5  A    between atoms: C17_24  and  O3_25 
REMARK    6  A    between atoms: C19_27  and  O4_28 
ROOT
HETATM    1  C5  UNL     1       4.379  39.150  77.982  1.00  0.00     0.257 C 
HETATM    2  O2  UNL     1       5.056  40.230  78.046  1.00  0.00    -0.267 OA
HETATM    3  N1  UNL     1       4.707  38.136  77.051  1.00  0.00    -0.303 N 
ATOM      4  H1  UNL     1       4.335  38.176  76.102  1.00  0.00     0.171 HD
HETATM    5  C6  UNL     1       5.472  37.170  77.398  1.00  0.00     0.154 C 
HETATM    6  S1  UNL     1       6.105  37.134  79.062  1.00  0.00    -0.013 SA
ENDROOT
BRANCH   1   7
HETATM    7  C4  UNL     1       3.243  38.928  78.873  1.00  0.00     0.037 A 
HETATM    8  C3  UNL     1       2.928  37.667  79.347  1.00  0.00     0.057 A 
HETATM    9  C2  UNL     1       1.861  37.503  80.176  1.00  0.00     0.105 A 
HETATM   10  C19 UNL     1       1.075  38.583  80.560  1.00  0.00     0.135 A 
HETATM   11  C17 UNL     1       1.379  39.840  80.094  1.00  0.00     0.105 A 
HETATM   12  C16 UNL     1       2.466  40.001  79.251  1.00  0.00     0.057 A 
BRANCH   9  13
HETATM   13  O1  UNL     1       1.559  36.246  80.640  1.00  0.00    -0.353 OA
HETATM   14  C1  UNL     1       2.362  35.131  80.353  1.00  0.00     0.210 C 
ENDBRANCH   9  13
BRANCH  10  15
HETATM   15  O4  UNL     1      -0.019  38.465  81.399  1.00  0.00    -0.351 OA
HETATM   16  C20 UNL     1      -1.239  38.016  80.823  1.00  0.00     0.210 C 
ENDBRANCH  10  15
BRANCH  11  17
HETATM   17  O3  UNL     1       0.625  40.909  80.456  1.00  0.00    -0.353 OA
HETATM   18  C18 UNL     1       0.982  42.250  80.416  1.00  0.00     0.210 C 
ENDBRANCH  11  17
ENDBRANCH   1   7
BRANCH   5  19
HETATM   19  N2  UNL     1       5.841  36.123  76.518  1.00  0.00    -0.365 N 
ATOM     20  H2  UNL     1       5.231  35.308  76.450  1.00  0.00     0.162 HD
BRANCH  19  21
HETATM   21  C7  UNL     1       7.042  36.157  75.710  1.00  0.00     0.083 C 
HETATM   22  C8  UNL     1       7.508  37.540  75.582  1.00  0.00     0.025 C 
HETATM   23  C9  UNL     1       8.282  37.890  74.359  1.00  0.00     0.002 C 
HETATM   24  C10 UNL     1       9.497  37.093  74.085  1.00  0.00     0.000 C 
HETATM   25  C11 UNL     1      10.427  37.012  75.275  1.00  0.00     0.000 C 
HETATM   26  C12 UNL     1      10.827  35.613  75.606  1.00  0.00     0.000 C 
HETATM   27  C13 UNL     1      10.364  35.109  76.925  1.00  0.00     0.000 C 
HETATM   28  C14 UNL     1       8.930  35.474  77.260  1.00  0.00     0.002 C 
HETATM   29  C15 UNL     1       7.979  35.119  76.190  1.00  0.00     0.025 C 
ENDBRANCH  19  21
ENDBRANCH   5  19
TORSDOF 6
ENDMDL
MODEL 5
REMARK VINA RESULT: -7.679653553      0.567      1.709
REMARK  6 active torsions:
REMARK  status: ('A' for Active; 'I' for Inactive)
REMARK    1  A    between atoms: O1_2  and  C2_3 
REMARK    2  A    between atoms: C4_5  and  C5_6 
REMARK       I    between atoms: C5_6  and  N1_8 
REMARK    3  A    between atoms: C6_10  and  N2_12 
REMARK    4  A    between atoms: N2_12  and  C7_14 
REMARK    5  A    between atoms: C17_24  and  O3_25 
REMARK    6  A    between atoms: C19_27  and  O4_28 
ROOT
HETATM    1  C5  UNL     1       5.935  35.661  79.957  1.00  0.00     0.257 C 
HETATM    2  O2  UNL     1       6.256  35.291  81.136  1.00  0.00    -0.267 OA
HETATM    3  N1  UNL     1       6.694  35.257  78.833  1.00  0.00    -0.303 N 
ATOM      4  H1  UNL     1       7.512  35.797  78.551  1.00  0.00     0.171 HD
HETATM    5  C6  UNL     1       6.355  34.215  78.171  1.00  0.00     0.154 C 
HETATM    6  S1  UNL     1       4.921  33.296  78.694  1.00  0.00    -0.013 SA
ENDROOT
BRANCH   1   7
HETATM    7  C4  UNL     1       4.770  36.512  79.734  1.00  0.00     0.037 A 
HETATM    8  C3  UNL     1       3.511  36.154  80.184  1.00  0.00     0.057 A 
HETATM    9  C2  UNL     1       2.451  36.978  79.956  1.00  0.00     0.105 A 
HETATM   10  C19 UNL     1       2.607  38.179  79.275  1.00  0.00     0.135 A 
HETATM   11  C17 UNL     1       3.852  38.544  78.823  1.00  0.00     0.105 A 
HETATM   12  C16 UNL     1       4.928  37.703  79.058  1.00  0.00     0.057 A 
BRANCH   9  13
HETATM   13  O1  UNL     1       1.208  36.610  80.408  1.00  0.00    -0.353 OA
HETATM   14  C1  UNL     1       0.912  35.293  80.794  1.00  0.00     0.210 C 
ENDBRANCH   9  13
BRANCH  10  15
HETATM   15  O4  UNL     1       1.560  39.047  79.019  1.00  0.00    -0.351 OA
HETATM   16  C20 UNL     1       1.146  39.902  80.078  1.00  0.00     0.210 C 
ENDBRANCH  10  15
BRANCH  11  17
HETATM   17  O3  UNL     1       4.027  39.713  78.155  1.00  0.00    -0.353 OA
HETATM   18  C18 UNL     1       4.364  40.950  78.688  1.00  0.00     0.210 C 
ENDBRANCH  11  17
ENDBRANCH   1   7
BRANCH   5  19
HETATM   19  N2  UNL     1       7.069  33.755  77.037  1.00  0.00    -0.365 N 
ATOM     20  H2  UNL     1       7.237  32.754  76.942  1.00  0.00     0.162 HD
BRANCH  19  21
HETATM   21  C7  UNL     1       7.572  34.642  76.008  1.00  0.00     0.083 C 
HETATM   22  C8  UNL     1       7.090  36.002  76.255  1.00  0.00     0.025 C 
HETATM   23  C9  UNL     1       6.935  36.897  75.074  1.00  0.00     0.002 C 
HETATM   24  C10 UNL     1       8.133  37.106  74.233  1.00  0.00     0.000 C 
HETATM   25  C11 UNL     1       9.348  37.517  75.032  1.00  0.00     0.000 C 
HETATM   26  C12 UNL     1      10.549  36.680  74.737  1.00  0.00     0.000 C 
HETATM   27  C13 UNL     1      11.052  35.859  75.868  1.00  0.00     0.000 C 
HETATM   28  C14 UNL     1       9.961  35.175  76.672  1.00  0.00     0.002 C 
HETATM   29  C15 UNL     1       9.022  34.408  75.833  1.00  0.00     0.025 C 
ENDBRANCH  19  21
ENDBRANCH   5  19
TORSDOF 6
ENDMDL
