MODEL 1
REMARK VINA RESULT: -7.881451291      0.000      0.000
REMARK  6 active torsions:
REMARK  status: ('A' for Active; 'I' for Inactive)
REMARK    1  A    between atoms: C2_2  and  C3_3 
REMARK    2  A    between atoms: C3_3  and  C4_4 
REMARK    3  A    between atoms: C4_4  and  C5_5 
REMARK    4  A    between atoms: C5_5  and  C6_6 
REMARK    5  A    between atoms: C14_15  and  O2_16 
REMARK    6  A    between atoms: C22_27  and  O5_28 
ROOT
HETATM    1  C6  UNL     1       8.021  33.234  80.956  1.00  0.00     0.050 C 
HETATM    2  C7  UNL     1       8.954  33.184  79.717  1.00  0.00     0.045 C 
HETATM    3  C8  UNL     1       8.853  34.408  78.871  1.00  0.00     0.161 C 
HETATM    4  O1  UNL     1       9.380  34.278  77.568  1.00  0.00    -0.345 OA
HETATM    5  C9  UNL     1       9.047  35.266  76.637  1.00  0.00     0.082 A 
HETATM    6  C10 UNL     1       9.672  36.049  75.778  1.00  0.00    -0.022 A 
HETATM    7  C11 UNL     1      11.168  36.060  75.557  1.00  0.00     0.051 C 
HETATM    8  C12 UNL     1       8.717  36.898  75.083  1.00  0.00    -0.023 A 
HETATM    9  C13 UNL     1       9.125  37.901  74.040  1.00  0.00     0.051 C 
HETATM   10  C14 UNL     1       7.514  36.614  75.533  1.00  0.00     0.078 A 
HETATM   11  C15 UNL     1       7.615  35.583  76.520  1.00  0.00     0.179 A 
HETATM   12  C16 UNL     1       6.837  34.369  76.037  1.00  0.00     0.285 C 
HETATM   13  O3  UNL     1       6.926  33.487  75.161  1.00  0.00    -0.263 OA
HETATM   14  O4  UNL     1       5.937  34.667  77.028  1.00  0.00    -0.304 OA
HETATM   15  C17 UNL     1       6.847  35.534  77.743  1.00  0.00     0.128 C 
HETATM   16  C18 UNL     1       6.021  36.698  78.199  1.00  0.00     0.043 C 
HETATM   17  C19 UNL     1       5.393  36.592  79.512  1.00  0.00     0.003 C 
HETATM   18  C20 UNL     1       4.925  35.285  80.037  1.00  0.00     0.006 C 
HETATM   19  C21 UNL     1       5.932  34.751  81.095  1.00  0.00     0.069 C 
HETATM   20  C22 UNL     1       6.661  33.592  80.591  1.00  0.00     0.166 C 
HETATM   21  O6  UNL     1       6.663  33.745  79.179  1.00  0.00    -0.344 OA
HETATM   22  C23 UNL     1       7.451  34.882  78.928  1.00  0.00     0.192 C 
ENDROOT
BRANCH   1  23
HETATM   23  C5  UNL     1       8.748  33.879  82.056  1.00  0.00     0.010 C 
BRANCH  23  24
HETATM   24  C4  UNL     1       8.690  33.203  83.400  1.00  0.00     0.001 C 
BRANCH  24  25
HETATM   25  C3  UNL     1       8.797  34.193  84.552  1.00  0.00    -0.000 C 
BRANCH  25  26
HETATM   26  C2  UNL     1       7.800  35.305  84.419  1.00  0.00    -0.005 C 
HETATM   27  C1  UNL     1       6.405  34.869  84.810  1.00  0.00     0.005 C 
ENDBRANCH  25  26
ENDBRANCH  24  25
ENDBRANCH  23  24
ENDBRANCH   1  23
BRANCH  20  28
HETATM   28  O5  UNL     1       5.776  32.476  80.732  1.00  0.00    -0.365 OA
ATOM     29  H5  UNL     1       5.548  32.110  79.886  1.00  0.00     0.213 HD
ENDBRANCH  20  28
BRANCH  10  30
HETATM   30  O2  UNL     1       6.406  37.308  75.015  1.00  0.00    -0.363 OA
ATOM     31  H2  UNL     1       5.557  36.883  75.002  1.00  0.00     0.217 HD
ENDBRANCH  10  30
TORSDOF 6
ENDMDL
MODEL 2
REMARK VINA RESULT: -7.572860731      0.913      1.661
REMARK  6 active torsions:
REMARK  status: ('A' for Active; 'I' for Inactive)
REMARK    1  A    between atoms: C2_2  and  C3_3 
REMARK    2  A    between atoms: C3_3  and  C4_4 
REMARK    3  A    between atoms: C4_4  and  C5_5 
REMARK    4  A    between atoms: C5_5  and  C6_6 
REMARK    5  A    between atoms: C14_15  and  O2_16 
REMARK    6  A    between atoms: C22_27  and  O5_28 
ROOT
HETATM    1  C6  UNL     1       7.957  33.167  80.914  1.00  0.00     0.050 C 
HETATM    2  C7  UNL     1       8.899  33.121  79.681  1.00  0.00     0.045 C 
HETATM    3  C8  UNL     1       8.817  34.356  78.849  1.00  0.00     0.161 C 
HETATM    4  O1  UNL     1       9.352  34.236  77.548  1.00  0.00    -0.345 OA
HETATM    5  C9  UNL     1       9.036  35.238  76.626  1.00  0.00     0.082 A 
HETATM    6  C10 UNL     1       9.675  36.023  75.781  1.00  0.00    -0.022 A 
HETATM    7  C11 UNL     1      11.173  36.021  75.571  1.00  0.00     0.051 C 
HETATM    8  C12 UNL     1       8.734  36.891  75.089  1.00  0.00    -0.023 A 
HETATM    9  C13 UNL     1       9.161  37.901  74.061  1.00  0.00     0.051 C 
HETATM   10  C14 UNL     1       7.525  36.614  75.527  1.00  0.00     0.078 A 
HETATM   11  C15 UNL     1       7.608  35.571  76.503  1.00  0.00     0.179 A 
HETATM   12  C16 UNL     1       6.820  34.372  76.001  1.00  0.00     0.285 C 
HETATM   13  O3  UNL     1       6.906  33.499  75.115  1.00  0.00    -0.263 OA
HETATM   14  O4  UNL     1       5.917  34.668  76.989  1.00  0.00    -0.304 OA
HETATM   15  C17 UNL     1       6.831  35.517  77.720  1.00  0.00     0.128 C 
HETATM   16  C18 UNL     1       6.015  36.684  78.184  1.00  0.00     0.043 C 
HETATM   17  C19 UNL     1       5.376  36.569  79.491  1.00  0.00     0.003 C 
HETATM   18  C20 UNL     1       4.890  35.262  79.998  1.00  0.00     0.006 C 
HETATM   19  C21 UNL     1       5.884  34.704  81.056  1.00  0.00     0.069 C 
HETATM   20  C22 UNL     1       6.604  33.544  80.543  1.00  0.00     0.166 C 
HETATM   21  O6  UNL     1       6.617  33.713  79.134  1.00  0.00    -0.344 OA
HETATM   22  C23 UNL     1       7.420  34.844  78.901  1.00  0.00     0.192 C 
ENDROOT
BRANCH   1  23
HETATM   23  C5  UNL     1       8.683  33.790  82.026  1.00  0.00     0.010 C 
BRANCH  23  24
HETATM   24  C4  UNL     1       8.748  33.018  83.317  1.00  0.00     0.001 C 
BRANCH  24  25
HETATM   25  C3  UNL     1       8.402  31.547  83.130  1.00  0.00    -0.000 C 
BRANCH  25  26
HETATM   26  C2  UNL     1       9.628  30.684  83.155  1.00  0.00    -0.005 C 
HETATM   27  C1  UNL     1       9.926  30.078  81.801  1.00  0.00     0.005 C 
ENDBRANCH  25  26
ENDBRANCH  24  25
ENDBRANCH  23  24
ENDBRANCH   1  23
BRANCH  20  28
HETATM   28  O5  UNL     1       5.706  32.436  80.665  1.00  0.00    -0.365 OA
ATOM     29  H5  UNL     1       5.326  32.396  81.534  1.00  0.00     0.213 HD
ENDBRANCH  20  28
BRANCH  10  30
HETATM   30  O2  UNL     1       6.429  37.327  75.010  1.00  0.00    -0.363 OA
ATOM     31  H2  UNL     1       6.585  38.107  74.492  1.00  0.00     0.217 HD
ENDBRANCH  10  30
TORSDOF 6
ENDMDL
MODEL 3
REMARK VINA RESULT: -7.149829430      2.755      6.548
REMARK  6 active torsions:
REMARK  status: ('A' for Active; 'I' for Inactive)
REMARK    1  A    between atoms: C2_2  and  C3_3 
REMARK    2  A    between atoms: C3_3  and  C4_4 
REMARK    3  A    between atoms: C4_4  and  C5_5 
REMARK    4  A    between atoms: C5_5  and  C6_6 
REMARK    5  A    between atoms: C14_15  and  O2_16 
REMARK    6  A    between atoms: C22_27  and  O5_28 
ROOT
HETATM    1  C6  UNL     1       7.580  32.349  76.199  1.00  0.00     0.050 C 
HETATM    2  C7  UNL     1       6.702  32.171  77.467  1.00  0.00     0.045 C 
HETATM    3  C8  UNL     1       5.743  33.296  77.665  1.00  0.00     0.161 C 
HETATM    4  O1  UNL     1       5.187  33.385  78.959  1.00  0.00    -0.345 OA
HETATM    5  C9  UNL     1       4.533  34.573  79.299  1.00  0.00     0.082 A 
HETATM    6  C10 UNL     1       3.376  34.937  79.816  1.00  0.00    -0.022 A 
HETATM    7  C11 UNL     1       2.287  33.978  80.244  1.00  0.00     0.051 C 
HETATM    8  C12 UNL     1       3.299  36.386  79.910  1.00  0.00    -0.023 A 
HETATM    9  C13 UNL     1       2.098  37.105  80.460  1.00  0.00     0.051 C 
HETATM   10  C14 UNL     1       4.423  36.886  79.445  1.00  0.00     0.078 A 
HETATM   11  C15 UNL     1       5.278  35.815  79.037  1.00  0.00     0.179 A 
HETATM   12  C16 UNL     1       6.549  35.861  79.871  1.00  0.00     0.285 C 
HETATM   13  O3  UNL     1       6.906  35.650  81.046  1.00  0.00    -0.263 OA
HETATM   14  O4  UNL     1       7.179  36.261  78.721  1.00  0.00    -0.304 OA
HETATM   15  C17 UNL     1       6.107  35.825  77.853  1.00  0.00     0.128 C 
HETATM   16  C18 UNL     1       5.973  36.892  76.810  1.00  0.00     0.043 C 
HETATM   17  C19 UNL     1       6.764  36.734  75.594  1.00  0.00     0.003 C 
HETATM   18  C20 UNL     1       8.103  36.095  75.625  1.00  0.00     0.006 C 
HETATM   19  C21 UNL     1       8.006  34.641  75.083  1.00  0.00     0.069 C 
HETATM   20  C22 UNL     1       8.193  33.665  76.151  1.00  0.00     0.166 C 
HETATM   21  O6  UNL     1       7.780  34.333  77.334  1.00  0.00    -0.344 OA
HETATM   22  C23 UNL     1       6.397  34.535  77.185  1.00  0.00     0.192 C 
ENDROOT
BRANCH   1  23
HETATM   23  C5  UNL     1       6.872  31.755  75.060  1.00  0.00     0.010 C 
BRANCH  23  24
HETATM   24  C4  UNL     1       7.718  31.181  73.954  1.00  0.00     0.001 C 
BRANCH  24  25
HETATM   25  C3  UNL     1       8.629  30.063  74.443  1.00  0.00    -0.000 C 
BRANCH  25  26
HETATM   26  C2  UNL     1       9.951  30.079  73.734  1.00  0.00    -0.005 C 
HETATM   27  C1  UNL     1      10.902  31.097  74.324  1.00  0.00     0.005 C 
ENDBRANCH  25  26
ENDBRANCH  24  25
ENDBRANCH  23  24
ENDBRANCH   1  23
BRANCH  20  28
HETATM   28  O5  UNL     1       9.605  33.587  76.373  1.00  0.00    -0.365 OA
ATOM     29  H5  UNL     1      10.076  33.489  75.555  1.00  0.00     0.213 HD
ENDBRANCH  20  28
BRANCH  10  30
HETATM   30  O2  UNL     1       4.596  38.281  79.424  1.00  0.00    -0.363 OA
ATOM     31  H2  UNL     1       5.469  38.638  79.308  1.00  0.00     0.217 HD
ENDBRANCH  10  30
TORSDOF 6
ENDMDL
MODEL 4
REMARK VINA RESULT: -7.110628479      1.693      6.646
REMARK  6 active torsions:
REMARK  status: ('A' for Active; 'I' for Inactive)
REMARK    1  A    between atoms: C2_2  and  C3_3 
REMARK    2  A    between atoms: C3_3  and  C4_4 
REMARK    3  A    between atoms: C4_4  and  C5_5 
REMARK    4  A    between atoms: C5_5  and  C6_6 
REMARK    5  A    between atoms: C14_15  and  O2_16 
REMARK    6  A    between atoms: C22_27  and  O5_28 
ROOT
HETATM    1  C6  UNL     1       8.168  35.687  76.576  1.00  0.00     0.050 C 
HETATM    2  C7  UNL     1       8.273  36.114  78.065  1.00  0.00     0.045 C 
HETATM    3  C8  UNL     1       7.900  35.018  79.005  1.00  0.00     0.161 C 
HETATM    4  O1  UNL     1       7.621  35.432  80.324  1.00  0.00    -0.345 OA
HETATM    5  C9  UNL     1       6.977  34.519  81.165  1.00  0.00     0.082 A 
HETATM    6  C10 UNL     1       7.141  34.022  82.375  1.00  0.00    -0.022 A 
HETATM    7  C11 UNL     1       8.269  34.395  83.311  1.00  0.00     0.051 C 
HETATM    8  C12 UNL     1       6.087  33.065  82.675  1.00  0.00    -0.023 A 
HETATM    9  C13 UNL     1       6.003  32.328  83.982  1.00  0.00     0.051 C 
HETATM   10  C14 UNL     1       5.289  32.996  81.632  1.00  0.00     0.078 A 
HETATM   11  C15 UNL     1       5.764  33.888  80.619  1.00  0.00     0.179 A 
HETATM   12  C16 UNL     1       4.693  34.933  80.349  1.00  0.00     0.285 C 
HETATM   13  O3  UNL     1       4.177  35.915  80.919  1.00  0.00    -0.263 OA
HETATM   14  O4  UNL     1       4.517  34.307  79.142  1.00  0.00    -0.304 OA
HETATM   15  C17 UNL     1       5.776  33.598  79.203  1.00  0.00     0.128 C 
HETATM   16  C18 UNL     1       5.491  32.223  78.681  1.00  0.00     0.043 C 
HETATM   17  C19 UNL     1       5.659  32.011  77.247  1.00  0.00     0.003 C 
HETATM   18  C20 UNL     1       5.375  33.091  76.270  1.00  0.00     0.006 C 
HETATM   19  C21 UNL     1       6.709  33.712  75.768  1.00  0.00     0.069 C 
HETATM   20  C22 UNL     1       6.888  35.065  76.283  1.00  0.00     0.166 C 
HETATM   21  O6  UNL     1       6.152  35.096  77.497  1.00  0.00    -0.344 OA
HETATM   22  C23 UNL     1       6.827  34.221  78.366  1.00  0.00     0.192 C 
ENDROOT
BRANCH   1  23
HETATM   23  C5  UNL     1       9.452  35.101  76.173  1.00  0.00     0.010 C 
BRANCH  23  24
HETATM   24  C4  UNL     1      10.606  36.049  75.988  1.00  0.00     0.001 C 
BRANCH  24  25
HETATM   25  C3  UNL     1      10.640  36.656  74.591  1.00  0.00    -0.000 C 
BRANCH  25  26
HETATM   26  C2  UNL     1       9.745  37.854  74.488  1.00  0.00    -0.005 C 
HETATM   27  C1  UNL     1       8.598  37.628  73.528  1.00  0.00     0.005 C 
ENDBRANCH  25  26
ENDBRANCH  24  25
ENDBRANCH  23  24
ENDBRANCH   1  23
BRANCH  20  28
HETATM   28  O5  UNL     1       6.077  35.912  75.463  1.00  0.00    -0.365 OA
ATOM     29  H5  UNL     1       6.497  36.750  75.315  1.00  0.00     0.213 HD
ENDBRANCH  20  28
BRANCH  10  30
HETATM   30  O2  UNL     1       4.183  32.129  81.670  1.00  0.00    -0.363 OA
ATOM     31  H2  UNL     1       3.705  32.023  82.484  1.00  0.00     0.217 HD
ENDBRANCH  10  30
TORSDOF 6
ENDMDL
MODEL 5
REMARK VINA RESULT: -7.093872789      3.919      6.573
REMARK  6 active torsions:
REMARK  status: ('A' for Active; 'I' for Inactive)
REMARK    1  A    between atoms: C2_2  and  C3_3 
REMARK    2  A    between atoms: C3_3  and  C4_4 
REMARK    3  A    between atoms: C4_4  and  C5_5 
REMARK    4  A    between atoms: C5_5  and  C6_6 
REMARK    5  A    between atoms: C14_15  and  O2_16 
REMARK    6  A    between atoms: C22_27  and  O5_28 
ROOT
HETATM    1  C6  UNL     1       7.408  34.638  76.946  1.00  0.00     0.050 C 
HETATM    2  C7  UNL     1       8.887  34.200  76.761  1.00  0.00     0.045 C 
HETATM    3  C8  UNL     1       9.034  33.059  75.812  1.00  0.00     0.161 C 
HETATM    4  O1  UNL     1      10.272  32.385  75.877  1.00  0.00    -0.345 OA
HETATM    5  C9  UNL     1      10.362  31.140  75.249  1.00  0.00     0.082 A 
HETATM    6  C10 UNL     1      11.163  30.532  74.395  1.00  0.00    -0.022 A 
HETATM    7  C11 UNL     1      12.400  31.153  73.788  1.00  0.00     0.051 C 
HETATM    8  C12 UNL     1      10.681  29.187  74.122  1.00  0.00    -0.023 A 
HETATM    9  C13 UNL     1      11.383  28.245  73.184  1.00  0.00     0.051 C 
HETATM   10  C14 UNL     1       9.585  28.995  74.822  1.00  0.00     0.078 A 
HETATM   11  C15 UNL     1       9.300  30.175  75.579  1.00  0.00     0.179 A 
HETATM   12  C16 UNL     1       9.336  29.826  77.058  1.00  0.00     0.285 C 
HETATM   13  O3  UNL     1      10.174  29.516  77.927  1.00  0.00    -0.263 OA
HETATM   14  O4  UNL     1       7.976  30.002  77.038  1.00  0.00    -0.304 OA
HETATM   15  C17 UNL     1       7.979  30.724  75.785  1.00  0.00     0.128 C 
HETATM   16  C18 UNL     1       6.791  30.219  75.025  1.00  0.00     0.043 C 
HETATM   17  C19 UNL     1       5.531  30.932  75.214  1.00  0.00     0.003 C 
HETATM   18  C20 UNL     1       5.186  31.554  76.516  1.00  0.00     0.006 C 
HETATM   19  C21 UNL     1       5.400  33.092  76.439  1.00  0.00     0.069 C 
HETATM   20  C22 UNL     1       6.546  33.507  77.240  1.00  0.00     0.166 C 
HETATM   21  O6  UNL     1       7.394  32.369  77.285  1.00  0.00    -0.344 OA
HETATM   22  C23 UNL     1       7.846  32.188  75.966  1.00  0.00     0.192 C 
ENDROOT
BRANCH   1  23
HETATM   23  C5  UNL     1       7.092  35.638  75.920  1.00  0.00     0.010 C 
BRANCH  23  24
HETATM   24  C4  UNL     1       7.969  36.861  75.866  1.00  0.00     0.001 C 
BRANCH  24  25
HETATM   25  C3  UNL     1       8.269  37.297  74.438  1.00  0.00    -0.000 C 
BRANCH  25  26
HETATM   26  C2  UNL     1       9.701  37.712  74.277  1.00  0.00    -0.005 C 
HETATM   27  C1  UNL     1      10.647  36.795  75.020  1.00  0.00     0.005 C 
ENDBRANCH  25  26
ENDBRANCH  24  25
ENDBRANCH  23  24
ENDBRANCH   1  23
BRANCH  20  28
HETATM   28  O5  UNL     1       6.088  33.545  78.596  1.00  0.00    -0.365 OA
ATOM     29  H5  UNL     1       5.386  32.920  78.739  1.00  0.00     0.213 HD
ENDBRANCH  20  28
BRANCH  10  30
HETATM   30  O2  UNL     1       8.918  27.761  74.728  1.00  0.00    -0.363 OA
ATOM     31  H2  UNL     1       8.203  27.666  74.111  1.00  0.00     0.217 HD
ENDBRANCH  10  30
TORSDOF 6
ENDMDL
