MODEL 1
REMARK VINA RESULT: -8.561678596      0.000      0.000
REMARK  5 active torsions:
REMARK  status: ('A' for Active; 'I' for Inactive)
REMARK       I    between atoms: C1_2  and  N1_3 
REMARK    1  A    between atoms: C1_2  and  C13_20 
REMARK    2  A    between atoms: N1_3  and  C2_5 
REMARK    3  A    between atoms: C13_20  and  N4_21 
REMARK    4  A    between atoms: C13_20  and  C19_28 
REMARK    5  A    between atoms: N4_21  and  C14_23 
ROOT
HETATM    1  C2  UNL     1       4.608  38.372  78.640  1.00  0.00     0.059 A 
HETATM    2  C3  UNL     1       4.511  39.732  78.518  1.00  0.00     0.034 A 
HETATM    3  C4  UNL     1       3.504  40.446  79.112  1.00  0.00     0.034 A 
HETATM    4  C5  UNL     1       2.558  39.779  79.858  1.00  0.00     0.064 A 
HETATM    5  C6  UNL     1       2.601  38.421  80.019  1.00  0.00     0.085 A 
HETATM    6  N2  UNL     1       1.552  38.009  80.796  1.00  0.00    -0.343 N 
ATOM      7  H2  UNL     1       1.337  37.052  81.077  1.00  0.00     0.167 HD
HETATM    8  C7  UNL     1       0.849  39.135  81.118  1.00  0.00     0.084 A 
HETATM    9  N3  UNL     1       1.455  40.185  80.555  1.00  0.00    -0.335 N 
HETATM   10  C8  UNL     1       0.948  41.533  80.712  1.00  0.00     0.130 C 
HETATM   11  C9  UNL     1       0.331  41.692  82.068  1.00  0.00     0.021 C 
HETATM   12  C10 UNL     1      -0.703  40.653  82.366  1.00  0.00     0.009 C 
HETATM   13  C11 UNL     1      -0.385  39.274  81.930  1.00  0.00     0.076 C 
HETATM   14  C12 UNL     1       3.619  37.729  79.414  1.00  0.00     0.089 A 
HETATM   15 CL1  UNL     1       3.716  35.973  79.600  1.00  0.00    -0.079 Cl
ENDROOT
BRANCH   1  16
HETATM   16  N1  UNL     1       5.611  37.583  78.030  1.00  0.00    -0.324 N 
HETATM   17  C1  UNL     1       6.693  36.937  78.617  1.00  0.00     0.245 C 
HETATM   18  O1  UNL     1       6.925  36.960  79.832  1.00  0.00    -0.271 OA
ATOM     19  H1  UNL     1       5.528  37.472  77.020  1.00  0.00     0.169 HD
BRANCH  17  20
HETATM   20  C13 UNL     1       7.680  36.142  77.764  1.00  0.00     0.174 C 
BRANCH  20  21
HETATM   21  N4  UNL     1       8.321  37.077  76.910  1.00  0.00    -0.405 N 
ATOM     22  H4  UNL     1       8.509  38.028  77.227  1.00  0.00     0.154 HD
BRANCH  21  23
HETATM   23  C14 UNL     1       8.693  36.661  75.608  1.00  0.00     0.077 C 
HETATM   24  C15 UNL     1       7.879  37.457  74.611  1.00  0.00     0.024 C 
HETATM   25  C16 UNL     1       8.864  38.162  73.717  1.00  0.00     0.002 C 
HETATM   26  C17 UNL     1      10.122  38.233  74.551  1.00  0.00     0.002 C 
HETATM   27  C18 UNL     1      10.137  36.903  75.258  1.00  0.00     0.024 C 
ENDBRANCH  21  23
ENDBRANCH  20  21
BRANCH  20  28
HETATM   28  C19 UNL     1       6.879  35.109  77.020  1.00  0.00     0.017 A 
HETATM   29  C20 UNL     1       6.081  34.049  77.680  1.00  0.00     0.007 A 
HETATM   30  C21 UNL     1       7.350  33.664  77.060  1.00  0.00     0.007 A 
ENDBRANCH  20  28
ENDBRANCH  17  20
ENDBRANCH   1  16
TORSDOF 5
ENDMDL
MODEL 2
REMARK VINA RESULT: -8.089841976      1.175      1.853
REMARK  5 active torsions:
REMARK  status: ('A' for Active; 'I' for Inactive)
REMARK       I    between atoms: C1_2  and  N1_3 
REMARK    1  A    between atoms: C1_2  and  C13_20 
REMARK    2  A    between atoms: N1_3  and  C2_5 
REMARK    3  A    between atoms: C13_20  and  N4_21 
REMARK    4  A    between atoms: C13_20  and  C19_28 
REMARK    5  A    between atoms: N4_21  and  C14_23 
ROOT
HETATM    1  C2  UNL     1       4.619  37.117  79.113  1.00  0.00     0.059 A 
HETATM    2  C3  UNL     1       4.022  36.398  80.113  1.00  0.00     0.034 A 
HETATM    3  C4  UNL     1       3.028  36.925  80.894  1.00  0.00     0.034 A 
HETATM    4  C5  UNL     1       2.611  38.218  80.670  1.00  0.00     0.064 A 
HETATM    5  C6  UNL     1       3.167  38.988  79.684  1.00  0.00     0.085 A 
HETATM    6  N2  UNL     1       2.582  40.225  79.672  1.00  0.00    -0.343 N 
ATOM      7  H2  UNL     1       2.799  40.999  79.044  1.00  0.00     0.167 HD
HETATM    8  C7  UNL     1       1.649  40.217  80.670  1.00  0.00     0.084 A 
HETATM    9  N3  UNL     1       1.673  39.018  81.259  1.00  0.00    -0.335 N 
HETATM   10  C8  UNL     1       0.794  38.692  82.363  1.00  0.00     0.130 C 
HETATM   11  C9  UNL     1      -0.521  39.390  82.191  1.00  0.00     0.021 C 
HETATM   12  C10 UNL     1      -0.378  40.865  81.989  1.00  0.00     0.009 C 
HETATM   13  C11 UNL     1       0.732  41.297  81.109  1.00  0.00     0.076 C 
HETATM   14  C12 UNL     1       4.161  38.437  78.915  1.00  0.00     0.089 A 
HETATM   15 CL1  UNL     1       4.904  39.395  77.628  1.00  0.00    -0.079 Cl
ENDROOT
BRANCH   1  16
HETATM   16  N1  UNL     1       5.665  36.633  78.292  1.00  0.00    -0.324 N 
HETATM   17  C1  UNL     1       6.970  36.306  78.641  1.00  0.00     0.245 C 
HETATM   18  O1  UNL     1       7.410  36.388  79.794  1.00  0.00    -0.271 OA
ATOM     19  H1  UNL     1       5.428  36.507  77.308  1.00  0.00     0.169 HD
BRANCH  17  20
HETATM   20  C13 UNL     1       7.957  35.813  77.584  1.00  0.00     0.174 C 
BRANCH  20  21
HETATM   21  N4  UNL     1       8.166  36.896  76.690  1.00  0.00    -0.405 N 
ATOM     22  H4  UNL     1       7.980  37.855  76.982  1.00  0.00     0.154 HD
BRANCH  21  23
HETATM   23  C14 UNL     1       8.639  36.615  75.385  1.00  0.00     0.077 C 
HETATM   24  C15 UNL     1       7.862  37.472  74.410  1.00  0.00     0.024 C 
HETATM   25  C16 UNL     1       8.874  38.290  73.653  1.00  0.00     0.002 C 
HETATM   26  C17 UNL     1      10.071  38.325  74.575  1.00  0.00     0.002 C 
HETATM   27  C18 UNL     1      10.092  36.937  75.159  1.00  0.00     0.024 C 
ENDBRANCH  21  23
ENDBRANCH  20  21
BRANCH  20  28
HETATM   28  C19 UNL     1       7.330  34.614  76.928  1.00  0.00     0.017 A 
HETATM   29  C20 UNL     1       6.952  33.379  77.654  1.00  0.00     0.007 A 
HETATM   30  C21 UNL     1       8.153  33.340  76.817  1.00  0.00     0.007 A 
ENDBRANCH  20  28
ENDBRANCH  17  20
ENDBRANCH   1  16
TORSDOF 5
ENDMDL
MODEL 3
REMARK VINA RESULT: -7.979481444      1.516      3.177
REMARK  5 active torsions:
REMARK  status: ('A' for Active; 'I' for Inactive)
REMARK       I    between atoms: C1_2  and  N1_3 
REMARK    1  A    between atoms: C1_2  and  C13_20 
REMARK    2  A    between atoms: N1_3  and  C2_5 
REMARK    3  A    between atoms: C13_20  and  N4_21 
REMARK    4  A    between atoms: C13_20  and  C19_28 
REMARK    5  A    between atoms: N4_21  and  C14_23 
ROOT
HETATM    1  C2  UNL     1       5.450  37.569  78.211  1.00  0.00     0.059 A 
HETATM    2  C3  UNL     1       5.171  38.882  77.943  1.00  0.00     0.034 A 
HETATM    3  C4  UNL     1       4.086  39.520  78.483  1.00  0.00     0.034 A 
HETATM    4  C5  UNL     1       3.246  38.823  79.323  1.00  0.00     0.064 A 
HETATM    5  C6  UNL     1       3.471  37.508  79.630  1.00  0.00     0.085 A 
HETATM    6  N2  UNL     1       2.495  37.052  80.475  1.00  0.00    -0.343 N 
ATOM      7  H2  UNL     1       2.413  36.113  80.865  1.00  0.00     0.167 HD
HETATM    8  C7  UNL     1       1.653  38.106  80.690  1.00  0.00     0.084 A 
HETATM    9  N3  UNL     1       2.107  39.156  80.001  1.00  0.00    -0.335 N 
HETATM   10  C8  UNL     1       1.428  40.435  80.023  1.00  0.00     0.130 C 
HETATM   11  C9  UNL     1       0.812  40.663  81.370  1.00  0.00     0.021 C 
HETATM   12  C10 UNL     1      -0.071  39.538  81.807  1.00  0.00     0.009 C 
HETATM   13  C11 UNL     1       0.421  38.172  81.515  1.00  0.00     0.076 C 
HETATM   14  C12 UNL     1       4.564  36.892  79.077  1.00  0.00     0.089 A 
HETATM   15 CL1  UNL     1       4.896  35.196  79.450  1.00  0.00    -0.079 Cl
ENDROOT
BRANCH   1  16
HETATM   16  N1  UNL     1       6.541  36.854  77.664  1.00  0.00    -0.324 N 
HETATM   17  C1  UNL     1       7.180  37.034  76.442  1.00  0.00     0.245 C 
HETATM   18  O1  UNL     1       6.864  37.911  75.629  1.00  0.00    -0.271 OA
ATOM     19  H1  UNL     1       6.909  36.103  78.246  1.00  0.00     0.169 HD
BRANCH  17  20
HETATM   20  C13 UNL     1       8.341  36.129  76.031  1.00  0.00     0.174 C 
BRANCH  20  21
HETATM   21  N4  UNL     1       8.387  35.076  76.980  1.00  0.00    -0.405 N 
ATOM     22  H4  UNL     1       8.598  35.266  77.960  1.00  0.00     0.154 HD
BRANCH  21  23
HETATM   23  C14 UNL     1       8.134  33.754  76.538  1.00  0.00     0.077 C 
HETATM   24  C15 UNL     1       7.202  33.097  77.532  1.00  0.00     0.024 C 
HETATM   25  C16 UNL     1       5.989  32.653  76.758  1.00  0.00     0.002 C 
HETATM   26  C17 UNL     1       5.989  33.550  75.542  1.00  0.00     0.002 C 
HETATM   27  C18 UNL     1       7.451  33.659  75.199  1.00  0.00     0.024 C 
ENDBRANCH  21  23
ENDBRANCH  20  21
BRANCH  20  28
HETATM   28  C19 UNL     1       9.578  36.983  76.029  1.00  0.00     0.017 A 
HETATM   29  C20 UNL     1      10.182  37.561  74.806  1.00  0.00     0.007 A 
HETATM   30  C21 UNL     1      10.849  36.411  75.419  1.00  0.00     0.007 A 
ENDBRANCH  20  28
ENDBRANCH  17  20
ENDBRANCH   1  16
TORSDOF 5
ENDMDL
MODEL 4
REMARK VINA RESULT: -7.954791927      1.369      1.805
REMARK  5 active torsions:
REMARK  status: ('A' for Active; 'I' for Inactive)
REMARK       I    between atoms: C1_2  and  N1_3 
REMARK    1  A    between atoms: C1_2  and  C13_20 
REMARK    2  A    between atoms: N1_3  and  C2_5 
REMARK    3  A    between atoms: C13_20  and  N4_21 
REMARK    4  A    between atoms: C13_20  and  C19_28 
REMARK    5  A    between atoms: N4_21  and  C14_23 
ROOT
HETATM    1  C2  UNL     1       5.606  37.276  78.638  1.00  0.00     0.059 A 
HETATM    2  C3  UNL     1       5.214  38.467  78.088  1.00  0.00     0.034 A 
HETATM    3  C4  UNL     1       4.092  39.128  78.511  1.00  0.00     0.034 A 
HETATM    4  C5  UNL     1       3.331  38.584  79.521  1.00  0.00     0.064 A 
HETATM    5  C6  UNL     1       3.671  37.397  80.112  1.00  0.00     0.085 A 
HETATM    6  N2  UNL     1       2.754  37.077  81.077  1.00  0.00    -0.343 N 
ATOM      7  H2  UNL     1       2.758  36.250  81.675  1.00  0.00     0.167 HD
HETATM    8  C7  UNL     1       1.833  38.086  81.080  1.00  0.00     0.084 A 
HETATM    9  N3  UNL     1       2.184  38.979  80.150  1.00  0.00    -0.335 N 
HETATM   10  C8  UNL     1       1.402  40.174  79.906  1.00  0.00     0.130 C 
HETATM   11  C9  UNL     1       0.800  40.660  81.189  1.00  0.00     0.021 C 
HETATM   12  C10 UNL     1       0.022  39.604  81.908  1.00  0.00     0.009 C 
HETATM   13  C11 UNL     1       0.619  38.249  81.917  1.00  0.00     0.076 C 
HETATM   14  C12 UNL     1       4.798  36.753  79.671  1.00  0.00     0.089 A 
HETATM   15 CL1  UNL     1       5.277  35.220  80.409  1.00  0.00    -0.079 Cl
ENDROOT
BRANCH   1  16
HETATM   16  N1  UNL     1       6.739  36.537  78.225  1.00  0.00    -0.324 N 
HETATM   17  C1  UNL     1       6.868  35.656  77.158  1.00  0.00     0.245 C 
HETATM   18  O1  UNL     1       5.949  35.398  76.371  1.00  0.00    -0.271 OA
ATOM     19  H1  UNL     1       7.579  36.670  78.789  1.00  0.00     0.169 HD
BRANCH  17  20
HETATM   20  C13 UNL     1       8.192  34.940  76.896  1.00  0.00     0.174 C 
BRANCH  20  21
HETATM   21  N4  UNL     1       8.784  35.581  75.778  1.00  0.00    -0.405 N 
ATOM     22  H4  UNL     1       8.981  35.061  74.923  1.00  0.00     0.154 HD
BRANCH  21  23
HETATM   23  C14 UNL     1       9.096  36.959  75.875  1.00  0.00     0.077 C 
HETATM   24  C15 UNL     1      10.436  37.186  75.210  1.00  0.00     0.024 C 
HETATM   25  C16 UNL     1      10.213  38.209  74.129  1.00  0.00     0.002 C 
HETATM   26  C17 UNL     1       8.738  38.095  73.821  1.00  0.00     0.002 C 
HETATM   27  C18 UNL     1       8.124  37.875  75.179  1.00  0.00     0.024 C 
ENDBRANCH  21  23
ENDBRANCH  20  21
BRANCH  20  28
HETATM   28  C19 UNL     1       7.863  33.494  76.646  1.00  0.00     0.017 A 
HETATM   29  C20 UNL     1       7.307  32.583  77.675  1.00  0.00     0.007 A 
HETATM   30  C21 UNL     1       8.719  32.432  77.320  1.00  0.00     0.007 A 
ENDBRANCH  20  28
ENDBRANCH  17  20
ENDBRANCH   1  16
TORSDOF 5
ENDMDL
MODEL 5
REMARK VINA RESULT: -7.891778001      1.404      2.773
REMARK  5 active torsions:
REMARK  status: ('A' for Active; 'I' for Inactive)
REMARK       I    between atoms: C1_2  and  N1_3 
REMARK    1  A    between atoms: C1_2  and  C13_20 
REMARK    2  A    between atoms: N1_3  and  C2_5 
REMARK    3  A    between atoms: C13_20  and  N4_21 
REMARK    4  A    between atoms: C13_20  and  C19_28 
REMARK    5  A    between atoms: N4_21  and  C14_23 
ROOT
HETATM    1  C2  UNL     1       5.126  37.774  78.500  1.00  0.00     0.059 A 
HETATM    2  C3  UNL     1       4.915  39.091  78.193  1.00  0.00     0.034 A 
HETATM    3  C4  UNL     1       3.868  39.801  78.717  1.00  0.00     0.034 A 
HETATM    4  C5  UNL     1       2.998  39.176  79.582  1.00  0.00     0.064 A 
HETATM    5  C6  UNL     1       3.157  37.861  79.930  1.00  0.00     0.085 A 
HETATM    6  N2  UNL     1       2.163  37.484  80.793  1.00  0.00    -0.343 N 
ATOM      7  H2  UNL     1       2.035  36.563  81.213  1.00  0.00     0.167 HD
HETATM    8  C7  UNL     1       1.379  38.587  80.979  1.00  0.00     0.084 A 
HETATM    9  N3  UNL     1       1.883  39.589  80.254  1.00  0.00    -0.335 N 
HETATM   10  C8  UNL     1       1.271  40.902  80.239  1.00  0.00     0.130 C 
HETATM   11  C9  UNL     1       0.676  41.204  81.581  1.00  0.00     0.021 C 
HETATM   12  C10 UNL     1      -0.261  40.141  82.058  1.00  0.00     0.009 C 
HETATM   13  C11 UNL     1       0.158  38.743  81.808  1.00  0.00     0.076 C 
HETATM   14  C12 UNL     1       4.213  37.172  79.391  1.00  0.00     0.089 A 
HETATM   15 CL1  UNL     1       4.458  35.473  79.817  1.00  0.00    -0.079 Cl
ENDROOT
BRANCH   1  16
HETATM   16  N1  UNL     1       6.175  36.986  77.971  1.00  0.00    -0.324 N 
HETATM   17  C1  UNL     1       6.853  37.128  76.765  1.00  0.00     0.245 C 
HETATM   18  O1  UNL     1       6.619  38.031  75.953  1.00  0.00    -0.271 OA
ATOM     19  H1  UNL     1       6.476  36.206  78.555  1.00  0.00     0.169 HD
BRANCH  17  20
HETATM   20  C13 UNL     1       7.955  36.145  76.372  1.00  0.00     0.174 C 
BRANCH  20  21
HETATM   21  N4  UNL     1       7.981  35.145  77.378  1.00  0.00    -0.405 N 
ATOM     22  H4  UNL     1       8.257  35.373  78.333  1.00  0.00     0.154 HD
BRANCH  21  23
HETATM   23  C14 UNL     1       7.616  33.822  77.027  1.00  0.00     0.077 C 
HETATM   24  C15 UNL     1       7.257  33.809  75.557  1.00  0.00     0.024 C 
HETATM   25  C16 UNL     1       8.160  32.799  74.901  1.00  0.00     0.002 C 
HETATM   26  C17 UNL     1       9.345  32.714  75.836  1.00  0.00     0.002 C 
HETATM   27  C18 UNL     1       8.709  32.801  77.199  1.00  0.00     0.024 C 
ENDBRANCH  21  23
ENDBRANCH  20  21
BRANCH  20  28
HETATM   28  C19 UNL     1       9.232  36.934  76.285  1.00  0.00     0.017 A 
HETATM   29  C20 UNL     1       9.834  37.392  75.011  1.00  0.00     0.007 A 
HETATM   30  C21 UNL     1      10.459  36.258  75.694  1.00  0.00     0.007 A 
ENDBRANCH  20  28
ENDBRANCH  17  20
ENDBRANCH   1  16
TORSDOF 5
ENDMDL
