MODEL 1
REMARK VINA RESULT: -7.060038316      0.000      0.000
REMARK  6 active torsions:
REMARK  status: ('A' for Active; 'I' for Inactive)
REMARK       I    between atoms: C1_2  and  N1_3 
REMARK    1  A    between atoms: C1_2  and  C12_16 
REMARK    2  A    between atoms: N1_3  and  C2_5 
REMARK    3  A    between atoms: C12_16  and  C13_17 
REMARK    4  A    between atoms: C12_16  and  N2_23 
REMARK    5  A    between atoms: C21_28  and  C22_29 
REMARK    6  A    between atoms: C22_29  and  O2_30 
ROOT
HETATM    1  C12 UNL     1       6.216  31.147  75.699  1.00  0.00     0.089 C 
ENDROOT
BRANCH   1   2
HETATM    2  C1  UNL     1       6.126  32.604  75.744  1.00  0.00     0.265 C 
HETATM    3  O1  UNL     1       5.349  33.157  74.875  1.00  0.00    -0.266 OA
HETATM    4  N1  UNL     1       6.819  33.464  76.658  1.00  0.00    -0.350 N 
ATOM      5  H1  UNL     1       7.432  33.039  77.354  1.00  0.00     0.163 HD
BRANCH   4   6
HETATM    6  C2  UNL     1       6.690  34.909  76.640  1.00  0.00     0.096 C 
HETATM    7  C3  UNL     1       7.559  35.537  75.568  1.00  0.00     0.026 C 
HETATM    8  C4  UNL     1       8.943  35.869  75.974  1.00  0.00     0.002 C 
HETATM    9  C5  UNL     1       8.922  36.732  77.195  1.00  0.00     0.001 C 
HETATM   10  C6  UNL     1       8.102  36.199  78.315  1.00  0.00     0.014 C 
HETATM   11  C7  UNL     1       6.804  35.561  77.966  1.00  0.00     0.011 C 
HETATM   12  C8  UNL     1       6.499  34.579  79.100  1.00  0.00     0.014 C 
HETATM   13  C11 UNL     1       5.694  36.613  78.149  1.00  0.00     0.180 C 
HETATM   14  C9  UNL     1       5.768  35.351  80.144  1.00  0.00     0.004 C 
HETATM   15  C10 UNL     1       5.473  36.712  79.618  1.00  0.00     0.038 C 
HETATM   16  F1  UNL     1       5.994  37.800  77.557  1.00  0.00    -0.249 F 
ENDBRANCH   4   6
ENDBRANCH   1   2
BRANCH   1  17
HETATM   17  C13 UNL     1       7.075  30.614  74.537  1.00  0.00     0.042 C 
HETATM   18  C14 UNL     1       7.918  31.757  74.035  1.00  0.00     0.011 C 
HETATM   19  C15 UNL     1       9.208  31.957  74.745  1.00  0.00     0.001 C 
HETATM   20  C16 UNL     1       9.913  30.665  75.079  1.00  0.00     0.000 C 
HETATM   21  C17 UNL     1       9.237  29.528  74.331  1.00  0.00     0.001 C 
HETATM   22  C18 UNL     1       7.867  29.418  74.958  1.00  0.00     0.011 C 
ENDBRANCH   1  17
BRANCH   1  23
HETATM   23  N2  UNL     1       5.026  30.396  75.942  1.00  0.00    -0.306 N 
HETATM   24  C19 UNL     1       4.645  29.352  75.135  1.00  0.00     0.188 A 
HETATM   25  N3  UNL     1       3.502  28.806  75.552  1.00  0.00    -0.360 N 
HETATM   26  C20 UNL     1       3.105  29.471  76.637  1.00  0.00     0.116 A 
ATOM     27  H3  UNL     1       3.018  28.020  75.119  1.00  0.00     0.166 HD
HETATM   28  C21 UNL     1       4.063  30.468  76.878  1.00  0.00     0.056 A 
BRANCH  28  29
HETATM   29  C22 UNL     1       4.011  31.412  77.991  1.00  0.00     0.223 C 
BRANCH  29  30
HETATM   30  O2  UNL     1       3.031  32.400  77.699  1.00  0.00    -0.395 OA
ATOM     31  H2  UNL     1       3.103  33.095  78.343  1.00  0.00     0.209 HD
ENDBRANCH  29  30
ENDBRANCH  28  29
ENDBRANCH   1  23
TORSDOF 6
ENDMDL
MODEL 2
REMARK VINA RESULT: -7.016378920      3.594      7.124
REMARK  6 active torsions:
REMARK  status: ('A' for Active; 'I' for Inactive)
REMARK       I    between atoms: C1_2  and  N1_3 
REMARK    1  A    between atoms: C1_2  and  C12_16 
REMARK    2  A    between atoms: N1_3  and  C2_5 
REMARK    3  A    between atoms: C12_16  and  C13_17 
REMARK    4  A    between atoms: C12_16  and  N2_23 
REMARK    5  A    between atoms: C21_28  and  C22_29 
REMARK    6  A    between atoms: C22_29  and  O2_30 
ROOT
HETATM    1  C12 UNL     1       8.705  33.269  75.695  1.00  0.00     0.089 C 
ENDROOT
BRANCH   1   2
HETATM    2  C1  UNL     1       9.189  32.083  74.992  1.00  0.00     0.265 C 
HETATM    3  O1  UNL     1       8.522  31.725  73.948  1.00  0.00    -0.266 OA
HETATM    4  N1  UNL     1      10.327  31.291  75.359  1.00  0.00    -0.350 N 
ATOM      5  H1  UNL     1      10.866  31.567  76.180  1.00  0.00     0.163 HD
BRANCH   4   6
HETATM    6  C2  UNL     1      10.747  30.117  74.618  1.00  0.00     0.096 C 
HETATM    7  C3  UNL     1      10.691  28.864  75.472  1.00  0.00     0.026 C 
HETATM    8  C4  UNL     1      11.913  28.561  76.250  1.00  0.00     0.002 C 
HETATM    9  C5  UNL     1      13.098  28.514  75.340  1.00  0.00     0.001 C 
HETATM   10  C6  UNL     1      13.251  29.704  74.462  1.00  0.00     0.014 C 
HETATM   11  C7  UNL     1      12.013  30.274  73.865  1.00  0.00     0.011 C 
HETATM   12  C8  UNL     1      12.319  31.749  73.590  1.00  0.00     0.014 C 
HETATM   13  C11 UNL     1      11.870  29.709  72.440  1.00  0.00     0.180 C 
HETATM   14  C9  UNL     1      12.928  31.809  72.231  1.00  0.00     0.004 C 
HETATM   15  C10 UNL     1      12.850  30.460  71.609  1.00  0.00     0.038 C 
HETATM   16  F1  UNL     1      12.030  28.359  72.393  1.00  0.00    -0.249 F 
ENDBRANCH   4   6
ENDBRANCH   1   2
BRANCH   1  17
HETATM   17  C13 UNL     1       9.778  33.958  76.559  1.00  0.00     0.042 C 
HETATM   18  C14 UNL     1      10.414  35.036  75.720  1.00  0.00     0.011 C 
HETATM   19  C15 UNL     1       9.720  36.350  75.739  1.00  0.00     0.001 C 
HETATM   20  C16 UNL     1       9.214  36.739  77.107  1.00  0.00     0.000 C 
HETATM   21  C17 UNL     1       9.816  35.801  78.139  1.00  0.00     0.001 C 
HETATM   22  C18 UNL     1       9.197  34.456  77.843  1.00  0.00     0.011 C 
ENDBRANCH   1  17
BRANCH   1  23
HETATM   23  N2  UNL     1       7.415  33.206  76.301  1.00  0.00    -0.306 N 
HETATM   24  C19 UNL     1       7.035  32.156  77.101  1.00  0.00     0.188 A 
HETATM   25  N3  UNL     1       5.788  32.313  77.550  1.00  0.00    -0.360 N 
HETATM   26  C20 UNL     1       5.320  33.461  77.061  1.00  0.00     0.116 A 
ATOM     27  H3  UNL     1       5.284  31.668  78.158  1.00  0.00     0.166 HD
HETATM   28  C21 UNL     1       6.343  34.019  76.279  1.00  0.00     0.056 A 
BRANCH  28  29
HETATM   29  C22 UNL     1       6.242  35.294  75.575  1.00  0.00     0.223 C 
BRANCH  29  30
HETATM   30  O2  UNL     1       6.014  36.321  76.530  1.00  0.00    -0.395 OA
ATOM     31  H2  UNL     1       6.231  35.986  77.392  1.00  0.00     0.209 HD
ENDBRANCH  29  30
ENDBRANCH  28  29
ENDBRANCH   1  23
TORSDOF 6
ENDMDL
MODEL 3
REMARK VINA RESULT: -7.014636870      2.824      6.269
REMARK  6 active torsions:
REMARK  status: ('A' for Active; 'I' for Inactive)
REMARK       I    between atoms: C1_2  and  N1_3 
REMARK    1  A    between atoms: C1_2  and  C12_16 
REMARK    2  A    between atoms: N1_3  and  C2_5 
REMARK    3  A    between atoms: C12_16  and  C13_17 
REMARK    4  A    between atoms: C12_16  and  N2_23 
REMARK    5  A    between atoms: C21_28  and  C22_29 
REMARK    6  A    between atoms: C22_29  and  O2_30 
ROOT
HETATM    1  C12 UNL     1       6.536  35.636  77.373  1.00  0.00     0.089 C 
ENDROOT
BRANCH   1   2
HETATM    2  C1  UNL     1       7.111  34.293  77.319  1.00  0.00     0.265 C 
HETATM    3  O1  UNL     1       7.453  33.772  78.449  1.00  0.00    -0.266 OA
HETATM    4  N1  UNL     1       7.327  33.515  76.135  1.00  0.00    -0.350 N 
ATOM      5  H1  UNL     1       7.056  33.914  75.236  1.00  0.00     0.163 HD
BRANCH   4   6
HETATM    6  C2  UNL     1       7.913  32.188  76.155  1.00  0.00     0.096 C 
HETATM    7  C3  UNL     1       9.424  32.239  76.035  1.00  0.00     0.026 C 
HETATM    8  C4  UNL     1       9.961  32.235  74.656  1.00  0.00     0.002 C 
HETATM    9  C5  UNL     1       9.422  31.061  73.903  1.00  0.00     0.001 C 
HETATM   10  C6  UNL     1       7.942  30.924  73.949  1.00  0.00     0.014 C 
HETATM   11  C7  UNL     1       7.271  31.210  75.246  1.00  0.00     0.011 C 
HETATM   12  C8  UNL     1       5.840  31.628  74.896  1.00  0.00     0.014 C 
HETATM   13  C11 UNL     1       7.042  29.869  75.968  1.00  0.00     0.180 C 
HETATM   14  C9  UNL     1       5.037  30.374  74.827  1.00  0.00     0.004 C 
HETATM   15  C10 UNL     1       5.882  29.237  75.283  1.00  0.00     0.038 C 
HETATM   16  F1  UNL     1       8.157  29.090  75.992  1.00  0.00    -0.249 F 
ENDBRANCH   4   6
ENDBRANCH   1   2
BRANCH   1  17
HETATM   17  C13 UNL     1       7.537  36.753  77.024  1.00  0.00     0.042 C 
HETATM   18  C14 UNL     1       8.685  36.655  77.995  1.00  0.00     0.011 C 
HETATM   19  C15 UNL     1       9.771  35.718  77.606  1.00  0.00     0.001 C 
HETATM   20  C16 UNL     1      10.106  35.770  76.135  1.00  0.00     0.000 C 
HETATM   21  C17 UNL     1       9.429  36.982  75.519  1.00  0.00     0.001 C 
HETATM   22  C18 UNL     1       7.952  36.674  75.589  1.00  0.00     0.011 C 
ENDBRANCH   1  17
BRANCH   1  23
HETATM   23  N2  UNL     1       5.665  35.947  78.459  1.00  0.00    -0.306 N 
HETATM   24  C19 UNL     1       5.274  35.000  79.375  1.00  0.00     0.188 A 
HETATM   25  N3  UNL     1       4.459  35.520  80.294  1.00  0.00    -0.360 N 
HETATM   26  C20 UNL     1       4.294  36.811  80.010  1.00  0.00     0.116 A 
ATOM     27  H3  UNL     1       4.037  35.018  81.075  1.00  0.00     0.166 HD
HETATM   28  C21 UNL     1       5.052  37.076  78.859  1.00  0.00     0.056 A 
BRANCH  28  29
HETATM   29  C22 UNL     1       5.157  38.385  78.222  1.00  0.00     0.223 C 
BRANCH  29  30
HETATM   30  O2  UNL     1       3.905  38.702  77.630  1.00  0.00    -0.395 OA
ATOM     31  H2  UNL     1       3.470  37.892  77.391  1.00  0.00     0.209 HD
ENDBRANCH  29  30
ENDBRANCH  28  29
ENDBRANCH   1  23
TORSDOF 6
ENDMDL
MODEL 4
REMARK VINA RESULT: -6.959329812      1.419      1.684
REMARK  6 active torsions:
REMARK  status: ('A' for Active; 'I' for Inactive)
REMARK       I    between atoms: C1_2  and  N1_3 
REMARK    1  A    between atoms: C1_2  and  C12_16 
REMARK    2  A    between atoms: N1_3  and  C2_5 
REMARK    3  A    between atoms: C12_16  and  C13_17 
REMARK    4  A    between atoms: C12_16  and  N2_23 
REMARK    5  A    between atoms: C21_28  and  C22_29 
REMARK    6  A    between atoms: C22_29  and  O2_30 
ROOT
HETATM    1  C12 UNL     1       6.825  31.244  76.540  1.00  0.00     0.089 C 
ENDROOT
BRANCH   1   2
HETATM    2  C1  UNL     1       6.395  32.635  76.421  1.00  0.00     0.265 C 
HETATM    3  O1  UNL     1       5.214  32.829  75.940  1.00  0.00    -0.266 OA
HETATM    4  N1  UNL     1       7.162  33.789  76.787  1.00  0.00    -0.350 N 
ATOM      5  H1  UNL     1       8.095  33.649  77.174  1.00  0.00     0.163 HD
BRANCH   4   6
HETATM    6  C2  UNL     1       6.674  35.147  76.634  1.00  0.00     0.096 C 
HETATM    7  C3  UNL     1       6.973  35.698  75.253  1.00  0.00     0.026 C 
HETATM    8  C4  UNL     1       8.284  36.368  75.097  1.00  0.00     0.002 C 
HETATM    9  C5  UNL     1       8.432  37.442  76.126  1.00  0.00     0.001 C 
HETATM   10  C6  UNL     1       8.169  37.001  77.522  1.00  0.00     0.014 C 
HETATM   11  C7  UNL     1       7.032  36.067  77.739  1.00  0.00     0.011 C 
HETATM   12  C8  UNL     1       7.358  35.297  79.022  1.00  0.00     0.014 C 
HETATM   13  C11 UNL     1       5.809  36.898  78.169  1.00  0.00     0.180 C 
HETATM   14  C9  UNL     1       6.824  36.111  80.151  1.00  0.00     0.004 C 
HETATM   15  C10 UNL     1       6.045  37.251  79.595  1.00  0.00     0.038 C 
HETATM   16  F1  UNL     1       5.598  37.974  77.364  1.00  0.00    -0.249 F 
ENDBRANCH   4   6
ENDBRANCH   1   2
BRANCH   1  17
HETATM   17  C13 UNL     1       6.928  30.510  75.189  1.00  0.00     0.042 C 
HETATM   18  C14 UNL     1       7.510  31.476  74.190  1.00  0.00     0.011 C 
HETATM   19  C15 UNL     1       8.994  31.528  74.144  1.00  0.00     0.001 C 
HETATM   20  C16 UNL     1       9.644  30.170  74.260  1.00  0.00     0.000 C 
HETATM   21  C17 UNL     1       8.577  29.100  74.100  1.00  0.00     0.001 C 
HETATM   22  C18 UNL     1       7.706  29.240  75.325  1.00  0.00     0.011 C 
ENDBRANCH   1  17
BRANCH   1  23
HETATM   23  N2  UNL     1       6.267  30.459  77.593  1.00  0.00    -0.306 N 
HETATM   24  C19 UNL     1       6.994  30.109  78.705  1.00  0.00     0.188 A 
HETATM   25  N3  UNL     1       6.267  29.374  79.549  1.00  0.00    -0.360 N 
HETATM   26  C20 UNL     1       5.054  29.224  79.019  1.00  0.00     0.116 A 
ATOM     27  H3  UNL     1       6.584  28.994  80.441  1.00  0.00     0.166 HD
HETATM   28  C21 UNL     1       5.057  29.906  77.793  1.00  0.00     0.056 A 
BRANCH  28  29
HETATM   29  C22 UNL     1       3.907  30.002  76.897  1.00  0.00     0.223 C 
BRANCH  29  30
HETATM   30  O2  UNL     1       3.158  31.158  77.246  1.00  0.00    -0.395 OA
ATOM     31  H2  UNL     1       3.722  31.748  77.732  1.00  0.00     0.209 HD
ENDBRANCH  29  30
ENDBRANCH  28  29
ENDBRANCH   1  23
TORSDOF 6
ENDMDL
MODEL 5
REMARK VINA RESULT: -6.952430105      3.166      7.487
REMARK  6 active torsions:
REMARK  status: ('A' for Active; 'I' for Inactive)
REMARK       I    between atoms: C1_2  and  N1_3 
REMARK    1  A    between atoms: C1_2  and  C12_16 
REMARK    2  A    between atoms: N1_3  and  C2_5 
REMARK    3  A    between atoms: C12_16  and  C13_17 
REMARK    4  A    between atoms: C12_16  and  N2_23 
REMARK    5  A    between atoms: C21_28  and  C22_29 
REMARK    6  A    between atoms: C22_29  and  O2_30 
ROOT
HETATM    1  C12 UNL     1       7.864  35.504  76.343  1.00  0.00     0.089 C 
ENDROOT
BRANCH   1   2
HETATM    2  C1  UNL     1       7.701  34.170  75.768  1.00  0.00     0.265 C 
HETATM    3  O1  UNL     1       6.667  33.994  75.016  1.00  0.00    -0.266 OA
HETATM    4  N1  UNL     1       8.578  33.054  75.964  1.00  0.00    -0.350 N 
ATOM      5  H1  UNL     1       9.402  33.182  76.551  1.00  0.00     0.163 HD
BRANCH   4   6
HETATM    6  C2  UNL     1       8.349  31.752  75.367  1.00  0.00     0.096 C 
HETATM    7  C3  UNL     1       7.377  30.922  76.183  1.00  0.00     0.026 C 
HETATM    8  C4  UNL     1       7.977  30.099  77.258  1.00  0.00     0.002 C 
HETATM    9  C5  UNL     1       9.052  29.228  76.691  1.00  0.00     0.001 C 
HETATM   10  C6  UNL     1      10.067  29.948  75.878  1.00  0.00     0.014 C 
HETATM   11  C7  UNL     1       9.578  31.022  74.973  1.00  0.00     0.011 C 
HETATM   12  C8  UNL     1      10.757  31.980  74.779  1.00  0.00     0.014 C 
HETATM   13  C11 UNL     1       9.421  30.421  73.563  1.00  0.00     0.180 C 
HETATM   14  C9  UNL     1      11.545  31.454  73.628  1.00  0.00     0.004 C 
HETATM   15  C10 UNL     1      10.801  30.319  73.015  1.00  0.00     0.038 C 
HETATM   16  F1  UNL     1       8.743  29.242  73.569  1.00  0.00    -0.249 F 
ENDBRANCH   4   6
ENDBRANCH   1   2
BRANCH   1  17
HETATM   17  C13 UNL     1       6.653  35.974  77.170  1.00  0.00     0.042 C 
HETATM   18  C14 UNL     1       6.174  34.799  77.983  1.00  0.00     0.011 C 
HETATM   19  C15 UNL     1       6.851  34.614  79.294  1.00  0.00     0.001 C 
HETATM   20  C16 UNL     1       7.104  35.910  80.024  1.00  0.00     0.000 C 
HETATM   21  C17 UNL     1       6.330  37.022  79.336  1.00  0.00     0.001 C 
HETATM   22  C18 UNL     1       6.995  37.176  77.990  1.00  0.00     0.011 C 
ENDBRANCH   1  17
BRANCH   1  23
HETATM   23  N2  UNL     1       8.445  36.518  75.525  1.00  0.00    -0.306 N 
HETATM   24  C19 UNL     1       7.683  37.349  74.741  1.00  0.00     0.188 A 
HETATM   25  N3  UNL     1       8.443  38.211  74.063  1.00  0.00    -0.360 N 
HETATM   26  C20 UNL     1       9.715  37.972  74.382  1.00  0.00     0.116 A 
ATOM     27  H3  UNL     1       8.110  38.926  73.417  1.00  0.00     0.166 HD
HETATM   28  C21 UNL     1       9.713  36.910  75.299  1.00  0.00     0.056 A 
BRANCH  28  29
HETATM   29  C22 UNL     1      10.911  36.347  75.913  1.00  0.00     0.223 C 
BRANCH  29  30
HETATM   30  O2  UNL     1      11.077  35.016  75.443  1.00  0.00    -0.395 OA
ATOM     31  H2  UNL     1      11.965  34.918  75.120  1.00  0.00     0.209 HD
ENDBRANCH  29  30
ENDBRANCH  28  29
ENDBRANCH   1  23
TORSDOF 6
ENDMDL
