MODEL 1
REMARK VINA RESULT: -6.936551453      0.000      0.000
REMARK  7 active torsions:
REMARK  status: ('A' for Active; 'I' for Inactive)
REMARK    1  A    between atoms: O1_2  and  C2_3 
REMARK    2  A    between atoms: C7_8  and  O2_9 
REMARK    3  A    between atoms: C9_11  and  O3_12 
REMARK    4  A    between atoms: C10_14  and  C11_15 
REMARK    5  A    between atoms: C11_15  and  C12_16 
REMARK    6  A    between atoms: C15_20  and  C16_21 
REMARK    7  A    between atoms: C16_21  and  O5_22 
ROOT
HETATM    1  C2  UNL     1       5.633  32.612  75.580  1.00  0.00     0.102 A 
HETATM    2  C3  UNL     1       6.252  33.804  75.273  1.00  0.00     0.048 A 
HETATM    3  C4  UNL     1       6.470  34.818  76.219  1.00  0.00    -0.036 A 
HETATM    4  C5  UNL     1       6.037  34.597  77.521  1.00  0.00    -0.019 A 
HETATM    5  C6  UNL     1       5.427  33.425  77.833  1.00  0.00     0.050 A 
HETATM    6  C7  UNL     1       5.215  32.421  76.878  1.00  0.00     0.102 A 
HETATM    7  C9  UNL     1       6.205  35.710  78.527  1.00  0.00     0.156 C 
HETATM    8  C10 UNL     1       5.783  36.974  77.841  1.00  0.00     0.027 C 
HETATM    9  C14 UNL     1       6.572  37.242  76.624  1.00  0.00     0.024 C 
HETATM   10  C15 UNL     1       7.104  36.064  75.874  1.00  0.00     0.077 C 
ENDROOT
BRANCH  10  11
HETATM   11  C16 UNL     1       8.573  36.161  75.889  1.00  0.00     0.065 C 
HETATM   12  C17 UNL     1       9.428  36.902  75.306  1.00  0.00     0.014 C 
HETATM   13  C18 UNL     1      10.890  36.705  75.577  1.00  0.00     0.059 C 
HETATM   14 BR1  UNL     1       9.005  38.269  74.089  1.00  0.00    -0.053 Br
BRANCH  11  15
HETATM   15  O5  UNL     1       9.157  35.178  76.780  1.00  0.00    -0.363 OA
ATOM     16  H5  UNL     1       9.963  35.499  77.165  1.00  0.00     0.217 HD
ENDBRANCH  11  15
ENDBRANCH  10  11
BRANCH   8  17
HETATM   17  C11 UNL     1       5.850  38.129  78.836  1.00  0.00     0.085 C 
BRANCH  17  18
HETATM   18  C12 UNL     1       4.711  39.035  78.563  1.00  0.00     0.123 C 
HETATM   19  C13 UNL     1       3.394  38.902  79.250  1.00  0.00     0.091 C 
HETATM   20  O4  UNL     1       4.870  39.921  77.740  1.00  0.00    -0.298 OA
ENDBRANCH  17  18
ENDBRANCH   8  17
BRANCH   1  21
HETATM   21  O1  UNL     1       5.419  31.614  74.638  1.00  0.00    -0.353 OA
HETATM   22  C1  UNL     1       6.376  31.259  73.660  1.00  0.00     0.210 C 
ENDBRANCH   1  21
BRANCH   7  23
HETATM   23  O3  UNL     1       7.433  35.753  79.118  1.00  0.00    -0.390 OA
ATOM     24  H3  UNL     1       7.412  35.726  80.067  1.00  0.00     0.210 HD
ENDBRANCH   7  23
BRANCH   6  25
HETATM   25  O2  UNL     1       4.597  31.277  77.274  1.00  0.00    -0.353 OA
HETATM   26  C8  UNL     1       3.376  31.122  77.904  1.00  0.00     0.210 C 
ENDBRANCH   6  25
TORSDOF 7
ENDMDL
MODEL 2
REMARK VINA RESULT: -6.736912147      3.194      4.960
REMARK  7 active torsions:
REMARK  status: ('A' for Active; 'I' for Inactive)
REMARK    1  A    between atoms: O1_2  and  C2_3 
REMARK    2  A    between atoms: C7_8  and  O2_9 
REMARK    3  A    between atoms: C9_11  and  O3_12 
REMARK    4  A    between atoms: C10_14  and  C11_15 
REMARK    5  A    between atoms: C11_15  and  C12_16 
REMARK    6  A    between atoms: C15_20  and  C16_21 
REMARK    7  A    between atoms: C16_21  and  O5_22 
ROOT
HETATM    1  C2  UNL     1       8.610  31.911  77.192  1.00  0.00     0.102 A 
HETATM    2  C3  UNL     1       8.470  33.055  77.948  1.00  0.00     0.048 A 
HETATM    3  C4  UNL     1       8.033  34.277  77.411  1.00  0.00    -0.036 A 
HETATM    4  C5  UNL     1       7.731  34.321  76.056  1.00  0.00    -0.019 A 
HETATM    5  C6  UNL     1       7.865  33.199  75.304  1.00  0.00     0.050 A 
HETATM    6  C7  UNL     1       8.303  31.985  75.852  1.00  0.00     0.102 A 
HETATM    7  C9  UNL     1       7.328  35.647  75.458  1.00  0.00     0.156 C 
HETATM    8  C10 UNL     1       8.272  36.671  76.011  1.00  0.00     0.027 C 
HETATM    9  C14 UNL     1       8.239  36.726  77.484  1.00  0.00     0.024 C 
HETATM   10  C15 UNL     1       7.909  35.465  78.215  1.00  0.00     0.077 C 
ENDROOT
BRANCH  10  11
HETATM   11  C16 UNL     1       6.668  35.707  78.970  1.00  0.00     0.065 C 
HETATM   12  C17 UNL     1       6.209  35.313  80.089  1.00  0.00     0.014 C 
HETATM   13  C18 UNL     1       4.861  35.786  80.548  1.00  0.00     0.059 C 
HETATM   14 BR1  UNL     1       7.101  34.146  81.260  1.00  0.00    -0.053 Br
BRANCH  11  15
HETATM   15  O5  UNL     1       5.784  36.604  78.253  1.00  0.00    -0.363 OA
ATOM     16  H5  UNL     1       5.022  36.145  77.922  1.00  0.00     0.217 HD
ENDBRANCH  11  15
ENDBRANCH  10  11
BRANCH   8  17
HETATM   17  C11 UNL     1       7.969  38.025  75.377  1.00  0.00     0.085 C 
BRANCH  17  18
HETATM   18  C12 UNL     1       8.816  38.165  74.170  1.00  0.00     0.123 C 
HETATM   19  C13 UNL     1      10.303  38.257  74.236  1.00  0.00     0.091 C 
HETATM   20  O4  UNL     1       8.262  38.207  73.084  1.00  0.00    -0.298 OA
ENDBRANCH  17  18
ENDBRANCH   8  17
BRANCH   1  21
HETATM   21  O1  UNL     1       9.045  30.707  77.730  1.00  0.00    -0.353 OA
HETATM   22  C1  UNL     1       9.033  30.431  79.117  1.00  0.00     0.210 C 
ENDBRANCH   1  21
BRANCH   7  23
HETATM   23  O3  UNL     1       6.004  35.946  75.594  1.00  0.00    -0.390 OA
ATOM     24  H3  UNL     1       5.760  36.257  76.457  1.00  0.00     0.210 HD
ENDBRANCH   7  23
BRANCH   6  25
HETATM   25  O2  UNL     1       8.410  30.908  75.029  1.00  0.00    -0.353 OA
HETATM   26  C8  UNL     1       8.696  30.872  73.677  1.00  0.00     0.210 C 
ENDBRANCH   6  25
TORSDOF 7
ENDMDL
MODEL 3
REMARK VINA RESULT: -6.712457386      2.211      4.799
REMARK  7 active torsions:
REMARK  status: ('A' for Active; 'I' for Inactive)
REMARK    1  A    between atoms: O1_2  and  C2_3 
REMARK    2  A    between atoms: C7_8  and  O2_9 
REMARK    3  A    between atoms: C9_11  and  O3_12 
REMARK    4  A    between atoms: C10_14  and  C11_15 
REMARK    5  A    between atoms: C11_15  and  C12_16 
REMARK    6  A    between atoms: C15_20  and  C16_21 
REMARK    7  A    between atoms: C16_21  and  O5_22 
ROOT
HETATM    1  C2  UNL     1       5.405  32.791  77.279  1.00  0.00     0.102 A 
HETATM    2  C3  UNL     1       5.687  33.946  77.976  1.00  0.00     0.048 A 
HETATM    3  C4  UNL     1       6.234  35.089  77.371  1.00  0.00    -0.036 A 
HETATM    4  C5  UNL     1       6.497  35.040  76.008  1.00  0.00    -0.019 A 
HETATM    5  C6  UNL     1       6.221  33.907  75.313  1.00  0.00     0.050 A 
HETATM    6  C7  UNL     1       5.675  32.773  75.929  1.00  0.00     0.102 A 
HETATM    7  C9  UNL     1       7.149  36.240  75.364  1.00  0.00     0.156 C 
HETATM    8  C10 UNL     1       8.247  36.677  76.286  1.00  0.00     0.027 C 
HETATM    9  C14 UNL     1       7.749  37.008  77.633  1.00  0.00     0.024 C 
HETATM   10  C15 UNL     1       6.537  36.281  78.120  1.00  0.00     0.077 C 
ENDROOT
BRANCH  10  11
HETATM   11  C16 UNL     1       5.485  37.284  78.349  1.00  0.00     0.065 C 
HETATM   12  C17 UNL     1       4.533  37.410  79.184  1.00  0.00     0.014 C 
HETATM   13  C18 UNL     1       3.633  38.608  79.110  1.00  0.00     0.059 C 
HETATM   14 BR1  UNL     1       4.140  36.183  80.550  1.00  0.00    -0.053 Br
BRANCH  11  15
HETATM   15  O5  UNL     1       5.575  38.369  77.391  1.00  0.00    -0.363 OA
ATOM     16  H5  UNL     1       4.732  38.787  77.265  1.00  0.00     0.217 HD
ENDBRANCH  11  15
ENDBRANCH  10  11
BRANCH   8  17
HETATM   17  C11 UNL     1       9.003  37.839  75.649  1.00  0.00     0.085 C 
BRANCH  17  18
HETATM   18  C12 UNL     1      10.200  37.290  74.972  1.00  0.00     0.123 C 
HETATM   19  C13 UNL     1      10.976  36.138  75.516  1.00  0.00     0.091 C 
HETATM   20  O4  UNL     1      10.557  37.812  73.929  1.00  0.00    -0.298 OA
ENDBRANCH  17  18
ENDBRANCH   8  17
BRANCH   1  21
HETATM   21  O1  UNL     1       4.865  31.664  77.885  1.00  0.00    -0.353 OA
HETATM   22  C1  UNL     1       3.481  31.503  78.123  1.00  0.00     0.210 C 
ENDBRANCH   1  21
BRANCH   7  23
HETATM   23  O3  UNL     1       6.279  37.222  74.993  1.00  0.00    -0.390 OA
ATOM     24  H3  UNL     1       6.648  37.872  74.407  1.00  0.00     0.210 HD
ENDBRANCH   7  23
BRANCH   6  25
HETATM   25  O2  UNL     1       5.428  31.679  75.161  1.00  0.00    -0.353 OA
HETATM   26  C8  UNL     1       6.168  31.171  74.109  1.00  0.00     0.210 C 
ENDBRANCH   6  25
TORSDOF 7
ENDMDL
MODEL 4
REMARK VINA RESULT: -6.457523369      3.314      6.415
REMARK  7 active torsions:
REMARK  status: ('A' for Active; 'I' for Inactive)
REMARK    1  A    between atoms: O1_2  and  C2_3 
REMARK    2  A    between atoms: C7_8  and  O2_9 
REMARK    3  A    between atoms: C9_11  and  O3_12 
REMARK    4  A    between atoms: C10_14  and  C11_15 
REMARK    5  A    between atoms: C11_15  and  C12_16 
REMARK    6  A    between atoms: C15_20  and  C16_21 
REMARK    7  A    between atoms: C16_21  and  O5_22 
ROOT
HETATM    1  C2  UNL     1       3.358  37.715  79.853  1.00  0.00     0.102 A 
HETATM    2  C3  UNL     1       3.911  36.464  79.688  1.00  0.00     0.048 A 
HETATM    3  C4  UNL     1       5.131  36.250  79.025  1.00  0.00    -0.036 A 
HETATM    4  C5  UNL     1       5.798  37.358  78.517  1.00  0.00    -0.019 A 
HETATM    5  C6  UNL     1       5.261  38.594  78.676  1.00  0.00     0.050 A 
HETATM    6  C7  UNL     1       4.043  38.794  79.340  1.00  0.00     0.102 A 
HETATM    7  C9  UNL     1       7.074  37.128  77.743  1.00  0.00     0.156 C 
HETATM    8  C10 UNL     1       6.816  35.971  76.826  1.00  0.00     0.027 C 
HETATM    9  C14 UNL     1       6.419  34.754  77.558  1.00  0.00     0.024 C 
HETATM   10  C15 UNL     1       5.685  34.933  78.848  1.00  0.00     0.077 C 
ENDROOT
BRANCH  10  11
HETATM   11  C16 UNL     1       6.515  34.343  79.911  1.00  0.00     0.065 C 
HETATM   12  C17 UNL     1       6.275  33.778  81.025  1.00  0.00     0.014 C 
HETATM   13  C18 UNL     1       7.414  33.286  81.869  1.00  0.00     0.059 C 
HETATM   14 BR1  UNL     1       4.559  33.498  81.735  1.00  0.00    -0.053 Br
BRANCH  11  15
HETATM   15  O5  UNL     1       7.925  34.440  79.591  1.00  0.00    -0.363 OA
ATOM     16  H5  UNL     1       8.124  34.001  78.773  1.00  0.00     0.217 HD
ENDBRANCH  11  15
ENDBRANCH  10  11
BRANCH   8  17
HETATM   17  C11 UNL     1       8.045  35.742  75.952  1.00  0.00     0.085 C 
BRANCH  17  18
HETATM   18  C12 UNL     1       8.241  36.947  75.114  1.00  0.00     0.123 C 
HETATM   19  C13 UNL     1       9.546  37.665  75.029  1.00  0.00     0.091 C 
HETATM   20  O4  UNL     1       7.289  37.359  74.472  1.00  0.00    -0.298 OA
ENDBRANCH  17  18
ENDBRANCH   8  17
BRANCH   1  21
HETATM   21  O1  UNL     1       2.150  37.919  80.509  1.00  0.00    -0.353 OA
HETATM   22  C1  UNL     1       2.015  37.853  81.914  1.00  0.00     0.210 C 
ENDBRANCH   1  21
BRANCH   7  23
HETATM   23  O3  UNL     1       8.190  37.017  78.518  1.00  0.00    -0.390 OA
ATOM     24  H3  UNL     1       9.007  37.056  78.036  1.00  0.00     0.210 HD
ENDBRANCH   7  23
BRANCH   6  25
HETATM   25  O2  UNL     1       3.574  40.065  79.457  1.00  0.00    -0.353 OA
HETATM   26  C8  UNL     1       4.224  41.258  79.202  1.00  0.00     0.210 C 
ENDBRANCH   6  25
TORSDOF 7
ENDMDL
MODEL 5
REMARK VINA RESULT: -6.326742809      2.351      2.473
REMARK  7 active torsions:
REMARK  status: ('A' for Active; 'I' for Inactive)
REMARK    1  A    between atoms: O1_2  and  C2_3 
REMARK    2  A    between atoms: C7_8  and  O2_9 
REMARK    3  A    between atoms: C9_11  and  O3_12 
REMARK    4  A    between atoms: C10_14  and  C11_15 
REMARK    5  A    between atoms: C11_15  and  C12_16 
REMARK    6  A    between atoms: C15_20  and  C16_21 
REMARK    7  A    between atoms: C16_21  and  O5_22 
ROOT
HETATM    1  C2  UNL     1       8.160  32.346  75.908  1.00  0.00     0.102 A 
HETATM    2  C3  UNL     1       7.707  33.577  75.488  1.00  0.00     0.048 A 
HETATM    3  C4  UNL     1       7.579  34.679  76.349  1.00  0.00    -0.036 A 
HETATM    4  C5  UNL     1       7.927  34.506  77.683  1.00  0.00    -0.019 A 
HETATM    5  C6  UNL     1       8.376  33.296  78.106  1.00  0.00     0.050 A 
HETATM    6  C7  UNL     1       8.499  32.204  77.235  1.00  0.00     0.102 A 
HETATM    7  C9  UNL     1       7.727  35.665  78.629  1.00  0.00     0.156 C 
HETATM    8  C10 UNL     1       6.381  36.245  78.315  1.00  0.00     0.027 C 
HETATM    9  C14 UNL     1       6.275  36.687  76.912  1.00  0.00     0.024 C 
HETATM   10  C15 UNL     1       7.088  35.953  75.894  1.00  0.00     0.077 C 
ENDROOT
BRANCH  10  11
HETATM   11  C16 UNL     1       8.022  36.922  75.297  1.00  0.00     0.065 C 
HETATM   12  C17 UNL     1       9.288  37.018  75.225  1.00  0.00     0.014 C 
HETATM   13  C18 UNL     1       9.906  38.184  74.510  1.00  0.00     0.059 C 
HETATM   14 BR1  UNL     1      10.498  35.786  75.963  1.00  0.00    -0.053 Br
BRANCH  11  15
HETATM   15  O5  UNL     1       7.311  38.006  74.647  1.00  0.00    -0.363 OA
ATOM     16  H5  UNL     1       7.164  38.729  75.244  1.00  0.00     0.217 HD
ENDBRANCH  11  15
ENDBRANCH  10  11
BRANCH   8  17
HETATM   17  C11 UNL     1       6.081  37.373  79.297  1.00  0.00     0.085 C 
BRANCH  17  18
HETATM   18  C12 UNL     1       4.634  37.676  79.218  1.00  0.00     0.123 C 
HETATM   19  C13 UNL     1       4.110  38.981  78.720  1.00  0.00     0.091 C 
HETATM   20  O4  UNL     1       3.848  36.815  79.579  1.00  0.00    -0.298 OA
ENDBRANCH  17  18
ENDBRANCH   8  17
BRANCH   1  21
HETATM   21  O1  UNL     1       8.282  31.260  75.050  1.00  0.00    -0.353 OA
HETATM   22  C1  UNL     1       7.913  31.308  73.686  1.00  0.00     0.210 C 
ENDBRANCH   1  21
BRANCH   7  23
HETATM   23  O3  UNL     1       8.755  36.561  78.647  1.00  0.00    -0.390 OA
ATOM     24  H3  UNL     1       8.699  37.205  79.342  1.00  0.00     0.210 HD
ENDBRANCH   7  23
BRANCH   6  25
HETATM   25  O2  UNL     1       8.956  31.028  77.739  1.00  0.00    -0.353 OA
HETATM   26  C8  UNL     1       8.262  30.046  78.423  1.00  0.00     0.210 C 
ENDBRANCH   6  25
TORSDOF 7
ENDMDL
