MODEL 1
REMARK VINA RESULT: -7.548858946      0.000      0.000
REMARK  7 active torsions:
REMARK  status: ('A' for Active; 'I' for Inactive)
REMARK    1  A    between atoms: N1_2  and  C2_3 
REMARK    2  A    between atoms: N1_2  and  C17_20 
REMARK    3  A    between atoms: C2_3  and  C3_4 
REMARK    4  A    between atoms: N2_13  and  C11_14 
REMARK    5  A    between atoms: C17_20  and  C18_21 
REMARK    6  A    between atoms: C21_24  and  N3_25 
REMARK    7  A    between atoms: C22_29  and  O1_30 
ROOT
HETATM    1  C3  UNL     1       6.076  36.357  78.991  1.00  0.00     0.051 A 
HETATM    2  C4  UNL     1       6.007  37.668  78.524  1.00  0.00     0.044 A 
HETATM    3  C5  UNL     1       4.836  38.246  78.965  1.00  0.00    -0.007 A 
HETATM    4  C6  UNL     1       4.274  39.508  78.797  1.00  0.00     0.015 A 
HETATM    5  C7  UNL     1       3.055  39.824  79.367  1.00  0.00     0.025 A 
HETATM    6  C8  UNL     1       2.403  38.872  80.107  1.00  0.00     0.036 A 
HETATM    7 CL1  UNL     1       0.850  39.187  80.872  1.00  0.00    -0.084 Cl
HETATM    8  C9  UNL     1       2.968  37.619  80.270  1.00  0.00     0.054 A 
HETATM    9  C10 UNL     1       4.195  37.275  79.705  1.00  0.00     0.047 A 
HETATM   10  N2  UNL     1       4.959  36.142  79.708  1.00  0.00    -0.340 N 
ENDROOT
BRANCH   1  11
HETATM   11  C2  UNL     1       7.156  35.402  78.754  1.00  0.00     0.119 C 
BRANCH  11  12
HETATM   12  N1  UNL     1       7.155  34.781  77.488  1.00  0.00    -0.372 N 
HETATM   13  C1  UNL     1       5.979  34.280  76.948  1.00  0.00     0.154 C 
BRANCH  12  14
HETATM   14  C17 UNL     1       8.320  34.976  76.751  1.00  0.00     0.070 C 
BRANCH  14  15
HETATM   15  C18 UNL     1       8.708  36.347  76.347  1.00  0.00     0.055 C 
HETATM   16  C19 UNL     1      10.187  36.430  76.081  1.00  0.00     0.014 C 
HETATM   17  C20 UNL     1      10.366  37.349  74.884  1.00  0.00     0.036 C 
HETATM   18  C21 UNL     1       9.013  37.933  74.675  1.00  0.00     0.212 C 
HETATM   19  C22 UNL     1       8.076  36.780  75.012  1.00  0.00     0.157 C 
BRANCH  18  20
HETATM   20  N3  UNL     1       8.769  38.353  73.319  1.00  0.00    -0.073 N 
ATOM     21  H33 UNL     1       9.628  38.318  72.770  1.00  0.00     0.274 HD
ATOM     22  H32 UNL     1       8.219  37.655  72.819  1.00  0.00     0.274 HD
ATOM     23  H31 UNL     1       8.334  39.273  73.248  1.00  0.00     0.274 HD
ENDBRANCH  18  20
BRANCH  19  24
HETATM   24  O1  UNL     1       6.812  37.294  75.175  1.00  0.00    -0.393 OA
ATOM     25  H1  UNL     1       6.159  36.810  74.682  1.00  0.00     0.210 HD
ENDBRANCH  19  24
ENDBRANCH  14  15
ENDBRANCH  12  14
ENDBRANCH  11  12
ENDBRANCH   1  11
BRANCH  10  26
HETATM   26  C11 UNL     1       4.575  34.916  80.403  1.00  0.00     0.090 C 
HETATM   27  C12 UNL     1       4.514  35.160  81.870  1.00  0.00     0.026 C 
HETATM   28  C13 UNL     1       3.586  34.295  82.639  1.00  0.00     0.002 C 
HETATM   29  C14 UNL     1       2.310  33.934  81.935  1.00  0.00     0.000 C 
HETATM   30  C15 UNL     1       2.678  33.288  80.631  1.00  0.00     0.002 C 
HETATM   31  C16 UNL     1       3.378  34.312  79.775  1.00  0.00     0.026 C 
ENDBRANCH  10  26
TORSDOF 7
ENDMDL
MODEL 2
REMARK VINA RESULT: -7.533224242      3.321      7.845
REMARK  7 active torsions:
REMARK  status: ('A' for Active; 'I' for Inactive)
REMARK    1  A    between atoms: N1_2  and  C2_3 
REMARK    2  A    between atoms: N1_2  and  C17_20 
REMARK    3  A    between atoms: C2_3  and  C3_4 
REMARK    4  A    between atoms: N2_13  and  C11_14 
REMARK    5  A    between atoms: C17_20  and  C18_21 
REMARK    6  A    between atoms: C21_24  and  N3_25 
REMARK    7  A    between atoms: C22_29  and  O1_30 
ROOT
HETATM    1  C3  UNL     1       6.440  35.963  78.150  1.00  0.00     0.051 A 
HETATM    2  C4  UNL     1       5.670  34.802  78.193  1.00  0.00     0.044 A 
HETATM    3  C5  UNL     1       6.008  33.995  77.129  1.00  0.00    -0.007 A 
HETATM    4  C6  UNL     1       5.563  32.749  76.699  1.00  0.00     0.015 A 
HETATM    5  C7  UNL     1       6.092  32.157  75.567  1.00  0.00     0.025 A 
HETATM    6  C8  UNL     1       7.069  32.818  74.869  1.00  0.00     0.036 A 
HETATM    7 CL1  UNL     1       7.802  32.139  73.420  1.00  0.00    -0.084 Cl
HETATM    8  C9  UNL     1       7.507  34.056  75.302  1.00  0.00     0.054 A 
HETATM    9  C10 UNL     1       6.990  34.675  76.439  1.00  0.00     0.047 A 
HETATM   10  N2  UNL     1       7.236  35.862  77.072  1.00  0.00    -0.340 N 
ENDROOT
BRANCH   1  11
HETATM   11  C2  UNL     1       6.395  37.074  79.098  1.00  0.00     0.119 C 
BRANCH  11  12
HETATM   12  N1  UNL     1       5.217  37.847  79.078  1.00  0.00    -0.372 N 
HETATM   13  C1  UNL     1       4.922  38.659  77.991  1.00  0.00     0.154 C 
BRANCH  12  14
HETATM   14  C17 UNL     1       4.289  37.508  80.060  1.00  0.00     0.070 C 
BRANCH  14  15
HETATM   15  C18 UNL     1       2.842  37.655  79.779  1.00  0.00     0.055 C 
HETATM   16  C19 UNL     1       2.072  36.473  80.305  1.00  0.00     0.014 C 
HETATM   17  C20 UNL     1       0.765  37.015  80.862  1.00  0.00     0.036 C 
HETATM   18  C21 UNL     1       0.746  38.434  80.415  1.00  0.00     0.212 C 
HETATM   19  C22 UNL     1       2.208  38.853  80.508  1.00  0.00     0.157 C 
BRANCH  18  20
HETATM   20  N3  UNL     1      -0.041  39.295  81.259  1.00  0.00    -0.073 N 
ATOM     21  H33 UNL     1      -0.269  38.829  82.137  1.00  0.00     0.274 HD
ATOM     22  H32 UNL     1       0.525  40.065  81.618  1.00  0.00     0.274 HD
ATOM     23  H31 UNL     1      -0.886  39.649  80.809  1.00  0.00     0.274 HD
ENDBRANCH  18  20
BRANCH  19  24
HETATM   24  O1  UNL     1       2.360  40.028  79.812  1.00  0.00    -0.393 OA
ATOM     25  H1  UNL     1       2.831  40.685  80.310  1.00  0.00     0.210 HD
ENDBRANCH  19  24
ENDBRANCH  14  15
ENDBRANCH  12  14
ENDBRANCH  11  12
ENDBRANCH   1  11
BRANCH  10  26
HETATM   26  C11 UNL     1       8.225  36.830  76.606  1.00  0.00     0.090 C 
HETATM   27  C12 UNL     1       9.554  36.174  76.469  1.00  0.00     0.026 C 
HETATM   28  C13 UNL     1      10.476  36.767  75.469  1.00  0.00     0.002 C 
HETATM   29  C14 UNL     1       9.822  37.294  74.223  1.00  0.00     0.000 C 
HETATM   30  C15 UNL     1       8.783  38.293  74.644  1.00  0.00     0.002 C 
HETATM   31  C16 UNL     1       7.718  37.569  75.427  1.00  0.00     0.026 C 
ENDBRANCH  10  26
TORSDOF 7
ENDMDL
MODEL 3
REMARK VINA RESULT: -7.498900453      0.814      1.046
REMARK  7 active torsions:
REMARK  status: ('A' for Active; 'I' for Inactive)
REMARK    1  A    between atoms: N1_2  and  C2_3 
REMARK    2  A    between atoms: N1_2  and  C17_20 
REMARK    3  A    between atoms: C2_3  and  C3_4 
REMARK    4  A    between atoms: N2_13  and  C11_14 
REMARK    5  A    between atoms: C17_20  and  C18_21 
REMARK    6  A    between atoms: C21_24  and  N3_25 
REMARK    7  A    between atoms: C22_29  and  O1_30 
ROOT
HETATM    1  C3  UNL     1       5.268  36.444  78.773  1.00  0.00     0.051 A 
HETATM    2  C4  UNL     1       5.336  37.747  78.287  1.00  0.00     0.044 A 
HETATM    3  C5  UNL     1       4.340  38.501  78.869  1.00  0.00    -0.007 A 
HETATM    4  C6  UNL     1       3.959  39.834  78.747  1.00  0.00     0.015 A 
HETATM    5  C7  UNL     1       2.893  40.337  79.471  1.00  0.00     0.025 A 
HETATM    6  C8  UNL     1       2.213  39.500  80.317  1.00  0.00     0.036 A 
HETATM    7 CL1  UNL     1       0.848  40.054  81.278  1.00  0.00    -0.084 Cl
HETATM    8  C9  UNL     1       2.597  38.176  80.432  1.00  0.00     0.054 A 
HETATM    9  C10 UNL     1       3.667  37.644  79.714  1.00  0.00     0.047 A 
HETATM   10  N2  UNL     1       4.243  36.406  79.642  1.00  0.00    -0.340 N 
ENDROOT
BRANCH   1  11
HETATM   11  C2  UNL     1       6.147  35.333  78.415  1.00  0.00     0.119 C 
BRANCH  11  12
HETATM   12  N1  UNL     1       7.520  35.641  78.334  1.00  0.00    -0.372 N 
HETATM   13  C1  UNL     1       8.296  35.717  79.481  1.00  0.00     0.154 C 
BRANCH  12  14
HETATM   14  C17 UNL     1       8.051  35.571  77.048  1.00  0.00     0.070 C 
BRANCH  14  15
HETATM   15  C18 UNL     1       8.662  36.776  76.444  1.00  0.00     0.055 C 
HETATM   16  C19 UNL     1      10.114  36.539  76.125  1.00  0.00     0.014 C 
HETATM   17  C20 UNL     1      10.392  37.240  74.804  1.00  0.00     0.036 C 
HETATM   18  C21 UNL     1       9.161  38.038  74.556  1.00  0.00     0.212 C 
HETATM   19  C22 UNL     1       8.047  37.141  75.080  1.00  0.00     0.157 C 
BRANCH  18  20
HETATM   20  N3  UNL     1       8.923  38.313  73.162  1.00  0.00    -0.073 N 
ATOM     21  H33 UNL     1       9.707  38.824  72.756  1.00  0.00     0.274 HD
ATOM     22  H32 UNL     1       8.975  37.456  72.612  1.00  0.00     0.274 HD
ATOM     23  H31 UNL     1       8.045  38.801  72.986  1.00  0.00     0.274 HD
ENDBRANCH  18  20
BRANCH  19  24
HETATM   24  O1  UNL     1       6.911  37.903  75.206  1.00  0.00    -0.393 OA
ATOM     25  H1  UNL     1       6.349  37.842  74.443  1.00  0.00     0.210 HD
ENDBRANCH  19  24
ENDBRANCH  14  15
ENDBRANCH  12  14
ENDBRANCH  11  12
ENDBRANCH   1  11
BRANCH  10  26
HETATM   26  C11 UNL     1       3.776  35.257  80.413  1.00  0.00     0.090 C 
HETATM   27  C12 UNL     1       4.333  35.310  81.792  1.00  0.00     0.026 C 
HETATM   28  C13 UNL     1       3.530  34.648  82.848  1.00  0.00     0.002 C 
HETATM   29  C14 UNL     1       2.041  34.759  82.689  1.00  0.00     0.000 C 
HETATM   30  C15 UNL     1       1.687  34.215  81.336  1.00  0.00     0.002 C 
HETATM   31  C16 UNL     1       2.309  35.105  80.290  1.00  0.00     0.026 C 
ENDBRANCH  10  26
TORSDOF 7
ENDMDL
MODEL 4
REMARK VINA RESULT: -7.379899853      5.396      7.953
REMARK  7 active torsions:
REMARK  status: ('A' for Active; 'I' for Inactive)
REMARK    1  A    between atoms: N1_2  and  C2_3 
REMARK    2  A    between atoms: N1_2  and  C17_20 
REMARK    3  A    between atoms: C2_3  and  C3_4 
REMARK    4  A    between atoms: N2_13  and  C11_14 
REMARK    5  A    between atoms: C17_20  and  C18_21 
REMARK    6  A    between atoms: C21_24  and  N3_25 
REMARK    7  A    between atoms: C22_29  and  O1_30 
ROOT
HETATM    1  C3  UNL     1       9.085  32.594  75.795  1.00  0.00     0.051 A 
HETATM    2  C4  UNL     1      10.339  33.106  75.471  1.00  0.00     0.044 A 
HETATM    3  C5  UNL     1      10.929  32.297  74.525  1.00  0.00    -0.007 A 
HETATM    4  C6  UNL     1      12.152  32.339  73.863  1.00  0.00     0.015 A 
HETATM    5  C7  UNL     1      12.493  31.370  72.938  1.00  0.00     0.025 A 
HETATM    6  C8  UNL     1      11.604  30.361  72.678  1.00  0.00     0.036 A 
HETATM    7 CL1  UNL     1      11.952  29.088  71.513  1.00  0.00    -0.084 Cl
HETATM    8  C9  UNL     1      10.390  30.324  73.339  1.00  0.00     0.054 A 
HETATM    9  C10 UNL     1      10.022  31.288  74.277  1.00  0.00     0.047 A 
HETATM   10  N2  UNL     1       8.915  31.485  75.054  1.00  0.00    -0.340 N 
ENDROOT
BRANCH   1  11
HETATM   11  C2  UNL     1       8.134  33.156  76.751  1.00  0.00     0.119 C 
BRANCH  11  12
HETATM   12  N1  UNL     1       7.548  34.384  76.381  1.00  0.00    -0.372 N 
HETATM   13  C1  UNL     1       6.534  34.427  75.434  1.00  0.00     0.154 C 
BRANCH  12  14
HETATM   14  C17 UNL     1       7.861  35.449  77.222  1.00  0.00     0.070 C 
BRANCH  14  15
HETATM   15  C18 UNL     1       8.555  36.636  76.672  1.00  0.00     0.055 C 
HETATM   16  C19 UNL     1       9.985  36.311  76.331  1.00  0.00     0.014 C 
HETATM   17  C20 UNL     1      10.307  37.053  75.043  1.00  0.00     0.036 C 
HETATM   18  C21 UNL     1       9.135  37.948  74.843  1.00  0.00     0.212 C 
HETATM   19  C22 UNL     1       7.962  37.108  75.333  1.00  0.00     0.157 C 
BRANCH  18  20
HETATM   20  N3  UNL     1       8.912  38.307  73.466  1.00  0.00    -0.073 N 
ATOM     21  H33 UNL     1       9.295  37.596  72.842  1.00  0.00     0.274 HD
ATOM     22  H32 UNL     1       7.923  38.226  73.229  1.00  0.00     0.274 HD
ATOM     23  H31 UNL     1       9.267  39.231  73.221  1.00  0.00     0.274 HD
ENDBRANCH  18  20
BRANCH  19  24
HETATM   24  O1  UNL     1       6.884  37.943  75.504  1.00  0.00    -0.393 OA
ATOM     25  H1  UNL     1       6.072  37.465  75.625  1.00  0.00     0.210 HD
ENDBRANCH  19  24
ENDBRANCH  14  15
ENDBRANCH  12  14
ENDBRANCH  11  12
ENDBRANCH   1  11
BRANCH  10  26
HETATM   26  C11 UNL     1       7.755  30.599  75.039  1.00  0.00     0.090 C 
HETATM   27  C12 UNL     1       7.474  30.104  76.415  1.00  0.00     0.026 C 
HETATM   28  C13 UNL     1       6.065  29.742  76.705  1.00  0.00     0.002 C 
HETATM   29  C14 UNL     1       5.029  30.608  76.047  1.00  0.00     0.000 C 
HETATM   30  C15 UNL     1       5.289  30.581  74.569  1.00  0.00     0.002 C 
HETATM   31  C16 UNL     1       6.628  31.223  74.310  1.00  0.00     0.026 C 
ENDBRANCH  10  26
TORSDOF 7
ENDMDL
MODEL 5
REMARK VINA RESULT: -7.276380165      3.612      7.980
REMARK  7 active torsions:
REMARK  status: ('A' for Active; 'I' for Inactive)
REMARK    1  A    between atoms: N1_2  and  C2_3 
REMARK    2  A    between atoms: N1_2  and  C17_20 
REMARK    3  A    between atoms: C2_3  and  C3_4 
REMARK    4  A    between atoms: N2_13  and  C11_14 
REMARK    5  A    between atoms: C17_20  and  C18_21 
REMARK    6  A    between atoms: C21_24  and  N3_25 
REMARK    7  A    between atoms: C22_29  and  O1_30 
ROOT
HETATM    1  C3  UNL     1       7.143  34.436  77.001  1.00  0.00     0.051 A 
HETATM    2  C4  UNL     1       7.088  33.045  76.933  1.00  0.00     0.044 A 
HETATM    3  C5  UNL     1       8.211  32.578  76.285  1.00  0.00    -0.007 A 
HETATM    4  C6  UNL     1       8.657  31.303  75.952  1.00  0.00     0.015 A 
HETATM    5  C7  UNL     1       9.855  31.122  75.285  1.00  0.00     0.025 A 
HETATM    6  C8  UNL     1      10.602  32.222  74.955  1.00  0.00     0.036 A 
HETATM    7 CL1  UNL     1      12.140  32.085  74.109  1.00  0.00    -0.084 Cl
HETATM    8  C9  UNL     1      10.152  33.486  75.290  1.00  0.00     0.054 A 
HETATM    9  C10 UNL     1       8.949  33.697  75.961  1.00  0.00     0.047 A 
HETATM   10  N2  UNL     1       8.287  34.809  76.401  1.00  0.00    -0.340 N 
ENDROOT
BRANCH   1  11
HETATM   11  C2  UNL     1       6.152  35.319  77.611  1.00  0.00     0.119 C 
BRANCH  11  12
HETATM   12  N1  UNL     1       6.565  35.982  78.785  1.00  0.00    -0.372 N 
HETATM   13  C1  UNL     1       7.463  35.382  79.657  1.00  0.00     0.154 C 
BRANCH  12  14
HETATM   14  C17 UNL     1       6.238  37.335  78.828  1.00  0.00     0.070 C 
BRANCH  14  15
HETATM   15  C18 UNL     1       4.825  37.749  78.670  1.00  0.00     0.055 C 
HETATM   16  C19 UNL     1       3.969  37.167  79.763  1.00  0.00     0.014 C 
HETATM   17  C20 UNL     1       2.957  38.236  80.143  1.00  0.00     0.036 C 
HETATM   18  C21 UNL     1       3.125  39.278  79.094  1.00  0.00     0.212 C 
HETATM   19  C22 UNL     1       4.625  39.267  78.824  1.00  0.00     0.157 C 
BRANCH  18  20
HETATM   20  N3  UNL     1       2.736  40.596  79.523  1.00  0.00    -0.073 N 
ATOM     21  H33 UNL     1       2.462  40.590  80.505  1.00  0.00     0.274 HD
ATOM     22  H32 UNL     1       3.548  41.212  79.576  1.00  0.00     0.274 HD
ATOM     23  H31 UNL     1       2.005  41.015  78.948  1.00  0.00     0.274 HD
ENDBRANCH  18  20
BRANCH  19  24
HETATM   24  O1  UNL     1       4.850  39.946  77.650  1.00  0.00    -0.393 OA
ATOM     25  H1  UNL     1       4.886  40.887  77.778  1.00  0.00     0.210 HD
ENDBRANCH  19  24
ENDBRANCH  14  15
ENDBRANCH  12  14
ENDBRANCH  11  12
ENDBRANCH   1  11
BRANCH  10  26
HETATM   26  C11 UNL     1       8.792  36.167  76.223  1.00  0.00     0.090 C 
HETATM   27  C12 UNL     1      10.253  36.134  75.938  1.00  0.00     0.026 C 
HETATM   28  C13 UNL     1      10.790  37.266  75.145  1.00  0.00     0.002 C 
HETATM   29  C14 UNL     1       9.879  37.792  74.073  1.00  0.00     0.000 C 
HETATM   30  C15 UNL     1       8.582  38.171  74.727  1.00  0.00     0.002 C 
HETATM   31  C16 UNL     1       7.942  36.922  75.275  1.00  0.00     0.026 C 
ENDBRANCH  10  26
TORSDOF 7
ENDMDL
