MODEL 1
REMARK VINA RESULT: -8.055577553      0.000      0.000
REMARK  5 active torsions:
REMARK  status: ('A' for Active; 'I' for Inactive)
REMARK    1  A    between atoms: O1_2  and  C2_3 
REMARK    2  A    between atoms: C6_8  and  N1_9 
REMARK    3  A    between atoms: C9_13  and  C10_14 
REMARK    4  A    between atoms: C10_14  and  N2_15 
REMARK    5  A    between atoms: N2_15  and  C11_18 
ROOT
HETATM    1  N1  UNL     1       5.277  37.795  77.356  1.00  0.00    -0.342 N 
ATOM      2  H1  UNL     1       5.181  37.959  76.354  1.00  0.00     0.167 HD
HETATM    3  C7  UNL     1       6.191  36.984  77.770  1.00  0.00     0.108 A 
HETATM    4  C8  UNL     1       7.023  36.352  76.873  1.00  0.00     0.075 A 
HETATM    5  C9  UNL     1       7.995  35.488  77.331  1.00  0.00     0.039 A 
HETATM    6  N3  UNL     1       8.070  35.312  78.671  1.00  0.00    -0.354 N 
ATOM      7  H3  UNL     1       8.777  34.679  79.043  1.00  0.00     0.166 HD
HETATM    8  C21 UNL     1       7.250  35.936  79.527  1.00  0.00     0.182 A 
HETATM    9  N4  UNL     1       6.297  36.781  79.101  1.00  0.00    -0.339 N 
ATOM     10  H4  UNL     1       5.676  37.253  79.759  1.00  0.00     0.168 HD
ENDROOT
BRANCH   5  11
HETATM   11  C10 UNL     1       8.922  34.777  76.398  1.00  0.00     0.290 C 
BRANCH  11  12
HETATM   12  N2  UNL     1       8.965  33.393  76.801  1.00  0.00    -0.061 N 
ATOM     13  H22 UNL     1       9.911  33.122  77.068  1.00  0.00     0.278 HD
ATOM     14  H21 UNL     1       8.493  33.261  77.696  1.00  0.00     0.278 HD
BRANCH  12  15
HETATM   15  C11 UNL     1       8.437  32.496  75.805  1.00  0.00     0.127 C 
HETATM   16  C12 UNL     1       7.279  33.097  75.081  1.00  0.00     0.043 C 
HETATM   17  C13 UNL     1       6.657  32.089  74.135  1.00  0.00    -0.012 C 
HETATM   18  C14 UNL     1       6.180  30.869  74.859  1.00  0.00     0.009 C 
HETATM   19  C18 UNL     1       7.690  31.651  73.124  1.00  0.00     0.009 C 
HETATM   20  C15 UNL     1       7.346  30.241  75.592  1.00  0.00    -0.012 C 
HETATM   21  C16 UNL     1       8.445  29.823  74.628  1.00  0.00     0.009 C 
HETATM   22  C20 UNL     1       7.953  31.256  76.534  1.00  0.00     0.043 C 
HETATM   23  C17 UNL     1       8.864  31.064  73.875  1.00  0.00    -0.012 C 
HETATM   24  C19 UNL     1       9.486  32.054  74.811  1.00  0.00     0.043 C 
ENDBRANCH  12  15
ENDBRANCH  11  12
ENDBRANCH   5  11
BRANCH   1  25
HETATM   25  C6  UNL     1       4.398  38.467  78.248  1.00  0.00     0.037 A 
HETATM   26  C5  UNL     1       4.530  39.832  78.386  1.00  0.00     0.053 A 
HETATM   27  C4  UNL     1       3.699  40.523  79.239  1.00  0.00     0.038 A 
HETATM   28  C3  UNL     1       2.719  39.841  79.968  1.00  0.00     0.060 A 
HETATM   29 CL1  UNL     1       3.867  42.261  79.414  1.00  0.00    -0.084 Cl
HETATM   30  C2  UNL     1       2.574  38.484  79.844  1.00  0.00     0.071 A 
HETATM   31  C22 UNL     1       3.429  37.822  78.975  1.00  0.00     0.066 A 
BRANCH  30  32
HETATM   32  O1  UNL     1       1.619  37.743  80.540  1.00  0.00    -0.356 OA
HETATM   33  C1  UNL     1       1.619  36.360  80.647  1.00  0.00     0.210 C 
ENDBRANCH  30  32
ENDBRANCH   1  25
TORSDOF 5
ENDMDL
MODEL 2
REMARK VINA RESULT: -8.036001443      0.244      1.342
REMARK  5 active torsions:
REMARK  status: ('A' for Active; 'I' for Inactive)
REMARK    1  A    between atoms: O1_2  and  C2_3 
REMARK    2  A    between atoms: C6_8  and  N1_9 
REMARK    3  A    between atoms: C9_13  and  C10_14 
REMARK    4  A    between atoms: C10_14  and  N2_15 
REMARK    5  A    between atoms: N2_15  and  C11_18 
ROOT
HETATM    1  N1  UNL     1       5.324  37.885  77.265  1.00  0.00    -0.342 N 
ATOM      2  H1  UNL     1       5.231  38.090  76.270  1.00  0.00     0.167 HD
HETATM    3  C7  UNL     1       6.253  37.078  77.650  1.00  0.00     0.108 A 
HETATM    4  C8  UNL     1       7.105  36.504  76.732  1.00  0.00     0.075 A 
HETATM    5  C9  UNL     1       8.093  35.643  77.160  1.00  0.00     0.039 A 
HETATM    6  N3  UNL     1       8.164  35.410  78.492  1.00  0.00    -0.354 N 
ATOM      7  H3  UNL     1       8.883  34.778  78.841  1.00  0.00     0.166 HD
HETATM    8  C21 UNL     1       7.326  35.979  79.368  1.00  0.00     0.182 A 
HETATM    9  N4  UNL     1       6.356  36.821  78.972  1.00  0.00    -0.339 N 
ATOM     10  H4  UNL     1       5.721  37.250  79.645  1.00  0.00     0.168 HD
ENDROOT
BRANCH   5  11
HETATM   11  C10 UNL     1       9.042  34.993  76.203  1.00  0.00     0.290 C 
BRANCH  11  12
HETATM   12  N2  UNL     1       9.250  33.639  76.652  1.00  0.00    -0.061 N 
ATOM     13  H22 UNL     1      10.244  33.414  76.679  1.00  0.00     0.278 HD
ATOM     14  H21 UNL     1       9.031  33.548  77.645  1.00  0.00     0.278 HD
BRANCH  12  15
HETATM   15  C11 UNL     1       8.524  32.666  75.876  1.00  0.00     0.127 C 
HETATM   16  C12 UNL     1       7.896  31.627  76.743  1.00  0.00     0.043 C 
HETATM   17  C13 UNL     1       7.253  30.543  75.900  1.00  0.00    -0.012 C 
HETATM   18  C14 UNL     1       8.248  29.873  75.004  1.00  0.00     0.009 C 
HETATM   19  C18 UNL     1       6.186  31.159  75.026  1.00  0.00     0.009 C 
HETATM   20  C15 UNL     1       8.887  30.914  74.110  1.00  0.00    -0.012 C 
HETATM   21  C16 UNL     1       7.853  31.606  73.239  1.00  0.00     0.009 C 
HETATM   22  C20 UNL     1       9.528  31.985  74.964  1.00  0.00     0.043 C 
HETATM   23  C17 UNL     1       6.835  32.223  74.169  1.00  0.00    -0.012 C 
HETATM   24  C19 UNL     1       7.472  33.299  74.995  1.00  0.00     0.043 C 
ENDBRANCH  12  15
ENDBRANCH  11  12
ENDBRANCH   5  11
BRANCH   1  25
HETATM   25  C6  UNL     1       4.426  38.500  78.179  1.00  0.00     0.037 A 
HETATM   26  C5  UNL     1       4.504  39.865  78.351  1.00  0.00     0.053 A 
HETATM   27  C4  UNL     1       3.651  40.500  79.226  1.00  0.00     0.038 A 
HETATM   28  C3  UNL     1       2.704  39.761  79.943  1.00  0.00     0.060 A 
HETATM   29 CL1  UNL     1       3.751  42.238  79.445  1.00  0.00    -0.084 Cl
HETATM   30  C2  UNL     1       2.613  38.403  79.785  1.00  0.00     0.071 A 
HETATM   31  C22 UNL     1       3.487  37.798  78.895  1.00  0.00     0.066 A 
BRANCH  30  32
HETATM   32  O1  UNL     1       1.693  37.607  80.468  1.00  0.00    -0.356 OA
HETATM   33  C1  UNL     1       1.824  36.239  80.661  1.00  0.00     0.210 C 
ENDBRANCH  30  32
ENDBRANCH   1  25
TORSDOF 5
ENDMDL
MODEL 3
REMARK VINA RESULT: -7.920746614      0.689      1.620
REMARK  5 active torsions:
REMARK  status: ('A' for Active; 'I' for Inactive)
REMARK    1  A    between atoms: O1_2  and  C2_3 
REMARK    2  A    between atoms: C6_8  and  N1_9 
REMARK    3  A    between atoms: C9_13  and  C10_14 
REMARK    4  A    between atoms: C10_14  and  N2_15 
REMARK    5  A    between atoms: N2_15  and  C11_18 
ROOT
HETATM    1  N1  UNL     1       5.273  37.761  77.601  1.00  0.00    -0.342 N 
ATOM      2  H1  UNL     1       5.225  37.883  76.590  1.00  0.00     0.167 HD
HETATM    3  C7  UNL     1       6.183  36.989  78.093  1.00  0.00     0.108 A 
HETATM    4  C8  UNL     1       7.073  36.343  77.264  1.00  0.00     0.075 A 
HETATM    5  C9  UNL     1       8.039  35.521  77.804  1.00  0.00     0.039 A 
HETATM    6  N3  UNL     1       8.050  35.399  79.153  1.00  0.00    -0.354 N 
ATOM      7  H3  UNL     1       8.752  34.799  79.585  1.00  0.00     0.166 HD
HETATM    8  C21 UNL     1       7.175  36.036  79.941  1.00  0.00     0.182 A 
HETATM    9  N4  UNL     1       6.226  36.842  79.435  1.00  0.00    -0.339 N 
ATOM     10  H4  UNL     1       5.563  37.324  80.042  1.00  0.00     0.168 HD
ENDROOT
BRANCH   5  11
HETATM   11  C10 UNL     1       9.028  34.797  76.948  1.00  0.00     0.290 C 
BRANCH  11  12
HETATM   12  N2  UNL     1       8.324  34.320  75.782  1.00  0.00    -0.061 N 
ATOM     13  H22 UNL     1       7.332  34.549  75.839  1.00  0.00     0.278 HD
ATOM     14  H21 UNL     1       8.576  34.866  74.958  1.00  0.00     0.278 HD
BRANCH  12  15
HETATM   15  C11 UNL     1       8.513  32.913  75.543  1.00  0.00     0.127 C 
HETATM   16  C12 UNL     1       9.932  32.596  75.209  1.00  0.00     0.043 C 
HETATM   17  C13 UNL     1      10.081  31.135  74.831  1.00  0.00    -0.012 C 
HETATM   18  C14 UNL     1       9.228  30.777  73.654  1.00  0.00     0.009 C 
HETATM   19  C18 UNL     1       9.649  30.273  75.993  1.00  0.00     0.009 C 
HETATM   20  C15 UNL     1       7.782  31.084  73.980  1.00  0.00    -0.012 C 
HETATM   21  C16 UNL     1       7.302  30.280  75.177  1.00  0.00     0.009 C 
HETATM   22  C20 UNL     1       7.648  32.543  74.351  1.00  0.00     0.043 C 
HETATM   23  C17 UNL     1       8.216  30.620  76.330  1.00  0.00    -0.012 C 
HETATM   24  C19 UNL     1       8.061  32.062  76.708  1.00  0.00     0.043 C 
ENDBRANCH  12  15
ENDBRANCH  11  12
ENDBRANCH   5  11
BRANCH   1  25
HETATM   25  C6  UNL     1       4.336  38.447  78.421  1.00  0.00     0.037 A 
HETATM   26  C5  UNL     1       4.439  39.818  78.520  1.00  0.00     0.053 A 
HETATM   27  C4  UNL     1       3.551  40.521  79.303  1.00  0.00     0.038 A 
HETATM   28  C3  UNL     1       2.543  39.846  79.999  1.00  0.00     0.060 A 
HETATM   29 CL1  UNL     1       3.682  42.266  79.429  1.00  0.00    -0.084 Cl
HETATM   30  C2  UNL     1       2.426  38.483  79.912  1.00  0.00     0.071 A 
HETATM   31  C22 UNL     1       3.338  37.809  79.115  1.00  0.00     0.066 A 
BRANCH  30  32
HETATM   32  O1  UNL     1       1.446  37.749  80.580  1.00  0.00    -0.356 OA
HETATM   33  C1  UNL     1       1.416  36.364  80.660  1.00  0.00     0.210 C 
ENDBRANCH  30  32
ENDBRANCH   1  25
TORSDOF 5
ENDMDL
MODEL 4
REMARK VINA RESULT: -7.874195919      3.831      6.254
REMARK  5 active torsions:
REMARK  status: ('A' for Active; 'I' for Inactive)
REMARK    1  A    between atoms: O1_2  and  C2_3 
REMARK    2  A    between atoms: C6_8  and  N1_9 
REMARK    3  A    between atoms: C9_13  and  C10_14 
REMARK    4  A    between atoms: C10_14  and  N2_15 
REMARK    5  A    between atoms: N2_15  and  C11_18 
ROOT
HETATM    1  N1  UNL     1       8.903  33.789  76.564  1.00  0.00    -0.342 N 
ATOM      2  H1  UNL     1       9.694  33.654  77.195  1.00  0.00     0.167 HD
HETATM    3  C7  UNL     1       8.619  32.862  75.714  1.00  0.00     0.108 A 
HETATM    4  C8  UNL     1       9.370  31.708  75.661  1.00  0.00     0.075 A 
HETATM    5  C9  UNL     1       9.053  30.727  74.746  1.00  0.00     0.039 A 
HETATM    6  N3  UNL     1       7.995  30.967  73.937  1.00  0.00    -0.354 N 
ATOM      7  H3  UNL     1       7.734  30.261  73.249  1.00  0.00     0.166 HD
HETATM    8  C21 UNL     1       7.278  32.096  74.004  1.00  0.00     0.182 A 
HETATM    9  N4  UNL     1       7.570  33.065  74.888  1.00  0.00    -0.339 N 
ATOM     10  H4  UNL     1       7.019  33.922  74.933  1.00  0.00     0.168 HD
ENDROOT
BRANCH   5  11
HETATM   11  C10 UNL     1       9.838  29.457  74.649  1.00  0.00     0.290 C 
BRANCH  11  12
HETATM   12  N2  UNL     1      11.132  29.702  75.236  1.00  0.00    -0.061 N 
ATOM     13  H22 UNL     1      11.104  30.516  75.850  1.00  0.00     0.278 HD
ATOM     14  H21 UNL     1      11.361  28.982  75.922  1.00  0.00     0.278 HD
BRANCH  12  15
HETATM   15  C11 UNL     1      12.182  29.832  74.259  1.00  0.00     0.127 C 
HETATM   16  C12 UNL     1      11.877  29.065  73.016  1.00  0.00     0.043 C 
HETATM   17  C13 UNL     1      13.051  29.107  72.058  1.00  0.00    -0.012 C 
HETATM   18  C14 UNL     1      14.290  28.536  72.673  1.00  0.00     0.009 C 
HETATM   19  C18 UNL     1      13.340  30.543  71.686  1.00  0.00     0.009 C 
HETATM   20  C15 UNL     1      14.619  29.310  73.931  1.00  0.00    -0.012 C 
HETATM   21  C16 UNL     1      14.873  30.777  73.628  1.00  0.00     0.009 C 
HETATM   22  C20 UNL     1      13.442  29.256  74.878  1.00  0.00     0.043 C 
HETATM   23  C17 UNL     1      13.627  31.309  72.958  1.00  0.00    -0.012 C 
HETATM   24  C19 UNL     1      12.471  31.274  73.910  1.00  0.00     0.043 C 
ENDBRANCH  12  15
ENDBRANCH  11  12
ENDBRANCH   5  11
BRANCH   1  25
HETATM   25  C6  UNL     1       8.154  34.994  76.652  1.00  0.00     0.037 A 
HETATM   26  C5  UNL     1       7.182  35.086  77.625  1.00  0.00     0.053 A 
HETATM   27  C4  UNL     1       6.434  36.236  77.745  1.00  0.00     0.038 A 
HETATM   28  C3  UNL     1       6.658  37.312  76.880  1.00  0.00     0.060 A 
HETATM   29 CL1  UNL     1       5.197  36.353  78.984  1.00  0.00    -0.084 Cl
HETATM   30  C2  UNL     1       7.619  37.237  75.907  1.00  0.00     0.071 A 
HETATM   31  C22 UNL     1       8.353  36.065  75.816  1.00  0.00     0.066 A 
BRANCH  30  32
HETATM   32  O1  UNL     1       7.894  38.272  75.012  1.00  0.00    -0.356 OA
HETATM   33  C1  UNL     1       9.089  38.423  74.324  1.00  0.00     0.210 C 
ENDBRANCH  30  32
ENDBRANCH   1  25
TORSDOF 5
ENDMDL
MODEL 5
REMARK VINA RESULT: -7.859356794      3.864      6.383
REMARK  5 active torsions:
REMARK  status: ('A' for Active; 'I' for Inactive)
REMARK    1  A    between atoms: O1_2  and  C2_3 
REMARK    2  A    between atoms: C6_8  and  N1_9 
REMARK    3  A    between atoms: C9_13  and  C10_14 
REMARK    4  A    between atoms: C10_14  and  N2_15 
REMARK    5  A    between atoms: N2_15  and  C11_18 
ROOT
HETATM    1  N1  UNL     1       8.952  33.758  76.410  1.00  0.00    -0.342 N 
ATOM      2  H1  UNL     1       9.790  33.636  76.978  1.00  0.00     0.167 HD
HETATM    3  C7  UNL     1       8.615  32.823  75.587  1.00  0.00     0.108 A 
HETATM    4  C8  UNL     1       9.376  31.680  75.480  1.00  0.00     0.075 A 
HETATM    5  C9  UNL     1       9.004  30.690  74.596  1.00  0.00     0.039 A 
HETATM    6  N3  UNL     1       7.883  30.912  73.870  1.00  0.00    -0.354 N 
ATOM      7  H3  UNL     1       7.579  30.200  73.206  1.00  0.00     0.166 HD
HETATM    8  C21 UNL     1       7.157  32.031  73.989  1.00  0.00     0.182 A 
HETATM    9  N4  UNL     1       7.503  33.008  74.844  1.00  0.00    -0.339 N 
ATOM     10  H4  UNL     1       6.945  33.858  74.930  1.00  0.00     0.168 HD
ENDROOT
BRANCH   5  11
HETATM   11  C10 UNL     1       9.796  29.431  74.441  1.00  0.00     0.290 C 
BRANCH  11  12
HETATM   12  N2  UNL     1      11.051  29.623  75.125  1.00  0.00    -0.061 N 
ATOM     13  H22 UNL     1      11.022  30.458  75.710  1.00  0.00     0.278 HD
ATOM     14  H21 UNL     1      11.182  28.916  75.849  1.00  0.00     0.278 HD
BRANCH  12  15
HETATM   15  C11 UNL     1      12.182  29.660  74.234  1.00  0.00     0.127 C 
HETATM   16  C12 UNL     1      13.355  28.933  74.802  1.00  0.00     0.043 C 
HETATM   17  C13 UNL     1      14.571  29.099  73.911  1.00  0.00    -0.012 C 
HETATM   18  C14 UNL     1      14.944  30.539  73.743  1.00  0.00     0.009 C 
HETATM   19  C18 UNL     1      14.266  28.538  72.542  1.00  0.00     0.009 C 
HETATM   20  C15 UNL     1      13.766  31.289  73.158  1.00  0.00    -0.012 C 
HETATM   21  C16 UNL     1      13.379  30.736  71.797  1.00  0.00     0.009 C 
HETATM   22  C20 UNL     1      12.564  31.119  74.058  1.00  0.00     0.043 C 
HETATM   23  C17 UNL     1      13.063  29.271  71.991  1.00  0.00    -0.012 C 
HETATM   24  C19 UNL     1      11.857  29.111  72.864  1.00  0.00     0.043 C 
ENDBRANCH  12  15
ENDBRANCH  11  12
ENDBRANCH   5  11
BRANCH   1  25
HETATM   25  C6  UNL     1       8.194  34.952  76.552  1.00  0.00     0.037 A 
HETATM   26  C5  UNL     1       7.244  35.006  77.549  1.00  0.00     0.053 A 
HETATM   27  C4  UNL     1       6.489  36.145  77.722  1.00  0.00     0.038 A 
HETATM   28  C3  UNL     1       6.685  37.249  76.886  1.00  0.00     0.060 A 
HETATM   29 CL1  UNL     1       5.280  36.212  78.991  1.00  0.00    -0.084 Cl
HETATM   30  C2  UNL     1       7.624  37.212  75.889  1.00  0.00     0.071 A 
HETATM   31  C22 UNL     1       8.365  36.050  75.745  1.00  0.00     0.066 A 
BRANCH  30  32
HETATM   32  O1  UNL     1       7.869  38.277  75.021  1.00  0.00    -0.356 OA
HETATM   33  C1  UNL     1       9.036  38.444  74.289  1.00  0.00     0.210 C 
ENDBRANCH  30  32
ENDBRANCH   1  25
TORSDOF 5
ENDMDL
