MODEL 1
REMARK VINA RESULT: -8.602827987      0.000      0.000
REMARK  11 active torsions:
REMARK  status: ('A' for Active; 'I' for Inactive)
REMARK    1  A    between atoms: C3_3  and  C4_4 
REMARK    2  A    between atoms: C4_4  and  C5_5 
REMARK    3  A    between atoms: C5_5  and  C6_6 
REMARK    4  A    between atoms: C6_6  and  C7_7 
REMARK    5  A    between atoms: C7_7  and  C8_8 
REMARK    6  A    between atoms: C9_9  and  C10_10 
REMARK    7  A    between atoms: C10_10  and  C11_11 
REMARK    8  A    between atoms: C13_14  and  C14_15 
REMARK    9  A    between atoms: C14_15  and  C15_16 
REMARK   10  A    between atoms: C15_16  and  N1_17 
REMARK   11  A    between atoms: C21_29  and  O4_30 
ROOT
HETATM    1  C1  UNL     1      28.271  42.868  34.619  1.00  0.00     0.012 C 
HETATM    2  C2  UNL     1      28.479  43.820  33.890  1.00  0.00    -0.117 C 
HETATM    3  C3  UNL     1      28.714  44.971  33.009  1.00  0.00     0.093 C 
ENDROOT
BRANCH   3   4
HETATM    4  C4  UNL     1      29.932  45.746  33.478  1.00  0.00     0.012 C 
BRANCH   4   5
HETATM    5  C5  UNL     1      29.507  47.009  34.218  1.00  0.00     0.001 C 
BRANCH   5   6
HETATM    6  C6  UNL     1      30.119  47.088  35.575  1.00  0.00     0.004 C 
BRANCH   6   7
HETATM    7  C7  UNL     1      29.032  47.118  36.617  1.00  0.00     0.027 C 
BRANCH   7   8
HETATM    8  C8  UNL     1      28.775  45.732  37.087  1.00  0.00    -0.031 C 
HETATM    9  C9  UNL     1      29.803  44.999  37.498  1.00  0.00    -0.028 C 
BRANCH   9  10
HETATM   10  C10 UNL     1      29.632  43.579  37.992  1.00  0.00     0.059 C 
BRANCH  10  11
HETATM   11  C11 UNL     1      30.493  43.438  39.245  1.00  0.00     0.131 C 
HETATM   12  O1  UNL     1      29.894  42.602  40.143  1.00  0.00    -0.385 OA
HETATM   13  C12 UNL     1      30.282  41.296  40.169  1.00  0.00     0.173 C 
HETATM   14  C13 UNL     1      31.755  41.044  40.047  1.00  0.00     0.016 C 
HETATM   15  C18 UNL     1      32.557  42.302  40.043  1.00  0.00     0.001 C 
HETATM   16  C19 UNL     1      33.937  42.157  39.482  1.00  0.00     0.008 C 
HETATM   17  C22 UNL     1      31.933  43.246  39.002  1.00  0.00     0.048 C 
HETATM   18  C20 UNL     1      33.739  42.106  38.004  1.00  0.00     0.032 C 
HETATM   19  C21 UNL     1      32.385  42.736  37.698  1.00  0.00     0.125 C 
BRANCH  14  20
HETATM   20  C14 UNL     1      32.219  40.074  41.116  1.00  0.00     0.029 C 
BRANCH  20  21
HETATM   21  C15 UNL     1      31.466  40.406  42.371  1.00  0.00     0.154 C 
BRANCH  21  22
HETATM   22  N1  UNL     1      32.347  40.609  43.508  1.00  0.00    -0.238 N 
HETATM   23  N2  UNL     1      33.584  40.185  43.702  1.00  0.00    -0.245 N 
HETATM   24  C16 UNL     1      33.974  40.632  44.913  1.00  0.00     0.343 A 
ATOM     25  H2  UNL     1      34.140  39.623  43.057  1.00  0.00     0.192 HD
HETATM   26  O2  UNL     1      35.097  40.406  45.405  1.00  0.00    -0.245 OA
HETATM   27  N3  UNL     1      32.972  41.329  45.457  1.00  0.00    -0.258 N 
HETATM   28  C17 UNL     1      31.961  41.316  44.584  1.00  0.00     0.345 A 
ATOM     29  H3  UNL     1      32.979  41.787  46.369  1.00  0.00     0.175 HD
HETATM   30  O3  UNL     1      30.833  41.887  44.772  1.00  0.00    -0.245 OA
ENDBRANCH  21  22
ENDBRANCH  20  21
ENDBRANCH  14  20
BRANCH  19  31
HETATM   31  O4  UNL     1      31.630  41.810  37.053  1.00  0.00    -0.395 OA
ATOM     32  H4  UNL     1      30.738  42.134  37.019  1.00  0.00     0.210 HD
ENDBRANCH  19  31
ENDBRANCH  10  11
ENDBRANCH   9  10
ENDBRANCH   7   8
ENDBRANCH   6   7
ENDBRANCH   5   6
ENDBRANCH   4   5
ENDBRANCH   3   4
TORSDOF 11
ENDMDL
MODEL 2
REMARK VINA RESULT: -8.577003375      1.170      1.830
REMARK  11 active torsions:
REMARK  status: ('A' for Active; 'I' for Inactive)
REMARK    1  A    between atoms: C3_3  and  C4_4 
REMARK    2  A    between atoms: C4_4  and  C5_5 
REMARK    3  A    between atoms: C5_5  and  C6_6 
REMARK    4  A    between atoms: C6_6  and  C7_7 
REMARK    5  A    between atoms: C7_7  and  C8_8 
REMARK    6  A    between atoms: C9_9  and  C10_10 
REMARK    7  A    between atoms: C10_10  and  C11_11 
REMARK    8  A    between atoms: C13_14  and  C14_15 
REMARK    9  A    between atoms: C14_15  and  C15_16 
REMARK   10  A    between atoms: C15_16  and  N1_17 
REMARK   11  A    between atoms: C21_29  and  O4_30 
ROOT
HETATM    1  C1  UNL     1      29.608  48.472  30.446  1.00  0.00     0.012 C 
HETATM    2  C2  UNL     1      29.983  48.018  31.512  1.00  0.00    -0.117 C 
HETATM    3  C3  UNL     1      30.436  47.484  32.802  1.00  0.00     0.093 C 
ENDROOT
BRANCH   3   4
HETATM    4  C4  UNL     1      29.739  46.168  33.096  1.00  0.00     0.012 C 
BRANCH   4   5
HETATM    5  C5  UNL     1      29.575  45.976  34.599  1.00  0.00     0.001 C 
BRANCH   5   6
HETATM    6  C6  UNL     1      29.349  47.271  35.302  1.00  0.00     0.004 C 
BRANCH   6   7
HETATM    7  C7  UNL     1      29.086  47.013  36.761  1.00  0.00     0.027 C 
BRANCH   7   8
HETATM    8  C8  UNL     1      28.977  45.547  36.981  1.00  0.00    -0.031 C 
HETATM    9  C9  UNL     1      29.707  44.992  37.941  1.00  0.00    -0.028 C 
BRANCH   9  10
HETATM   10  C10 UNL     1      29.657  43.508  38.232  1.00  0.00     0.059 C 
BRANCH  10  11
HETATM   11  C11 UNL     1      30.492  43.274  39.488  1.00  0.00     0.131 C 
HETATM   12  O1  UNL     1      29.895  42.345  40.291  1.00  0.00    -0.385 OA
HETATM   13  C12 UNL     1      30.317  41.052  40.208  1.00  0.00     0.173 C 
HETATM   14  C13 UNL     1      31.799  40.848  40.101  1.00  0.00     0.016 C 
HETATM   15  C18 UNL     1      32.566  42.121  40.233  1.00  0.00     0.001 C 
HETATM   16  C19 UNL     1      33.963  42.061  39.696  1.00  0.00     0.008 C 
HETATM   17  C22 UNL     1      31.942  43.140  39.266  1.00  0.00     0.048 C 
HETATM   18  C20 UNL     1      33.801  42.140  38.215  1.00  0.00     0.032 C 
HETATM   19  C21 UNL     1      32.438  42.763  37.933  1.00  0.00     0.125 C 
BRANCH  14  20
HETATM   20  C14 UNL     1      32.263  39.796  41.090  1.00  0.00     0.029 C 
BRANCH  20  21
HETATM   21  C15 UNL     1      31.277  39.786  42.221  1.00  0.00     0.154 C 
BRANCH  21  22
HETATM   22  N1  UNL     1      31.855  40.273  43.462  1.00  0.00    -0.238 N 
HETATM   23  N2  UNL     1      32.797  39.739  44.221  1.00  0.00    -0.245 N 
HETATM   24  C16 UNL     1      32.985  40.569  45.266  1.00  0.00     0.343 A 
ATOM     25  H2  UNL     1      33.288  38.862  44.048  1.00  0.00     0.192 HD
HETATM   26  O2  UNL     1      33.811  40.357  46.177  1.00  0.00    -0.245 OA
HETATM   27  N3  UNL     1      32.157  41.610  45.145  1.00  0.00    -0.258 N 
HETATM   28  C17 UNL     1      31.455  41.428  44.023  1.00  0.00     0.345 A 
ATOM     29  H3  UNL     1      32.076  42.398  45.788  1.00  0.00     0.175 HD
HETATM   30  O3  UNL     1      30.561  42.231  43.587  1.00  0.00    -0.245 OA
ENDBRANCH  21  22
ENDBRANCH  20  21
ENDBRANCH  14  20
BRANCH  19  31
HETATM   31  O4  UNL     1      31.723  41.882  37.187  1.00  0.00    -0.395 OA
ATOM     32  H4  UNL     1      30.825  41.899  37.497  1.00  0.00     0.210 HD
ENDBRANCH  19  31
ENDBRANCH  10  11
ENDBRANCH   9  10
ENDBRANCH   7   8
ENDBRANCH   6   7
ENDBRANCH   5   6
ENDBRANCH   4   5
ENDBRANCH   3   4
TORSDOF 11
ENDMDL
MODEL 3
REMARK VINA RESULT: -8.212984027      1.425      3.022
REMARK  11 active torsions:
REMARK  status: ('A' for Active; 'I' for Inactive)
REMARK    1  A    between atoms: C3_3  and  C4_4 
REMARK    2  A    between atoms: C4_4  and  C5_5 
REMARK    3  A    between atoms: C5_5  and  C6_6 
REMARK    4  A    between atoms: C6_6  and  C7_7 
REMARK    5  A    between atoms: C7_7  and  C8_8 
REMARK    6  A    between atoms: C9_9  and  C10_10 
REMARK    7  A    between atoms: C10_10  and  C11_11 
REMARK    8  A    between atoms: C13_14  and  C14_15 
REMARK    9  A    between atoms: C14_15  and  C15_16 
REMARK   10  A    between atoms: C15_16  and  N1_17 
REMARK   11  A    between atoms: C21_29  and  O4_30 
ROOT
HETATM    1  C1  UNL     1      28.288  47.684  38.636  1.00  0.00     0.012 C 
HETATM    2  C2  UNL     1      28.136  47.376  37.469  1.00  0.00    -0.117 C 
HETATM    3  C3  UNL     1      27.938  47.012  36.060  1.00  0.00     0.093 C 
ENDROOT
BRANCH   3   4
HETATM    4  C4  UNL     1      29.275  46.961  35.343  1.00  0.00     0.012 C 
BRANCH   4   5
HETATM    5  C5  UNL     1      29.456  45.616  34.648  1.00  0.00     0.001 C 
BRANCH   5   6
HETATM    6  C6  UNL     1      28.250  44.752  34.791  1.00  0.00     0.004 C 
BRANCH   6   7
HETATM    7  C7  UNL     1      28.663  43.388  35.276  1.00  0.00     0.027 C 
BRANCH   7   8
HETATM    8  C8  UNL     1      29.639  43.544  36.386  1.00  0.00    -0.031 C 
HETATM    9  C9  UNL     1      29.185  43.584  37.632  1.00  0.00    -0.028 C 
BRANCH   9  10
HETATM   10  C10 UNL     1      30.108  43.742  38.820  1.00  0.00     0.059 C 
BRANCH  10  11
HETATM   11  C11 UNL     1      31.185  42.667  38.690  1.00  0.00     0.131 C 
HETATM   12  O1  UNL     1      32.426  43.215  38.846  1.00  0.00    -0.385 OA
HETATM   13  C12 UNL     1      33.015  43.145  40.072  1.00  0.00     0.173 C 
HETATM   14  C13 UNL     1      32.871  41.842  40.799  1.00  0.00     0.016 C 
HETATM   15  C18 UNL     1      32.199  40.794  39.976  1.00  0.00     0.001 C 
HETATM   16  C19 UNL     1      31.629  39.657  40.764  1.00  0.00     0.008 C 
HETATM   17  C22 UNL     1      30.910  41.409  39.406  1.00  0.00     0.048 C 
HETATM   18  C20 UNL     1      30.374  40.202  41.359  1.00  0.00     0.032 C 
HETATM   19  C21 UNL     1      29.954  41.406  40.524  1.00  0.00     0.125 C 
BRANCH  14  20
HETATM   20  C14 UNL     1      34.214  41.377  41.329  1.00  0.00     0.029 C 
BRANCH  20  21
HETATM   21  C15 UNL     1      34.610  42.326  42.422  1.00  0.00     0.154 C 
BRANCH  21  22
HETATM   22  N1  UNL     1      34.360  41.779  43.746  1.00  0.00    -0.238 N 
HETATM   23  N2  UNL     1      35.207  41.264  44.619  1.00  0.00    -0.245 N 
HETATM   24  C16 UNL     1      34.491  40.895  45.700  1.00  0.00     0.343 A 
ATOM     25  H2  UNL     1      36.215  41.164  44.498  1.00  0.00     0.192 HD
HETATM   26  O2  UNL     1      34.992  40.371  46.715  1.00  0.00    -0.245 OA
HETATM   27  N3  UNL     1      33.205  41.185  45.484  1.00  0.00    -0.258 N 
HETATM   28  C17 UNL     1      33.122  41.735  44.270  1.00  0.00     0.345 A 
ATOM     29  H3  UNL     1      32.430  41.018  46.127  1.00  0.00     0.175 HD
HETATM   30  O3  UNL     1      32.037  42.138  43.728  1.00  0.00    -0.245 OA
ENDBRANCH  21  22
ENDBRANCH  20  21
ENDBRANCH  14  20
BRANCH  19  31
HETATM   31  O4  UNL     1      29.896  42.485  41.346  1.00  0.00    -0.395 OA
ATOM     32  H4  UNL     1      30.740  42.920  41.316  1.00  0.00     0.210 HD
ENDBRANCH  19  31
ENDBRANCH  10  11
ENDBRANCH   9  10
ENDBRANCH   7   8
ENDBRANCH   6   7
ENDBRANCH   5   6
ENDBRANCH   4   5
ENDBRANCH   3   4
TORSDOF 11
ENDMDL
MODEL 4
REMARK VINA RESULT: -8.183391971      1.654      2.629
REMARK  11 active torsions:
REMARK  status: ('A' for Active; 'I' for Inactive)
REMARK    1  A    between atoms: C3_3  and  C4_4 
REMARK    2  A    between atoms: C4_4  and  C5_5 
REMARK    3  A    between atoms: C5_5  and  C6_6 
REMARK    4  A    between atoms: C6_6  and  C7_7 
REMARK    5  A    between atoms: C7_7  and  C8_8 
REMARK    6  A    between atoms: C9_9  and  C10_10 
REMARK    7  A    between atoms: C10_10  and  C11_11 
REMARK    8  A    between atoms: C13_14  and  C14_15 
REMARK    9  A    between atoms: C14_15  and  C15_16 
REMARK   10  A    between atoms: C15_16  and  N1_17 
REMARK   11  A    between atoms: C21_29  and  O4_30 
ROOT
HETATM    1  C1  UNL     1      28.424  44.299  32.939  1.00  0.00     0.012 C 
HETATM    2  C2  UNL     1      29.194  44.970  32.277  1.00  0.00    -0.117 C 
HETATM    3  C3  UNL     1      30.124  45.768  31.469  1.00  0.00     0.093 C 
ENDROOT
BRANCH   3   4
HETATM    4  C4  UNL     1      29.750  47.237  31.543  1.00  0.00     0.012 C 
BRANCH   4   5
HETATM    5  C5  UNL     1      30.628  47.960  32.558  1.00  0.00     0.001 C 
BRANCH   5   6
HETATM    6  C6  UNL     1      31.366  47.004  33.432  1.00  0.00     0.004 C 
BRANCH   6   7
HETATM    7  C7  UNL     1      30.994  47.246  34.871  1.00  0.00     0.027 C 
BRANCH   7   8
HETATM    8  C8  UNL     1      30.678  45.944  35.513  1.00  0.00    -0.031 C 
HETATM    9  C9  UNL     1      31.369  45.580  36.587  1.00  0.00    -0.028 C 
BRANCH   9  10
HETATM   10  C10 UNL     1      31.113  44.272  37.303  1.00  0.00     0.059 C 
BRANCH  10  11
HETATM   11  C11 UNL     1      32.461  43.567  37.433  1.00  0.00     0.131 C 
HETATM   12  O1  UNL     1      33.193  44.120  38.444  1.00  0.00    -0.385 OA
HETATM   13  C12 UNL     1      33.168  43.517  39.666  1.00  0.00     0.173 C 
HETATM   14  C13 UNL     1      33.238  42.019  39.663  1.00  0.00     0.016 C 
HETATM   15  C18 UNL     1      33.451  41.456  38.298  1.00  0.00     0.001 C 
HETATM   16  C19 UNL     1      33.084  40.011  38.160  1.00  0.00     0.008 C 
HETATM   17  C22 UNL     1      32.412  42.096  37.364  1.00  0.00     0.048 C 
HETATM   18  C20 UNL     1      31.594  40.007  38.088  1.00  0.00     0.032 C 
HETATM   19  C21 UNL     1      31.149  41.399  37.656  1.00  0.00     0.125 C 
BRANCH  14  20
HETATM   20  C14 UNL     1      34.280  41.535  40.651  1.00  0.00     0.029 C 
BRANCH  20  21
HETATM   21  C15 UNL     1      34.292  42.505  41.795  1.00  0.00     0.154 C 
BRANCH  21  22
HETATM   22  N1  UNL     1      33.535  42.022  42.938  1.00  0.00    -0.238 N 
HETATM   23  N2  UNL     1      32.244  41.762  43.046  1.00  0.00    -0.245 N 
HETATM   24  C16 UNL     1      32.026  41.338  44.307  1.00  0.00     0.343 A 
ATOM     25  H2  UNL     1      31.543  41.864  42.312  1.00  0.00     0.192 HD
HETATM   26  O2  UNL     1      30.905  41.008  44.741  1.00  0.00    -0.245 OA
HETATM   27  N3  UNL     1      33.187  41.341  44.969  1.00  0.00    -0.258 N 
HETATM   28  C17 UNL     1      34.125  41.765  44.119  1.00  0.00     0.345 A 
ATOM     29  H3  UNL     1      33.329  41.069  45.942  1.00  0.00     0.175 HD
HETATM   30  O3  UNL     1      35.364  41.895  44.410  1.00  0.00    -0.245 OA
ENDBRANCH  21  22
ENDBRANCH  20  21
ENDBRANCH  14  20
BRANCH  19  31
HETATM   31  O4  UNL     1      30.329  41.893  38.619  1.00  0.00    -0.395 OA
ATOM     32  H4  UNL     1      29.919  41.158  39.058  1.00  0.00     0.210 HD
ENDBRANCH  19  31
ENDBRANCH  10  11
ENDBRANCH   9  10
ENDBRANCH   7   8
ENDBRANCH   6   7
ENDBRANCH   5   6
ENDBRANCH   4   5
ENDBRANCH   3   4
TORSDOF 11
ENDMDL
MODEL 5
REMARK VINA RESULT: -8.109313744      1.729      3.049
REMARK  11 active torsions:
REMARK  status: ('A' for Active; 'I' for Inactive)
REMARK    1  A    between atoms: C3_3  and  C4_4 
REMARK    2  A    between atoms: C4_4  and  C5_5 
REMARK    3  A    between atoms: C5_5  and  C6_6 
REMARK    4  A    between atoms: C6_6  and  C7_7 
REMARK    5  A    between atoms: C7_7  and  C8_8 
REMARK    6  A    between atoms: C9_9  and  C10_10 
REMARK    7  A    between atoms: C10_10  and  C11_11 
REMARK    8  A    between atoms: C13_14  and  C14_15 
REMARK    9  A    between atoms: C14_15  and  C15_16 
REMARK   10  A    between atoms: C15_16  and  N1_17 
REMARK   11  A    between atoms: C21_29  and  O4_30 
ROOT
HETATM    1  C1  UNL     1      29.768  48.422  30.553  1.00  0.00     0.012 C 
HETATM    2  C2  UNL     1      30.255  47.437  31.077  1.00  0.00    -0.117 C 
HETATM    3  C3  UNL     1      30.856  46.253  31.704  1.00  0.00     0.093 C 
ENDROOT
BRANCH   3   4
HETATM    4  C4  UNL     1      30.205  45.989  33.050  1.00  0.00     0.012 C 
BRANCH   4   5
HETATM    5  C5  UNL     1      28.878  45.262  32.866  1.00  0.00     0.001 C 
BRANCH   5   6
HETATM    6  C6  UNL     1      28.218  44.976  34.172  1.00  0.00     0.004 C 
BRANCH   6   7
HETATM    7  C7  UNL     1      28.487  43.549  34.570  1.00  0.00     0.027 C 
BRANCH   7   8
HETATM    8  C8  UNL     1      28.908  43.516  35.994  1.00  0.00    -0.031 C 
HETATM    9  C9  UNL     1      30.104  43.996  36.315  1.00  0.00    -0.028 C 
BRANCH   9  10
HETATM   10  C10 UNL     1      30.613  44.002  37.740  1.00  0.00     0.059 C 
BRANCH  10  11
HETATM   11  C11 UNL     1      32.041  43.463  37.703  1.00  0.00     0.131 C 
HETATM   12  O1  UNL     1      32.808  44.082  38.647  1.00  0.00    -0.385 OA
HETATM   13  C12 UNL     1      32.989  43.458  39.845  1.00  0.00     0.173 C 
HETATM   14  C13 UNL     1      33.236  41.980  39.788  1.00  0.00     0.016 C 
HETATM   15  C18 UNL     1      33.364  41.472  38.391  1.00  0.00     0.001 C 
HETATM   16  C19 UNL     1      33.158  39.996  38.247  1.00  0.00     0.008 C 
HETATM   17  C22 UNL     1      32.159  41.998  37.594  1.00  0.00     0.048 C 
HETATM   18  C20 UNL     1      31.679  39.812  38.335  1.00  0.00     0.032 C 
HETATM   19  C21 UNL     1      31.028  41.148  37.996  1.00  0.00     0.125 C 
BRANCH  14  20
HETATM   20  C14 UNL     1      34.430  41.608  40.644  1.00  0.00     0.029 C 
BRANCH  20  21
HETATM   21  C15 UNL     1      34.417  42.512  41.841  1.00  0.00     0.154 C 
BRANCH  21  22
HETATM   22  N1  UNL     1      33.599  41.986  42.922  1.00  0.00    -0.238 N 
HETATM   23  N2  UNL     1      32.320  41.654  42.926  1.00  0.00    -0.245 N 
HETATM   24  C16 UNL     1      32.026  41.218  44.167  1.00  0.00     0.343 A 
ATOM     25  H2  UNL     1      31.676  41.717  42.138  1.00  0.00     0.192 HD
HETATM   26  O2  UNL     1      30.893  40.825  44.512  1.00  0.00    -0.245 OA
HETATM   27  N3  UNL     1      33.127  41.285  44.921  1.00  0.00    -0.258 N 
HETATM   28  C17 UNL     1      34.106  41.762  44.147  1.00  0.00     0.345 A 
ATOM     29  H3  UNL     1      33.206  41.022  45.903  1.00  0.00     0.175 HD
HETATM   30  O3  UNL     1      35.308  41.961  44.536  1.00  0.00    -0.245 OA
ENDBRANCH  21  22
ENDBRANCH  20  21
ENDBRANCH  14  20
BRANCH  19  31
HETATM   31  O4  UNL     1      30.266  41.521  39.056  1.00  0.00    -0.395 OA
ATOM     32  H4  UNL     1      30.834  41.591  39.814  1.00  0.00     0.210 HD
ENDBRANCH  19  31
ENDBRANCH  10  11
ENDBRANCH   9  10
ENDBRANCH   7   8
ENDBRANCH   6   7
ENDBRANCH   5   6
ENDBRANCH   4   5
ENDBRANCH   3   4
TORSDOF 11
ENDMDL
