MODEL 1
REMARK VINA RESULT: -7.796128556      0.000      0.000
REMARK  13 active torsions:
REMARK  status: ('A' for Active; 'I' for Inactive)
REMARK    1  A    between atoms: O1_2  and  C2_3 
REMARK    2  A    between atoms: C2_3  and  C3_4 
REMARK    3  A    between atoms: C2_3  and  C13_14 
REMARK    4  A    between atoms: C4_5  and  C5_6 
REMARK    5  A    between atoms: C5_6  and  C6_7 
REMARK    6  A    between atoms: C6_7  and  C8_9 
REMARK    7  A    between atoms: C8_9  and  C9_10 
REMARK    8  A    between atoms: C9_10  and  C10_11 
REMARK    9  A    between atoms: C15_16  and  O2_17 
REMARK   10  A    between atoms: C16_19  and  C17_20 
REMARK   11  A    between atoms: C18_21  and  C19_22 
REMARK   12  A    between atoms: C19_22  and  O3_23 
REMARK   13  A    between atoms: C19_22  and  C20_25 
ROOT
HETATM    1  C13 UNL     1      31.497  45.806  37.090  1.00  0.00     0.031 C 
HETATM    2  C14 UNL     1      32.160  45.919  35.736  1.00  0.00     0.040 C 
HETATM    3  C15 UNL     1      33.482  45.860  36.488  1.00  0.00     0.126 C 
HETATM    4  C16 UNL     1      32.694  45.149  37.600  1.00  0.00     0.043 C 
ENDROOT
BRANCH   4   5
HETATM    5  C17 UNL     1      32.903  43.685  37.476  1.00  0.00    -0.021 C 
HETATM    6  C18 UNL     1      33.007  42.979  38.591  1.00  0.00     0.003 C 
BRANCH   6   7
HETATM    7  C19 UNL     1      33.216  41.561  38.834  1.00  0.00     0.178 C 
BRANCH   7   8
HETATM    8  O3  UNL     1      32.866  40.933  37.587  1.00  0.00    -0.389 OA
ATOM      9  H3  UNL     1      32.811  40.009  37.799  1.00  0.00     0.210 HD
ENDBRANCH   7   8
BRANCH   7  10
HETATM   10  C20 UNL     1      32.289  40.917  39.842  1.00  0.00     0.287 C 
HETATM   11  N1  UNL     1      33.137  39.906  40.529  1.00  0.00    -0.057 N 
HETATM   12  C21 UNL     1      34.034  40.663  41.370  1.00  0.00     0.190 C 
ATOM     13  H12 UNL     1      32.604  39.196  41.032  1.00  0.00     0.278 HD
ATOM     14  H11 UNL     1      33.613  39.267  39.891  1.00  0.00     0.278 HD
HETATM   15  C22 UNL     1      34.483  39.766  42.523  1.00  0.00     0.040 C 
HETATM   16  C23 UNL     1      33.181  41.776  41.908  1.00  0.00     0.113 C 
HETATM   17  C24 UNL     1      31.968  41.780  41.007  1.00  0.00     0.162 C 
HETATM   18  O4  UNL     1      30.965  42.390  41.253  1.00  0.00    -0.296 OA
ENDBRANCH   7  10
ENDBRANCH   6   7
ENDBRANCH   4   5
BRANCH   1  19
HETATM   19  C2  UNL     1      30.131  45.233  37.156  1.00  0.00     0.149 C 
BRANCH  19  20
HETATM   20  O1  UNL     1      29.844  44.661  38.405  1.00  0.00    -0.386 OA
HETATM   21  C1  UNL     1      29.334  43.362  38.233  1.00  0.00     0.202 C 
ENDBRANCH  19  20
BRANCH  19  22
HETATM   22  C3  UNL     1      29.158  46.304  36.850  1.00  0.00     0.013 C 
HETATM   23  C4  UNL     1      28.532  46.522  35.704  1.00  0.00     0.049 C 
BRANCH  23  24
HETATM   24  C5  UNL     1      28.618  45.808  34.499  1.00  0.00    -0.152 C 
BRANCH  24  25
HETATM   25  C6  UNL     1      28.695  45.168  33.423  1.00  0.00     0.052 C 
HETATM   26  C7  UNL     1      28.305  43.691  33.461  1.00  0.00     0.023 C 
BRANCH  25  27
HETATM   27  C8  UNL     1      29.141  45.612  32.089  1.00  0.00     0.016 C 
BRANCH  27  28
HETATM   28  C9  UNL     1      30.593  45.932  31.979  1.00  0.00     0.005 C 
BRANCH  28  29
HETATM   29  C10 UNL     1      30.686  47.428  31.694  1.00  0.00    -0.023 C 
HETATM   30  C11 UNL     1      30.748  48.215  32.967  1.00  0.00     0.009 C 
HETATM   31  C12 UNL     1      29.492  47.892  30.895  1.00  0.00     0.009 C 
ENDBRANCH  28  29
ENDBRANCH  27  28
ENDBRANCH  25  27
ENDBRANCH  24  25
ENDBRANCH  23  24
ENDBRANCH  19  22
ENDBRANCH   1  19
BRANCH   3  32
HETATM   32  O2  UNL     1      33.885  47.148  36.852  1.00  0.00    -0.395 OA
ATOM     33  H2  UNL     1      34.511  47.104  37.565  1.00  0.00     0.210 HD
ENDBRANCH   3  32
TORSDOF 13
ENDMDL
MODEL 2
REMARK VINA RESULT: -7.691484345      3.097      5.977
REMARK  13 active torsions:
REMARK  status: ('A' for Active; 'I' for Inactive)
REMARK    1  A    between atoms: O1_2  and  C2_3 
REMARK    2  A    between atoms: C2_3  and  C3_4 
REMARK    3  A    between atoms: C2_3  and  C13_14 
REMARK    4  A    between atoms: C4_5  and  C5_6 
REMARK    5  A    between atoms: C5_6  and  C6_7 
REMARK    6  A    between atoms: C6_7  and  C8_9 
REMARK    7  A    between atoms: C8_9  and  C9_10 
REMARK    8  A    between atoms: C9_10  and  C10_11 
REMARK    9  A    between atoms: C15_16  and  O2_17 
REMARK   10  A    between atoms: C16_19  and  C17_20 
REMARK   11  A    between atoms: C18_21  and  C19_22 
REMARK   12  A    between atoms: C19_22  and  O3_23 
REMARK   13  A    between atoms: C19_22  and  C20_25 
ROOT
HETATM    1  C13 UNL     1      30.143  44.082  36.771  1.00  0.00     0.031 C 
HETATM    2  C14 UNL     1      29.924  44.433  38.225  1.00  0.00     0.040 C 
HETATM    3  C15 UNL     1      31.337  43.918  38.460  1.00  0.00     0.126 C 
HETATM    4  C16 UNL     1      31.580  44.223  36.973  1.00  0.00     0.043 C 
ENDROOT
BRANCH   4   5
HETATM    5  C17 UNL     1      32.267  45.533  36.858  1.00  0.00    -0.021 C 
HETATM    6  C18 UNL     1      33.492  45.546  36.356  1.00  0.00     0.003 C 
BRANCH   6   7
HETATM    7  C19 UNL     1      34.437  46.623  36.112  1.00  0.00     0.178 C 
BRANCH   7   8
HETATM    8  O3  UNL     1      34.267  47.504  37.237  1.00  0.00    -0.389 OA
ATOM      9  H3  UNL     1      34.534  48.355  36.910  1.00  0.00     0.210 HD
ENDBRANCH   7   8
BRANCH   7  10
HETATM   10  C20 UNL     1      34.148  47.500  34.912  1.00  0.00     0.287 C 
HETATM   11  N1  UNL     1      34.959  48.725  35.148  1.00  0.00    -0.057 N 
HETATM   12  C21 UNL     1      36.329  48.329  34.921  1.00  0.00     0.190 C 
ATOM     13  H12 UNL     1      34.665  49.525  34.588  1.00  0.00     0.278 HD
ATOM     14  H11 UNL     1      34.801  49.153  36.060  1.00  0.00     0.278 HD
HETATM   15  C22 UNL     1      37.130  49.571  34.533  1.00  0.00     0.040 C 
HETATM   16  C23 UNL     1      36.252  47.399  33.745  1.00  0.00     0.113 C 
HETATM   17  C24 UNL     1      34.788  47.037  33.656  1.00  0.00     0.162 C 
HETATM   18  O4  UNL     1      34.302  46.479  32.711  1.00  0.00    -0.296 OA
ENDBRANCH   7  10
ENDBRANCH   6   7
ENDBRANCH   4   5
BRANCH   1  19
HETATM   19  C2  UNL     1      29.362  44.818  35.747  1.00  0.00     0.149 C 
BRANCH  19  20
HETATM   20  O1  UNL     1      28.273  44.079  35.263  1.00  0.00    -0.386 OA
HETATM   21  C1  UNL     1      28.650  42.739  35.062  1.00  0.00     0.202 C 
ENDBRANCH  19  20
BRANCH  19  22
HETATM   22  C3  UNL     1      28.894  46.089  36.338  1.00  0.00     0.013 C 
HETATM   23  C4  UNL     1      29.171  47.319  35.931  1.00  0.00     0.049 C 
BRANCH  23  24
HETATM   24  C5  UNL     1      29.962  47.735  34.849  1.00  0.00    -0.152 C 
BRANCH  24  25
HETATM   25  C6  UNL     1      30.668  48.108  33.882  1.00  0.00     0.052 C 
HETATM   26  C7  UNL     1      31.239  49.524  33.942  1.00  0.00     0.023 C 
BRANCH  25  27
HETATM   27  C8  UNL     1      31.027  47.394  32.642  1.00  0.00     0.016 C 
BRANCH  27  28
HETATM   28  C9  UNL     1      30.017  47.473  31.548  1.00  0.00     0.005 C 
BRANCH  28  29
HETATM   29  C10 UNL     1      29.797  46.046  31.057  1.00  0.00    -0.023 C 
HETATM   30  C11 UNL     1      28.953  45.269  32.020  1.00  0.00     0.009 C 
HETATM   31  C12 UNL     1      31.118  45.333  30.888  1.00  0.00     0.009 C 
ENDBRANCH  28  29
ENDBRANCH  27  28
ENDBRANCH  25  27
ENDBRANCH  24  25
ENDBRANCH  23  24
ENDBRANCH  19  22
ENDBRANCH   1  19
BRANCH   3  32
HETATM   32  O2  UNL     1      31.309  42.547  38.731  1.00  0.00    -0.395 OA
ATOM     33  H2  UNL     1      32.194  42.208  38.789  1.00  0.00     0.210 HD
ENDBRANCH   3  32
TORSDOF 13
ENDMDL
MODEL 3
REMARK VINA RESULT: -7.633044002      2.138      3.841
REMARK  13 active torsions:
REMARK  status: ('A' for Active; 'I' for Inactive)
REMARK    1  A    between atoms: O1_2  and  C2_3 
REMARK    2  A    between atoms: C2_3  and  C3_4 
REMARK    3  A    between atoms: C2_3  and  C13_14 
REMARK    4  A    between atoms: C4_5  and  C5_6 
REMARK    5  A    between atoms: C5_6  and  C6_7 
REMARK    6  A    between atoms: C6_7  and  C8_9 
REMARK    7  A    between atoms: C8_9  and  C9_10 
REMARK    8  A    between atoms: C9_10  and  C10_11 
REMARK    9  A    between atoms: C15_16  and  O2_17 
REMARK   10  A    between atoms: C16_19  and  C17_20 
REMARK   11  A    between atoms: C18_21  and  C19_22 
REMARK   12  A    between atoms: C19_22  and  O3_23 
REMARK   13  A    between atoms: C19_22  and  C20_25 
ROOT
HETATM    1  C13 UNL     1      32.475  42.352  37.688  1.00  0.00     0.031 C 
HETATM    2  C14 UNL     1      31.614  41.225  38.210  1.00  0.00     0.040 C 
HETATM    3  C15 UNL     1      32.907  40.605  38.719  1.00  0.00     0.126 C 
HETATM    4  C16 UNL     1      33.474  42.034  38.701  1.00  0.00     0.043 C 
ENDROOT
BRANCH   4   5
HETATM    5  C17 UNL     1      33.410  42.593  40.074  1.00  0.00    -0.021 C 
HETATM    6  C18 UNL     1      34.472  42.445  40.851  1.00  0.00     0.003 C 
BRANCH   6   7
HETATM    7  C19 UNL     1      34.746  42.853  42.219  1.00  0.00     0.178 C 
BRANCH   7   8
HETATM    8  O3  UNL     1      35.925  43.672  42.114  1.00  0.00    -0.389 OA
ATOM      9  H3  UNL     1      36.546  43.265  42.706  1.00  0.00     0.210 HD
ENDBRANCH   7   8
BRANCH   7  10
HETATM   10  C20 UNL     1      35.151  41.748  43.171  1.00  0.00     0.287 C 
HETATM   11  N1  UNL     1      34.279  41.950  44.360  1.00  0.00    -0.057 N 
HETATM   12  C21 UNL     1      32.960  41.536  43.946  1.00  0.00     0.190 C 
ATOM     13  H12 UNL     1      34.613  41.475  45.199  1.00  0.00     0.278 HD
ATOM     14  H11 UNL     1      34.313  42.897  44.738  1.00  0.00     0.278 HD
HETATM   15  C22 UNL     1      32.173  41.122  45.188  1.00  0.00     0.040 C 
HETATM   16  C23 UNL     1      33.207  40.329  43.087  1.00  0.00     0.113 C 
HETATM   17  C24 UNL     1      34.682  40.399  42.767  1.00  0.00     0.162 C 
HETATM   18  O4  UNL     1      35.295  39.491  42.278  1.00  0.00    -0.296 OA
ENDBRANCH   7  10
ENDBRANCH   6   7
ENDBRANCH   4   5
BRANCH   1  19
HETATM   19  C2  UNL     1      31.853  43.687  37.513  1.00  0.00     0.149 C 
BRANCH  19  20
HETATM   20  O1  UNL     1      31.059  44.063  38.606  1.00  0.00    -0.386 OA
HETATM   21  C1  UNL     1      29.755  44.365  38.174  1.00  0.00     0.202 C 
ENDBRANCH  19  20
BRANCH  19  22
HETATM   22  C3  UNL     1      32.927  44.680  37.297  1.00  0.00     0.013 C 
HETATM   23  C4  UNL     1      32.886  45.759  36.530  1.00  0.00     0.049 C 
BRANCH  23  24
HETATM   24  C5  UNL     1      31.833  46.243  35.739  1.00  0.00    -0.152 C 
BRANCH  24  25
HETATM   25  C6  UNL     1      30.891  46.674  35.031  1.00  0.00     0.052 C 
HETATM   26  C7  UNL     1      29.678  47.248  35.761  1.00  0.00     0.023 C 
BRANCH  25  27
HETATM   27  C8  UNL     1      30.744  46.693  33.563  1.00  0.00     0.016 C 
BRANCH  27  28
HETATM   28  C9  UNL     1      29.593  45.910  33.030  1.00  0.00     0.005 C 
BRANCH  28  29
HETATM   29  C10 UNL     1      29.542  46.183  31.530  1.00  0.00    -0.023 C 
HETATM   30  C11 UNL     1      30.601  45.407  30.806  1.00  0.00     0.009 C 
HETATM   31  C12 UNL     1      29.744  47.653  31.249  1.00  0.00     0.009 C 
ENDBRANCH  28  29
ENDBRANCH  27  28
ENDBRANCH  25  27
ENDBRANCH  24  25
ENDBRANCH  23  24
ENDBRANCH  19  22
ENDBRANCH   1  19
BRANCH   3  32
HETATM   32  O2  UNL     1      33.469  39.790  37.732  1.00  0.00    -0.395 OA
ATOM     33  H2  UNL     1      33.288  38.877  37.922  1.00  0.00     0.210 HD
ENDBRANCH   3  32
TORSDOF 13
ENDMDL
MODEL 4
REMARK VINA RESULT: -7.621181421      2.977      7.049
REMARK  13 active torsions:
REMARK  status: ('A' for Active; 'I' for Inactive)
REMARK    1  A    between atoms: O1_2  and  C2_3 
REMARK    2  A    between atoms: C2_3  and  C3_4 
REMARK    3  A    between atoms: C2_3  and  C13_14 
REMARK    4  A    between atoms: C4_5  and  C5_6 
REMARK    5  A    between atoms: C5_6  and  C6_7 
REMARK    6  A    between atoms: C6_7  and  C8_9 
REMARK    7  A    between atoms: C8_9  and  C9_10 
REMARK    8  A    between atoms: C9_10  and  C10_11 
REMARK    9  A    between atoms: C15_16  and  O2_17 
REMARK   10  A    between atoms: C16_19  and  C17_20 
REMARK   11  A    between atoms: C18_21  and  C19_22 
REMARK   12  A    between atoms: C19_22  and  O3_23 
REMARK   13  A    between atoms: C19_22  and  C20_25 
ROOT
HETATM    1  C13 UNL     1      28.961  46.577  33.933  1.00  0.00     0.031 C 
HETATM    2  C14 UNL     1      29.225  45.805  32.661  1.00  0.00     0.040 C 
HETATM    3  C15 UNL     1      30.304  46.838  32.375  1.00  0.00     0.126 C 
HETATM    4  C16 UNL     1      30.330  47.074  33.894  1.00  0.00     0.043 C 
ENDROOT
BRANCH   4   5
HETATM    5  C17 UNL     1      31.462  46.313  34.478  1.00  0.00    -0.021 C 
HETATM    6  C18 UNL     1      32.391  46.993  35.133  1.00  0.00     0.003 C 
BRANCH   6   7
HETATM    7  C19 UNL     1      33.609  46.581  35.810  1.00  0.00     0.178 C 
BRANCH   7   8
HETATM    8  O3  UNL     1      33.206  46.391  37.178  1.00  0.00    -0.389 OA
ATOM      9  H3  UNL     1      33.992  46.082  37.612  1.00  0.00     0.210 HD
ENDBRANCH   7   8
BRANCH   7  10
HETATM   10  C20 UNL     1      34.707  47.620  35.891  1.00  0.00     0.287 C 
HETATM   11  N1  UNL     1      35.960  46.852  35.658  1.00  0.00    -0.057 N 
HETATM   12  C21 UNL     1      35.951  46.517  34.253  1.00  0.00     0.190 C 
ATOM     13  H12 UNL     1      36.803  47.341  35.958  1.00  0.00     0.278 HD
ATOM     14  H11 UNL     1      36.066  46.044  36.272  1.00  0.00     0.278 HD
HETATM   15  C22 UNL     1      37.394  46.301  33.802  1.00  0.00     0.040 C 
HETATM   16  C23 UNL     1      35.399  47.745  33.588  1.00  0.00     0.113 C 
HETATM   17  C24 UNL     1      34.770  48.527  34.717  1.00  0.00     0.162 C 
HETATM   18  O4  UNL     1      34.413  49.667  34.613  1.00  0.00    -0.296 OA
ENDBRANCH   7  10
ENDBRANCH   6   7
ENDBRANCH   4   5
BRANCH   1  19
HETATM   19  C2  UNL     1      28.363  45.853  35.081  1.00  0.00     0.149 C 
BRANCH  19  20
HETATM   20  O1  UNL     1      27.142  46.408  35.495  1.00  0.00    -0.386 OA
HETATM   21  C1  UNL     1      27.366  47.372  36.494  1.00  0.00     0.202 C 
ENDBRANCH  19  20
BRANCH  19  22
HETATM   22  C3  UNL     1      28.175  44.438  34.698  1.00  0.00     0.013 C 
HETATM   23  C4  UNL     1      28.729  43.371  35.253  1.00  0.00     0.049 C 
BRANCH  23  24
HETATM   24  C5  UNL     1      29.619  43.298  36.335  1.00  0.00    -0.152 C 
BRANCH  24  25
HETATM   25  C6  UNL     1      30.415  43.234  37.303  1.00  0.00     0.052 C 
HETATM   26  C7  UNL     1      30.248  44.271  38.412  1.00  0.00     0.023 C 
BRANCH  25  27
HETATM   27  C8  UNL     1      31.542  42.312  37.541  1.00  0.00     0.016 C 
BRANCH  27  28
HETATM   28  C9  UNL     1      32.889  42.948  37.570  1.00  0.00     0.005 C 
BRANCH  28  29
HETATM   29  C10 UNL     1      33.832  41.937  38.213  1.00  0.00    -0.023 C 
HETATM   30  C11 UNL     1      33.256  40.555  38.161  1.00  0.00     0.009 C 
HETATM   31  C12 UNL     1      34.093  42.297  39.657  1.00  0.00     0.009 C 
ENDBRANCH  28  29
ENDBRANCH  27  28
ENDBRANCH  25  27
ENDBRANCH  24  25
ENDBRANCH  23  24
ENDBRANCH  19  22
ENDBRANCH   1  19
BRANCH   3  32
HETATM   32  O2  UNL     1      29.762  47.917  31.671  1.00  0.00    -0.395 OA
ATOM     33  H2  UNL     1      30.095  47.927  30.782  1.00  0.00     0.210 HD
ENDBRANCH   3  32
TORSDOF 13
ENDMDL
MODEL 5
REMARK VINA RESULT: -7.617890667      2.762      4.810
REMARK  13 active torsions:
REMARK  status: ('A' for Active; 'I' for Inactive)
REMARK    1  A    between atoms: O1_2  and  C2_3 
REMARK    2  A    between atoms: C2_3  and  C3_4 
REMARK    3  A    between atoms: C2_3  and  C13_14 
REMARK    4  A    between atoms: C4_5  and  C5_6 
REMARK    5  A    between atoms: C5_6  and  C6_7 
REMARK    6  A    between atoms: C6_7  and  C8_9 
REMARK    7  A    between atoms: C8_9  and  C9_10 
REMARK    8  A    between atoms: C9_10  and  C10_11 
REMARK    9  A    between atoms: C15_16  and  O2_17 
REMARK   10  A    between atoms: C16_19  and  C17_20 
REMARK   11  A    between atoms: C18_21  and  C19_22 
REMARK   12  A    between atoms: C19_22  and  O3_23 
REMARK   13  A    between atoms: C19_22  and  C20_25 
ROOT
HETATM    1  C13 UNL     1      29.161  46.446  35.066  1.00  0.00     0.031 C 
HETATM    2  C14 UNL     1      28.750  47.532  36.034  1.00  0.00     0.040 C 
HETATM    3  C15 UNL     1      27.788  46.509  36.620  1.00  0.00     0.126 C 
HETATM    4  C16 UNL     1      28.733  45.446  36.036  1.00  0.00     0.043 C 
ENDROOT
BRANCH   4   5
HETATM    5  C17 UNL     1      29.629  44.957  37.112  1.00  0.00    -0.021 C 
HETATM    6  C18 UNL     1      29.691  43.650  37.318  1.00  0.00     0.003 C 
BRANCH   6   7
HETATM    7  C19 UNL     1      30.440  42.845  38.269  1.00  0.00     0.178 C 
BRANCH   7   8
HETATM    8  O3  UNL     1      29.570  42.745  39.411  1.00  0.00    -0.389 OA
ATOM      9  H3  UNL     1      30.086  43.094  40.128  1.00  0.00     0.210 HD
ENDBRANCH   7   8
BRANCH   7  10
HETATM   10  C20 UNL     1      31.701  43.474  38.822  1.00  0.00     0.287 C 
HETATM   11  N1  UNL     1      32.095  42.582  39.946  1.00  0.00    -0.057 N 
HETATM   12  C21 UNL     1      32.594  41.378  39.325  1.00  0.00     0.190 C 
ATOM     13  H12 UNL     1      32.752  43.010  40.599  1.00  0.00     0.278 HD
ATOM     14  H11 UNL     1      31.347  42.417  40.620  1.00  0.00     0.278 HD
HETATM   15  C22 UNL     1      33.555  40.698  40.299  1.00  0.00     0.040 C 
HETATM   16  C23 UNL     1      33.361  41.871  38.132  1.00  0.00     0.113 C 
HETATM   17  C24 UNL     1      32.895  43.298  37.958  1.00  0.00     0.162 C 
HETATM   18  O4  UNL     1      33.440  44.087  37.237  1.00  0.00    -0.296 OA
ENDBRANCH   7  10
ENDBRANCH   6   7
ENDBRANCH   4   5
BRANCH   1  19
HETATM   19  C2  UNL     1      30.518  46.513  34.472  1.00  0.00     0.149 C 
BRANCH  19  20
HETATM   20  O1  UNL     1      30.563  46.007  33.165  1.00  0.00    -0.386 OA
HETATM   21  C1  UNL     1      29.306  46.151  32.550  1.00  0.00     0.202 C 
ENDBRANCH  19  20
BRANCH  19  22
HETATM   22  C3  UNL     1      30.969  47.922  34.489  1.00  0.00     0.013 C 
HETATM   23  C4  UNL     1      32.211  48.373  34.404  1.00  0.00     0.049 C 
BRANCH  23  24
HETATM   24  C5  UNL     1      33.407  47.651  34.272  1.00  0.00    -0.152 C 
BRANCH  24  25
HETATM   25  C6  UNL     1      34.477  47.006  34.155  1.00  0.00     0.052 C 
HETATM   26  C7  UNL     1      35.168  46.565  35.444  1.00  0.00     0.023 C 
BRANCH  25  27
HETATM   27  C8  UNL     1      35.217  46.616  32.940  1.00  0.00     0.016 C 
BRANCH  27  28
HETATM   28  C9  UNL     1      34.370  46.241  31.773  1.00  0.00     0.005 C 
BRANCH  28  29
HETATM   29  C10 UNL     1      35.248  45.395  30.855  1.00  0.00    -0.023 C 
HETATM   30  C11 UNL     1      34.527  44.159  30.410  1.00  0.00     0.009 C 
HETATM   31  C12 UNL     1      36.517  44.986  31.563  1.00  0.00     0.009 C 
ENDBRANCH  28  29
ENDBRANCH  27  28
ENDBRANCH  25  27
ENDBRANCH  24  25
ENDBRANCH  23  24
ENDBRANCH  19  22
ENDBRANCH   1  19
BRANCH   3  32
HETATM   32  O2  UNL     1      26.562  46.565  35.952  1.00  0.00    -0.395 OA
ATOM     33  H2  UNL     1      26.157  47.414  36.084  1.00  0.00     0.210 HD
ENDBRANCH   3  32
TORSDOF 13
ENDMDL
