MODEL 1
REMARK VINA RESULT: -8.548732937      0.000      0.000
REMARK  14 active torsions:
REMARK  status: ('A' for Active; 'I' for Inactive)
REMARK    1  A    between atoms: C2_2  and  C3_3 
REMARK    2  A    between atoms: C3_3  and  C4_4 
REMARK    3  A    between atoms: C4_4  and  C5_5 
REMARK    4  A    between atoms: C5_5  and  C6_6 
REMARK    5  A    between atoms: C6_6  and  C7_7 
REMARK    6  A    between atoms: C6_6  and  C9_15 
REMARK    7  A    between atoms: C7_7  and  C8_8 
REMARK    8  A    between atoms: C8_8  and  O1_9 
REMARK    9  A    between atoms: N1_11  and  O2_13 
REMARK       I    between atoms: C9_15  and  N2_17 
REMARK   10  A    between atoms: N2_17  and  C10_19 
REMARK   11  A    between atoms: C10_19  and  C12_21 
REMARK   12  A    between atoms: C12_21  and  O4_22 
REMARK   13  A    between atoms: C12_21  and  N3_24 
REMARK   14  A    between atoms: N4_27  and  C15_28 
ROOT
HETATM    1  C9  UNL     1      29.196  44.127  37.120  1.00  0.00     0.226 C 
HETATM    2  O3  UNL     1      28.166  43.589  37.553  1.00  0.00    -0.273 OA
HETATM    3  N2  UNL     1      30.466  43.596  37.261  1.00  0.00    -0.324 N 
ATOM      4  H2  UNL     1      31.212  44.157  36.850  1.00  0.00     0.169 HD
ENDROOT
BRANCH   3   5
HETATM    5  C10 UNL     1      30.906  42.375  37.897  1.00  0.00     0.077 C 
HETATM    6  C11 UNL     1      31.048  41.270  37.232  1.00  0.00     0.048 C 
BRANCH   5   7
HETATM    7  C12 UNL     1      31.167  42.458  39.320  1.00  0.00     0.173 C 
BRANCH   7   8
HETATM    8  O4  UNL     1      30.072  42.664  40.031  1.00  0.00    -0.344 OA
ATOM      9  H4  UNL     1      29.537  43.369  39.688  1.00  0.00     0.219 HD
ENDBRANCH   7   8
BRANCH   7  10
HETATM   10  N3  UNL     1      32.335  42.364  40.068  1.00  0.00    -0.277 N 
HETATM   11  C13 UNL     1      33.486  43.205  40.121  1.00  0.00     0.156 C 
HETATM   12  C14 UNL     1      34.396  42.738  41.218  1.00  0.00     0.148 C 
HETATM   13  N4  UNL     1      33.634  41.731  41.901  1.00  0.00    -0.327 N 
HETATM   14  C21 UNL     1      32.635  41.298  41.013  1.00  0.00     0.327 C 
HETATM   15  O5  UNL     1      32.078  40.183  41.017  1.00  0.00    -0.247 OA
BRANCH  13  16
HETATM   16  C15 UNL     1      33.838  41.224  43.242  1.00  0.00     0.089 C 
HETATM   17  C16 UNL     1      35.040  41.898  43.897  1.00  0.00     0.025 C 
HETATM   18  C17 UNL     1      35.395  41.052  45.091  1.00  0.00     0.002 C 
HETATM   19  C18 UNL     1      34.262  40.846  46.041  1.00  0.00     0.000 C 
HETATM   20  C19 UNL     1      32.922  40.661  45.428  1.00  0.00     0.002 C 
HETATM   21  C20 UNL     1      32.672  41.447  44.167  1.00  0.00     0.025 C 
ENDBRANCH  13  16
ENDBRANCH   7  10
ENDBRANCH   5   7
ENDBRANCH   3   5
BRANCH   1  22
HETATM   22  C6  UNL     1      29.107  45.446  36.385  1.00  0.00     0.086 C 
BRANCH  22  23
HETATM   23  C5  UNL     1      30.308  45.666  35.526  1.00  0.00     0.015 C 
BRANCH  23  24
HETATM   24  C4  UNL     1      30.005  46.120  34.127  1.00  0.00     0.004 C 
BRANCH  24  25
HETATM   25  C3  UNL     1      28.957  45.266  33.460  1.00  0.00     0.026 C 
BRANCH  25  26
HETATM   26  C2  UNL     1      28.952  45.418  31.973  1.00  0.00    -0.037 C 
HETATM   27  C1  UNL     1      30.077  45.409  31.283  1.00  0.00     0.007 C 
ENDBRANCH  25  26
ENDBRANCH  24  25
ENDBRANCH  23  24
ENDBRANCH  22  23
BRANCH  22  28
HETATM   28  C7  UNL     1      29.033  46.539  37.426  1.00  0.00     0.100 C 
BRANCH  28  29
HETATM   29  C8  UNL     1      27.826  47.363  37.319  1.00  0.00     0.136 C 
HETATM   30  N1  UNL     1      27.509  48.211  38.217  1.00  0.00    -0.251 N 
ATOM     31  H1  UNL     1      26.652  48.746  38.072  1.00  0.00     0.196 HD
BRANCH  29  32
HETATM   32  O1  UNL     1      26.989  47.237  36.227  1.00  0.00    -0.348 OA
ATOM     33  H1  UNL     1      26.857  46.389  35.818  1.00  0.00     0.219 HD
ENDBRANCH  29  32
BRANCH  30  34
HETATM   34  O2  UNL     1      28.224  48.466  39.364  1.00  0.00    -0.288 OA
ATOM     35  H2  UNL     1      28.992  49.021  39.423  1.00  0.00     0.244 HD
ENDBRANCH  30  34
ENDBRANCH  28  29
ENDBRANCH  22  28
ENDBRANCH   1  22
TORSDOF 14
ENDMDL
MODEL 2
REMARK VINA RESULT: -8.538681530      1.445      2.013
REMARK  14 active torsions:
REMARK  status: ('A' for Active; 'I' for Inactive)
REMARK    1  A    between atoms: C2_2  and  C3_3 
REMARK    2  A    between atoms: C3_3  and  C4_4 
REMARK    3  A    between atoms: C4_4  and  C5_5 
REMARK    4  A    between atoms: C5_5  and  C6_6 
REMARK    5  A    between atoms: C6_6  and  C7_7 
REMARK    6  A    between atoms: C6_6  and  C9_15 
REMARK    7  A    between atoms: C7_7  and  C8_8 
REMARK    8  A    between atoms: C8_8  and  O1_9 
REMARK    9  A    between atoms: N1_11  and  O2_13 
REMARK       I    between atoms: C9_15  and  N2_17 
REMARK   10  A    between atoms: N2_17  and  C10_19 
REMARK   11  A    between atoms: C10_19  and  C12_21 
REMARK   12  A    between atoms: C12_21  and  O4_22 
REMARK   13  A    between atoms: C12_21  and  N3_24 
REMARK   14  A    between atoms: N4_27  and  C15_28 
ROOT
HETATM    1  C9  UNL     1      29.944  44.798  37.433  1.00  0.00     0.226 C 
HETATM    2  O3  UNL     1      29.771  44.816  38.661  1.00  0.00    -0.273 OA
HETATM    3  N2  UNL     1      30.975  44.122  36.805  1.00  0.00    -0.324 N 
ATOM      4  H2  UNL     1      30.983  44.202  35.789  1.00  0.00     0.169 HD
ENDROOT
BRANCH   3   5
HETATM    5  C10 UNL     1      32.043  43.320  37.358  1.00  0.00     0.077 C 
HETATM    6  C11 UNL     1      33.253  43.774  37.471  1.00  0.00     0.048 C 
BRANCH   5   7
HETATM    7  C12 UNL     1      31.682  41.977  37.769  1.00  0.00     0.173 C 
BRANCH   7   8
HETATM    8  O4  UNL     1      30.754  41.438  36.998  1.00  0.00    -0.344 OA
ATOM      9  H4  UNL     1      29.872  41.620  37.301  1.00  0.00     0.219 HD
ENDBRANCH   7   8
BRANCH   7  10
HETATM   10  N3  UNL     1      32.120  41.161  38.806  1.00  0.00    -0.277 N 
HETATM   11  C13 UNL     1      32.577  39.811  38.808  1.00  0.00     0.156 C 
HETATM   12  C14 UNL     1      33.087  39.457  40.174  1.00  0.00     0.148 C 
HETATM   13  N4  UNL     1      33.079  40.704  40.885  1.00  0.00    -0.327 N 
HETATM   14  C21 UNL     1      32.197  41.561  40.204  1.00  0.00     0.327 C 
HETATM   15  O5  UNL     1      31.570  42.517  40.699  1.00  0.00    -0.247 OA
BRANCH  13  16
HETATM   16  C15 UNL     1      33.816  41.045  42.084  1.00  0.00     0.089 C 
HETATM   17  C16 UNL     1      34.716  39.888  42.511  1.00  0.00     0.025 C 
HETATM   18  C17 UNL     1      35.123  40.178  43.931  1.00  0.00     0.002 C 
HETATM   19  C18 UNL     1      35.772  41.509  44.111  1.00  0.00     0.000 C 
HETATM   20  C19 UNL     1      35.211  42.624  43.305  1.00  0.00     0.002 C 
HETATM   21  C20 UNL     1      34.711  42.245  41.936  1.00  0.00     0.025 C 
ENDBRANCH  13  16
ENDBRANCH   7  10
ENDBRANCH   5   7
ENDBRANCH   3   5
BRANCH   1  22
HETATM   22  C6  UNL     1      28.994  45.547  36.526  1.00  0.00     0.086 C 
BRANCH  22  23
HETATM   23  C5  UNL     1      29.395  45.410  35.095  1.00  0.00     0.015 C 
BRANCH  23  24
HETATM   24  C4  UNL     1      28.291  44.983  34.171  1.00  0.00     0.004 C 
BRANCH  24  25
HETATM   25  C3  UNL     1      28.806  44.554  32.820  1.00  0.00     0.026 C 
BRANCH  25  26
HETATM   26  C2  UNL     1      29.370  45.693  32.032  1.00  0.00    -0.037 C 
HETATM   27  C1  UNL     1      30.133  45.481  30.977  1.00  0.00     0.007 C 
ENDBRANCH  25  26
ENDBRANCH  24  25
ENDBRANCH  23  24
ENDBRANCH  22  23
BRANCH  22  28
HETATM   28  C7  UNL     1      29.049  47.005  36.921  1.00  0.00     0.100 C 
BRANCH  28  29
HETATM   29  C8  UNL     1      27.728  47.589  37.170  1.00  0.00     0.136 C 
HETATM   30  N1  UNL     1      27.450  48.182  38.265  1.00  0.00    -0.251 N 
ATOM     31  H1  UNL     1      26.509  48.561  38.365  1.00  0.00     0.196 HD
BRANCH  29  32
HETATM   32  O1  UNL     1      26.736  47.509  36.211  1.00  0.00    -0.348 OA
ATOM     33  H1  UNL     1      25.860  47.825  36.399  1.00  0.00     0.219 HD
ENDBRANCH  29  32
BRANCH  30  34
HETATM   34  O2  UNL     1      28.314  48.354  39.322  1.00  0.00    -0.288 OA
ATOM     35  H2  UNL     1      28.207  47.980  40.188  1.00  0.00     0.244 HD
ENDBRANCH  30  34
ENDBRANCH  28  29
ENDBRANCH  22  28
ENDBRANCH   1  22
TORSDOF 14
ENDMDL
MODEL 3
REMARK VINA RESULT: -8.356323704      1.295      1.823
REMARK  14 active torsions:
REMARK  status: ('A' for Active; 'I' for Inactive)
REMARK    1  A    between atoms: C2_2  and  C3_3 
REMARK    2  A    between atoms: C3_3  and  C4_4 
REMARK    3  A    between atoms: C4_4  and  C5_5 
REMARK    4  A    between atoms: C5_5  and  C6_6 
REMARK    5  A    between atoms: C6_6  and  C7_7 
REMARK    6  A    between atoms: C6_6  and  C9_15 
REMARK    7  A    between atoms: C7_7  and  C8_8 
REMARK    8  A    between atoms: C8_8  and  O1_9 
REMARK    9  A    between atoms: N1_11  and  O2_13 
REMARK       I    between atoms: C9_15  and  N2_17 
REMARK   10  A    between atoms: N2_17  and  C10_19 
REMARK   11  A    between atoms: C10_19  and  C12_21 
REMARK   12  A    between atoms: C12_21  and  O4_22 
REMARK   13  A    between atoms: C12_21  and  N3_24 
REMARK   14  A    between atoms: N4_27  and  C15_28 
ROOT
HETATM    1  C9  UNL     1      30.510  45.175  36.672  1.00  0.00     0.226 C 
HETATM    2  O3  UNL     1      31.561  45.832  36.700  1.00  0.00    -0.273 OA
HETATM    3  N2  UNL     1      30.371  43.910  37.216  1.00  0.00    -0.324 N 
ATOM      4  H2  UNL     1      29.443  43.499  37.113  1.00  0.00     0.169 HD
ENDROOT
BRANCH   3   5
HETATM    5  C10 UNL     1      31.329  43.078  37.908  1.00  0.00     0.077 C 
HETATM    6  C11 UNL     1      32.546  42.935  37.482  1.00  0.00     0.048 C 
BRANCH   5   7
HETATM    7  C12 UNL     1      30.845  42.406  39.098  1.00  0.00     0.173 C 
BRANCH   7   8
HETATM    8  O4  UNL     1      29.593  42.719  39.389  1.00  0.00    -0.344 OA
ATOM      9  H4  UNL     1      29.528  43.375  40.072  1.00  0.00     0.219 HD
ENDBRANCH   7   8
BRANCH   7  10
HETATM   10  N3  UNL     1      31.438  41.509  39.978  1.00  0.00    -0.277 N 
HETATM   11  C13 UNL     1      32.140  40.290  39.745  1.00  0.00     0.156 C 
HETATM   12  C14 UNL     1      32.719  39.792  41.036  1.00  0.00     0.148 C 
HETATM   13  N4  UNL     1      32.485  40.862  41.963  1.00  0.00    -0.327 N 
HETATM   14  C21 UNL     1      31.451  41.650  41.428  1.00  0.00     0.327 C 
HETATM   15  O5  UNL     1      30.661  42.365  42.073  1.00  0.00    -0.247 OA
BRANCH  13  16
HETATM   16  C15 UNL     1      33.155  41.106  43.222  1.00  0.00     0.089 C 
HETATM   17  C16 UNL     1      32.860  39.985  44.216  1.00  0.00     0.025 C 
HETATM   18  C17 UNL     1      33.263  40.511  45.569  1.00  0.00     0.002 C 
HETATM   19  C18 UNL     1      34.677  40.982  45.635  1.00  0.00     0.000 C 
HETATM   20  C19 UNL     1      35.187  41.689  44.433  1.00  0.00     0.002 C 
HETATM   21  C20 UNL     1      34.654  41.192  43.114  1.00  0.00     0.025 C 
ENDBRANCH  13  16
ENDBRANCH   7  10
ENDBRANCH   5   7
ENDBRANCH   3   5
BRANCH   1  22
HETATM   22  C6  UNL     1      29.277  45.751  36.012  1.00  0.00     0.086 C 
BRANCH  22  23
HETATM   23  C5  UNL     1      29.431  45.795  34.528  1.00  0.00     0.015 C 
BRANCH  23  24
HETATM   24  C4  UNL     1      28.529  44.860  33.775  1.00  0.00     0.004 C 
BRANCH  24  25
HETATM   25  C3  UNL     1      28.752  44.923  32.285  1.00  0.00     0.026 C 
BRANCH  25  26
HETATM   26  C2  UNL     1      29.958  45.726  31.917  1.00  0.00    -0.037 C 
HETATM   27  C1  UNL     1      30.658  45.448  30.834  1.00  0.00     0.007 C 
ENDBRANCH  25  26
ENDBRANCH  24  25
ENDBRANCH  23  24
ENDBRANCH  22  23
BRANCH  22  28
HETATM   28  C7  UNL     1      29.103  47.159  36.535  1.00  0.00     0.100 C 
BRANCH  28  29
HETATM   29  C8  UNL     1      27.744  47.439  37.007  1.00  0.00     0.136 C 
HETATM   30  N1  UNL     1      27.525  48.011  38.125  1.00  0.00    -0.251 N 
ATOM     31  H1  UNL     1      26.551  48.170  38.386  1.00  0.00     0.196 HD
BRANCH  29  32
HETATM   32  O1  UNL     1      26.651  47.082  36.240  1.00  0.00    -0.348 OA
ATOM     33  H1  UNL     1      26.762  46.845  35.327  1.00  0.00     0.219 HD
ENDBRANCH  29  32
BRANCH  30  34
HETATM   34  O2  UNL     1      28.490  48.432  39.011  1.00  0.00    -0.288 OA
ATOM     35  H2  UNL     1      29.418  48.506  38.821  1.00  0.00     0.244 HD
ENDBRANCH  30  34
ENDBRANCH  28  29
ENDBRANCH  22  28
ENDBRANCH   1  22
TORSDOF 14
ENDMDL
MODEL 4
REMARK VINA RESULT: -8.354314620      1.389      1.658
REMARK  14 active torsions:
REMARK  status: ('A' for Active; 'I' for Inactive)
REMARK    1  A    between atoms: C2_2  and  C3_3 
REMARK    2  A    between atoms: C3_3  and  C4_4 
REMARK    3  A    between atoms: C4_4  and  C5_5 
REMARK    4  A    between atoms: C5_5  and  C6_6 
REMARK    5  A    between atoms: C6_6  and  C7_7 
REMARK    6  A    between atoms: C6_6  and  C9_15 
REMARK    7  A    between atoms: C7_7  and  C8_8 
REMARK    8  A    between atoms: C8_8  and  O1_9 
REMARK    9  A    between atoms: N1_11  and  O2_13 
REMARK       I    between atoms: C9_15  and  N2_17 
REMARK   10  A    between atoms: N2_17  and  C10_19 
REMARK   11  A    between atoms: C10_19  and  C12_21 
REMARK   12  A    between atoms: C12_21  and  O4_22 
REMARK   13  A    between atoms: C12_21  and  N3_24 
REMARK   14  A    between atoms: N4_27  and  C15_28 
ROOT
HETATM    1  C9  UNL     1      29.803  44.549  37.488  1.00  0.00     0.226 C 
HETATM    2  O3  UNL     1      29.777  45.017  38.636  1.00  0.00    -0.273 OA
HETATM    3  N2  UNL     1      30.756  43.653  37.037  1.00  0.00    -0.324 N 
ATOM      4  H2  UNL     1      30.642  43.359  36.067  1.00  0.00     0.169 HD
ENDROOT
BRANCH   3   5
HETATM    5  C10 UNL     1      31.887  43.066  37.719  1.00  0.00     0.077 C 
HETATM    6  C11 UNL     1      33.104  43.449  37.482  1.00  0.00     0.048 C 
BRANCH   5   7
HETATM    7  C12 UNL     1      31.580  42.021  38.675  1.00  0.00     0.173 C 
BRANCH   7   8
HETATM    8  O4  UNL     1      31.422  40.837  38.107  1.00  0.00    -0.344 OA
ATOM      9  H4  UNL     1      30.537  40.504  38.192  1.00  0.00     0.219 HD
ENDBRANCH   7   8
BRANCH   7  10
HETATM   10  N3  UNL     1      31.423  42.026  40.056  1.00  0.00    -0.277 N 
HETATM   11  C13 UNL     1      30.263  41.865  40.869  1.00  0.00     0.156 C 
HETATM   12  C14 UNL     1      30.669  41.792  42.311  1.00  0.00     0.148 C 
HETATM   13  N4  UNL     1      32.102  41.725  42.269  1.00  0.00    -0.327 N 
HETATM   14  C21 UNL     1      32.500  42.220  41.016  1.00  0.00     0.327 C 
HETATM   15  O5  UNL     1      33.598  42.746  40.746  1.00  0.00    -0.247 OA
BRANCH  13  16
HETATM   16  C15 UNL     1      32.998  41.257  43.306  1.00  0.00     0.089 C 
HETATM   17  C16 UNL     1      34.163  42.225  43.490  1.00  0.00     0.025 C 
HETATM   18  C17 UNL     1      35.205  41.479  44.280  1.00  0.00     0.002 C 
HETATM   19  C18 UNL     1      34.702  40.931  45.574  1.00  0.00     0.000 C 
HETATM   20  C19 UNL     1      33.318  40.390  45.559  1.00  0.00     0.002 C 
HETATM   21  C20 UNL     1      32.351  41.111  44.657  1.00  0.00     0.025 C 
ENDBRANCH  13  16
ENDBRANCH   7  10
ENDBRANCH   5   7
ENDBRANCH   3   5
BRANCH   1  22
HETATM   22  C6  UNL     1      28.746  44.954  36.484  1.00  0.00     0.086 C 
BRANCH  22  23
HETATM   23  C5  UNL     1      29.002  44.331  35.152  1.00  0.00     0.015 C 
BRANCH  23  24
HETATM   24  C4  UNL     1      29.224  45.307  34.034  1.00  0.00     0.004 C 
BRANCH  24  25
HETATM   25  C3  UNL     1      28.920  44.712  32.682  1.00  0.00     0.026 C 
BRANCH  25  26
HETATM   26  C2  UNL     1      29.287  45.624  31.556  1.00  0.00    -0.037 C 
HETATM   27  C1  UNL     1      30.354  45.397  30.814  1.00  0.00     0.007 C 
ENDBRANCH  25  26
ENDBRANCH  24  25
ENDBRANCH  23  24
ENDBRANCH  22  23
BRANCH  22  28
HETATM   28  C7  UNL     1      28.806  46.458  36.349  1.00  0.00     0.100 C 
BRANCH  28  29
HETATM   29  C8  UNL     1      27.565  47.126  36.750  1.00  0.00     0.136 C 
HETATM   30  N1  UNL     1      27.495  47.838  37.806  1.00  0.00    -0.251 N 
ATOM     31  H1  UNL     1      26.596  48.270  38.020  1.00  0.00     0.196 HD
BRANCH  29  32
HETATM   32  O1  UNL     1      26.423  46.998  35.983  1.00  0.00    -0.348 OA
ATOM     33  H1  UNL     1      25.584  47.298  36.316  1.00  0.00     0.219 HD
ENDBRANCH  29  32
BRANCH  30  34
HETATM   34  O2  UNL     1      28.530  48.073  38.682  1.00  0.00    -0.288 OA
ATOM     35  H2  UNL     1      28.611  48.828  39.251  1.00  0.00     0.244 HD
ENDBRANCH  30  34
ENDBRANCH  28  29
ENDBRANCH  22  28
ENDBRANCH   1  22
TORSDOF 14
ENDMDL
MODEL 5
REMARK VINA RESULT: -8.309768822      1.684      2.272
REMARK  14 active torsions:
REMARK  status: ('A' for Active; 'I' for Inactive)
REMARK    1  A    between atoms: C2_2  and  C3_3 
REMARK    2  A    between atoms: C3_3  and  C4_4 
REMARK    3  A    between atoms: C4_4  and  C5_5 
REMARK    4  A    between atoms: C5_5  and  C6_6 
REMARK    5  A    between atoms: C6_6  and  C7_7 
REMARK    6  A    between atoms: C6_6  and  C9_15 
REMARK    7  A    between atoms: C7_7  and  C8_8 
REMARK    8  A    between atoms: C8_8  and  O1_9 
REMARK    9  A    between atoms: N1_11  and  O2_13 
REMARK       I    between atoms: C9_15  and  N2_17 
REMARK   10  A    between atoms: N2_17  and  C10_19 
REMARK   11  A    between atoms: C10_19  and  C12_21 
REMARK   12  A    between atoms: C12_21  and  O4_22 
REMARK   13  A    between atoms: C12_21  and  N3_24 
REMARK   14  A    between atoms: N4_27  and  C15_28 
ROOT
HETATM    1  C9  UNL     1      29.715  44.851  36.074  1.00  0.00     0.226 C 
HETATM    2  O3  UNL     1      29.278  43.779  35.628  1.00  0.00    -0.273 OA
HETATM    3  N2  UNL     1      30.683  44.944  37.058  1.00  0.00    -0.324 N 
ATOM      4  H2  UNL     1      30.939  45.896  37.318  1.00  0.00     0.169 HD
ENDROOT
BRANCH   3   5
HETATM    5  C10 UNL     1      31.392  43.909  37.777  1.00  0.00     0.077 C 
HETATM    6  C11 UNL     1      32.671  43.739  37.648  1.00  0.00     0.048 C 
BRANCH   5   7
HETATM    7  C12 UNL     1      30.585  43.068  38.640  1.00  0.00     0.173 C 
BRANCH   7   8
HETATM    8  O4  UNL     1      29.354  43.524  38.793  1.00  0.00    -0.344 OA
ATOM      9  H4  UNL     1      28.718  42.831  38.918  1.00  0.00     0.219 HD
ENDBRANCH   7   8
BRANCH   7  10
HETATM   10  N3  UNL     1      30.857  41.891  39.327  1.00  0.00    -0.277 N 
HETATM   11  C13 UNL     1      31.467  40.675  38.899  1.00  0.00     0.156 C 
HETATM   12  C14 UNL     1      31.669  39.774  40.082  1.00  0.00     0.148 C 
HETATM   13  N4  UNL     1      31.330  40.595  41.210  1.00  0.00    -0.327 N 
HETATM   14  C21 UNL     1      30.539  41.652  40.727  1.00  0.00     0.327 C 
HETATM   15  O5  UNL     1      29.694  42.297  41.378  1.00  0.00    -0.247 OA
BRANCH  13  16
HETATM   16  C15 UNL     1      31.702  40.395  42.595  1.00  0.00     0.089 C 
HETATM   17  C16 UNL     1      32.364  39.032  42.784  1.00  0.00     0.025 C 
HETATM   18  C17 UNL     1      32.355  38.765  44.266  1.00  0.00     0.002 C 
HETATM   19  C18 UNL     1      33.003  39.838  45.075  1.00  0.00     0.000 C 
HETATM   20  C19 UNL     1      32.772  41.232  44.616  1.00  0.00     0.002 C 
HETATM   21  C20 UNL     1      32.673  41.415  43.124  1.00  0.00     0.025 C 
ENDBRANCH  13  16
ENDBRANCH   7  10
ENDBRANCH   5   7
ENDBRANCH   3   5
BRANCH   1  22
HETATM   22  C6  UNL     1      29.186  46.162  35.538  1.00  0.00     0.086 C 
BRANCH  22  23
HETATM   23  C5  UNL     1      30.086  46.716  34.484  1.00  0.00     0.015 C 
BRANCH  23  24
HETATM   24  C4  UNL     1      29.760  46.278  33.086  1.00  0.00     0.004 C 
BRANCH  24  25
HETATM   25  C3  UNL     1      30.660  46.917  32.059  1.00  0.00     0.026 C 
BRANCH  25  26
HETATM   26  C2  UNL     1      30.170  48.260  31.621  1.00  0.00    -0.037 C 
HETATM   27  C1  UNL     1      29.570  48.421  30.458  1.00  0.00     0.007 C 
ENDBRANCH  25  26
ENDBRANCH  24  25
ENDBRANCH  23  24
ENDBRANCH  22  23
BRANCH  22  28
HETATM   28  C7  UNL     1      29.124  47.131  36.697  1.00  0.00     0.100 C 
BRANCH  28  29
HETATM   29  C8  UNL     1      27.756  47.460  37.106  1.00  0.00     0.136 C 
HETATM   30  N1  UNL     1      27.508  48.074  38.196  1.00  0.00    -0.251 N 
ATOM     31  H1  UNL     1      26.530  48.265  38.413  1.00  0.00     0.196 HD
BRANCH  29  32
HETATM   32  O1  UNL     1      26.684  47.105  36.309  1.00  0.00    -0.348 OA
ATOM     33  H1  UNL     1      25.806  47.398  36.526  1.00  0.00     0.219 HD
ENDBRANCH  29  32
BRANCH  30  34
HETATM   34  O2  UNL     1      28.450  48.501  39.105  1.00  0.00    -0.288 OA
ATOM     35  H2  UNL     1      29.042  49.233  38.982  1.00  0.00     0.244 HD
ENDBRANCH  30  34
ENDBRANCH  28  29
ENDBRANCH  22  28
ENDBRANCH   1  22
TORSDOF 14
ENDMDL
