MODEL 1
REMARK VINA RESULT: -8.588346353      0.000      0.000
REMARK  13 active torsions:
REMARK  status: ('A' for Active; 'I' for Inactive)
REMARK    1  A    between atoms: O1_2  and  C2_3 
REMARK    2  A    between atoms: C2_3  and  C3_4 
REMARK    3  A    between atoms: C4_5  and  C5_6 
REMARK    4  A    between atoms: C7_8  and  O2_9 
REMARK    5  A    between atoms: C8_11  and  C9_12 
REMARK    6  A    between atoms: C10_13  and  C11_14 
REMARK    7  A    between atoms: C11_14  and  O3_15 
REMARK    8  A    between atoms: C11_14  and  C12_17 
REMARK    9  A    between atoms: C12_17  and  C13_18 
REMARK   10  A    between atoms: C13_18  and  C14_19 
REMARK   11  A    between atoms: C21_28  and  C22_29 
REMARK   12  A    between atoms: C22_29  and  C23_30 
REMARK   13  A    between atoms: C23_30  and  O5_31 
ROOT
HETATM    1  C5  UNL     1      34.077  42.144  38.791  1.00  0.00     0.011 C 
HETATM    2  C6  UNL     1      33.465  40.810  38.461  1.00  0.00     0.041 C 
HETATM    3  C7  UNL     1      32.114  41.117  37.900  1.00  0.00     0.126 C 
HETATM    4  C8  UNL     1      31.925  42.605  37.984  1.00  0.00     0.037 C 
HETATM    5  C20 UNL     1      33.356  43.090  37.871  1.00  0.00     0.019 C 
ENDROOT
BRANCH   4   6
HETATM    6  C9  UNL     1      31.101  43.196  36.928  1.00  0.00    -0.021 C 
HETATM    7  C10 UNL     1      29.800  43.153  36.863  1.00  0.00     0.001 C 
BRANCH   7   8
HETATM    8  C11 UNL     1      29.024  43.788  35.739  1.00  0.00     0.140 C 
BRANCH   8   9
HETATM    9  O3  UNL     1      27.929  42.971  35.491  1.00  0.00    -0.392 OA
ATOM     10  H3  UNL     1      28.269  42.115  35.257  1.00  0.00     0.210 HD
ENDBRANCH   8   9
BRANCH   8  11
HETATM   11  C12 UNL     1      28.543  45.144  36.180  1.00  0.00     0.037 C 
BRANCH  11  12
HETATM   12  C13 UNL     1      28.690  46.214  35.129  1.00  0.00     0.028 C 
BRANCH  12  13
HETATM   13  C14 UNL     1      29.878  46.003  34.232  1.00  0.00     0.086 C 
HETATM   14  C15 UNL     1      30.989  46.996  34.504  1.00  0.00     0.026 C 
HETATM   15  C16 UNL     1      30.610  48.343  33.948  1.00  0.00     0.011 C 
HETATM   16  C17 UNL     1      30.725  48.269  32.438  1.00  0.00     0.103 C 
HETATM   17  C18 UNL     1      29.865  47.141  31.970  1.00  0.00     0.219 C 
HETATM   18  O4  UNL     1      29.486  47.169  30.763  1.00  0.00    -0.273 OA
HETATM   19  N1  UNL     1      29.481  46.075  32.820  1.00  0.00    -0.352 N 
HETATM   20  C19 UNL     1      28.663  45.006  32.296  1.00  0.00     0.153 C 
ENDBRANCH  12  13
ENDBRANCH  11  12
ENDBRANCH   8  11
ENDBRANCH   7   8
ENDBRANCH   4   6
BRANCH   3  21
HETATM   21  O2  UNL     1      31.151  40.394  38.578  1.00  0.00    -0.395 OA
ATOM     22  H2  UNL     1      31.274  40.495  39.514  1.00  0.00     0.210 HD
ENDBRANCH   3  21
BRANCH   1  23
HETATM   23  C4  UNL     1      33.759  42.522  40.192  1.00  0.00    -0.019 C 
HETATM   24  C3  UNL     1      33.834  41.609  41.163  1.00  0.00     0.033 C 
BRANCH  24  25
HETATM   25  C2  UNL     1      33.527  41.966  42.527  1.00  0.00     0.064 C 
HETATM   26  C21 UNL     1      34.397  42.189  43.463  1.00  0.00     0.012 C 
BRANCH  25  27
HETATM   27  O1  UNL     1      32.168  42.087  42.887  1.00  0.00    -0.356 OA
HETATM   28  C1  UNL     1      31.686  41.354  44.017  1.00  0.00     0.210 C 
ENDBRANCH  25  27
BRANCH  26  29
HETATM   29  C22 UNL     1      35.845  42.108  43.269  1.00  0.00     0.056 C 
BRANCH  29  30
HETATM   30  C23 UNL     1      36.462  40.936  44.014  1.00  0.00     0.168 C 
BRANCH  30  31
HETATM   31  O5  UNL     1      37.858  41.035  43.995  1.00  0.00    -0.401 OA
ATOM     32  H5  UNL     1      38.234  40.469  44.659  1.00  0.00     0.209 HD
ENDBRANCH  30  31
ENDBRANCH  29  30
ENDBRANCH  26  29
ENDBRANCH  24  25
ENDBRANCH   1  23
TORSDOF 13
ENDMDL
MODEL 2
REMARK VINA RESULT: -8.575631362      0.973      2.171
REMARK  13 active torsions:
REMARK  status: ('A' for Active; 'I' for Inactive)
REMARK    1  A    between atoms: O1_2  and  C2_3 
REMARK    2  A    between atoms: C2_3  and  C3_4 
REMARK    3  A    between atoms: C4_5  and  C5_6 
REMARK    4  A    between atoms: C7_8  and  O2_9 
REMARK    5  A    between atoms: C8_11  and  C9_12 
REMARK    6  A    between atoms: C10_13  and  C11_14 
REMARK    7  A    between atoms: C11_14  and  O3_15 
REMARK    8  A    between atoms: C11_14  and  C12_17 
REMARK    9  A    between atoms: C12_17  and  C13_18 
REMARK   10  A    between atoms: C13_18  and  C14_19 
REMARK   11  A    between atoms: C21_28  and  C22_29 
REMARK   12  A    between atoms: C22_29  and  C23_30 
REMARK   13  A    between atoms: C23_30  and  O5_31 
ROOT
HETATM    1  C5  UNL     1      33.963  41.992  38.388  1.00  0.00     0.011 C 
HETATM    2  C6  UNL     1      33.371  40.614  38.273  1.00  0.00     0.041 C 
HETATM    3  C7  UNL     1      31.908  40.824  38.045  1.00  0.00     0.126 C 
HETATM    4  C8  UNL     1      31.657  42.304  38.109  1.00  0.00     0.037 C 
HETATM    5  C20 UNL     1      32.987  42.850  37.632  1.00  0.00     0.019 C 
ENDROOT
BRANCH   4   6
HETATM    6  C9  UNL     1      30.569  42.795  37.262  1.00  0.00    -0.021 C 
HETATM    7  C10 UNL     1      30.071  43.999  37.285  1.00  0.00     0.001 C 
BRANCH   7   8
HETATM    8  C11 UNL     1      28.947  44.428  36.377  1.00  0.00     0.140 C 
BRANCH   8   9
HETATM    9  O3  UNL     1      27.833  43.678  36.731  1.00  0.00    -0.392 OA
ATOM     10  H3  UNL     1      27.105  44.284  36.811  1.00  0.00     0.210 HD
ENDBRANCH   8   9
BRANCH   8  11
HETATM   11  C12 UNL     1      28.659  45.887  36.609  1.00  0.00     0.037 C 
BRANCH  11  12
HETATM   12  C13 UNL     1      28.794  46.739  35.374  1.00  0.00     0.028 C 
BRANCH  12  13
HETATM   13  C14 UNL     1      29.947  46.332  34.498  1.00  0.00     0.086 C 
HETATM   14  C15 UNL     1      31.061  47.358  34.500  1.00  0.00     0.026 C 
HETATM   15  C16 UNL     1      30.651  48.549  33.676  1.00  0.00     0.011 C 
HETATM   16  C17 UNL     1      30.707  48.144  32.216  1.00  0.00     0.103 C 
HETATM   17  C18 UNL     1      29.838  46.942  32.043  1.00  0.00     0.219 C 
HETATM   18  O4  UNL     1      29.411  46.703  30.876  1.00  0.00    -0.273 OA
HETATM   19  N1  UNL     1      29.494  46.091  33.123  1.00  0.00    -0.352 N 
HETATM   20  C19 UNL     1      28.664  44.934  32.880  1.00  0.00     0.153 C 
ENDBRANCH  12  13
ENDBRANCH  11  12
ENDBRANCH   8  11
ENDBRANCH   7   8
ENDBRANCH   4   6
BRANCH   3  21
HETATM   21  O2  UNL     1      31.182  40.094  38.966  1.00  0.00    -0.395 OA
ATOM     22  H2  UNL     1      30.910  39.271  38.580  1.00  0.00     0.210 HD
ENDBRANCH   3  21
BRANCH   1  23
HETATM   23  C4  UNL     1      33.969  42.431  39.806  1.00  0.00    -0.019 C 
HETATM   24  C3  UNL     1      34.192  41.544  40.778  1.00  0.00     0.033 C 
BRANCH  24  25
HETATM   25  C2  UNL     1      34.200  41.960  42.160  1.00  0.00     0.064 C 
HETATM   26  C21 UNL     1      33.199  41.868  42.981  1.00  0.00     0.012 C 
BRANCH  25  27
HETATM   27  O1  UNL     1      35.391  42.514  42.676  1.00  0.00    -0.356 OA
HETATM   28  C1  UNL     1      36.206  41.715  43.538  1.00  0.00     0.210 C 
ENDBRANCH  25  27
BRANCH  26  29
HETATM   29  C22 UNL     1      31.892  41.320  42.618  1.00  0.00     0.056 C 
BRANCH  29  30
HETATM   30  C23 UNL     1      31.156  40.745  43.817  1.00  0.00     0.168 C 
BRANCH  30  31
HETATM   31  O5  UNL     1      30.886  41.756  44.746  1.00  0.00    -0.401 OA
ATOM     32  H5  UNL     1      30.517  41.381  45.537  1.00  0.00     0.209 HD
ENDBRANCH  30  31
ENDBRANCH  29  30
ENDBRANCH  26  29
ENDBRANCH  24  25
ENDBRANCH   1  23
TORSDOF 13
ENDMDL
MODEL 3
REMARK VINA RESULT: -8.327017175      1.121      1.179
REMARK  13 active torsions:
REMARK  status: ('A' for Active; 'I' for Inactive)
REMARK    1  A    between atoms: O1_2  and  C2_3 
REMARK    2  A    between atoms: C2_3  and  C3_4 
REMARK    3  A    between atoms: C4_5  and  C5_6 
REMARK    4  A    between atoms: C7_8  and  O2_9 
REMARK    5  A    between atoms: C8_11  and  C9_12 
REMARK    6  A    between atoms: C10_13  and  C11_14 
REMARK    7  A    between atoms: C11_14  and  O3_15 
REMARK    8  A    between atoms: C11_14  and  C12_17 
REMARK    9  A    between atoms: C12_17  and  C13_18 
REMARK   10  A    between atoms: C13_18  and  C14_19 
REMARK   11  A    between atoms: C21_28  and  C22_29 
REMARK   12  A    between atoms: C22_29  and  C23_30 
REMARK   13  A    between atoms: C23_30  and  O5_31 
ROOT
HETATM    1  C5  UNL     1      33.917  42.424  39.007  1.00  0.00     0.011 C 
HETATM    2  C6  UNL     1      33.517  41.318  38.068  1.00  0.00     0.041 C 
HETATM    3  C7  UNL     1      32.137  41.662  37.608  1.00  0.00     0.126 C 
HETATM    4  C8  UNL     1      31.723  42.907  38.338  1.00  0.00     0.037 C 
HETATM    5  C20 UNL     1      33.063  43.578  38.561  1.00  0.00     0.019 C 
ENDROOT
BRANCH   4   6
HETATM    6  C9  UNL     1      30.822  43.798  37.605  1.00  0.00    -0.021 C 
HETATM    7  C10 UNL     1      30.026  44.682  38.137  1.00  0.00     0.001 C 
BRANCH   7   8
HETATM    8  C11 UNL     1      29.126  45.563  37.310  1.00  0.00     0.140 C 
BRANCH   8   9
HETATM    9  O3  UNL     1      29.697  46.829  37.298  1.00  0.00    -0.392 OA
ATOM     10  H3  UNL     1      29.856  47.069  38.204  1.00  0.00     0.210 HD
ENDBRANCH   8   9
BRANCH   8  11
HETATM   11  C12 UNL     1      29.073  45.028  35.904  1.00  0.00     0.037 C 
BRANCH  11  12
HETATM   12  C13 UNL     1      28.969  46.098  34.848  1.00  0.00     0.028 C 
BRANCH  12  13
HETATM   13  C14 UNL     1      30.102  46.065  33.860  1.00  0.00     0.086 C 
HETATM   14  C15 UNL     1      31.176  47.084  34.181  1.00  0.00     0.026 C 
HETATM   15  C16 UNL     1      30.690  48.462  33.817  1.00  0.00     0.011 C 
HETATM   16  C17 UNL     1      30.705  48.573  32.305  1.00  0.00     0.103 C 
HETATM   17  C18 UNL     1      29.875  47.459  31.758  1.00  0.00     0.219 C 
HETATM   18  O4  UNL     1      29.412  47.606  30.590  1.00  0.00    -0.273 OA
HETATM   19  N1  UNL     1      29.606  46.280  32.495  1.00  0.00    -0.352 N 
HETATM   20  C19 UNL     1      28.810  45.233  31.897  1.00  0.00     0.153 C 
ENDBRANCH  12  13
ENDBRANCH  11  12
ENDBRANCH   8  11
ENDBRANCH   7   8
ENDBRANCH   4   6
BRANCH   3  21
HETATM   21  O2  UNL     1      31.295  40.587  37.815  1.00  0.00    -0.395 OA
ATOM     22  H2  UNL     1      31.180  40.108  37.003  1.00  0.00     0.210 HD
ENDBRANCH   3  21
BRANCH   1  23
HETATM   23  C4  UNL     1      33.539  42.074  40.400  1.00  0.00    -0.019 C 
HETATM   24  C3  UNL     1      34.328  42.433  41.415  1.00  0.00     0.033 C 
BRANCH  24  25
HETATM   25  C2  UNL     1      33.970  42.098  42.772  1.00  0.00     0.064 C 
HETATM   26  C21 UNL     1      34.802  41.758  43.709  1.00  0.00     0.012 C 
BRANCH  25  27
HETATM   27  O1  UNL     1      32.605  42.142  43.125  1.00  0.00    -0.356 OA
HETATM   28  C1  UNL     1      32.165  41.407  44.271  1.00  0.00     0.210 C 
ENDBRANCH  25  27
BRANCH  26  29
HETATM   29  C22 UNL     1      36.249  41.661  43.522  1.00  0.00     0.056 C 
BRANCH  29  30
HETATM   30  C23 UNL     1      36.846  40.468  44.250  1.00  0.00     0.168 C 
BRANCH  30  31
HETATM   31  O5  UNL     1      38.115  40.791  44.743  1.00  0.00    -0.401 OA
ATOM     32  H5  UNL     1      38.057  41.537  45.329  1.00  0.00     0.209 HD
ENDBRANCH  30  31
ENDBRANCH  29  30
ENDBRANCH  26  29
ENDBRANCH  24  25
ENDBRANCH   1  23
TORSDOF 13
ENDMDL
MODEL 4
REMARK VINA RESULT: -8.276627102      2.895     10.731
REMARK  13 active torsions:
REMARK  status: ('A' for Active; 'I' for Inactive)
REMARK    1  A    between atoms: O1_2  and  C2_3 
REMARK    2  A    between atoms: C2_3  and  C3_4 
REMARK    3  A    between atoms: C4_5  and  C5_6 
REMARK    4  A    between atoms: C7_8  and  O2_9 
REMARK    5  A    between atoms: C8_11  and  C9_12 
REMARK    6  A    between atoms: C10_13  and  C11_14 
REMARK    7  A    between atoms: C11_14  and  O3_15 
REMARK    8  A    between atoms: C11_14  and  C12_17 
REMARK    9  A    between atoms: C12_17  and  C13_18 
REMARK   10  A    between atoms: C13_18  and  C14_19 
REMARK   11  A    between atoms: C21_28  and  C22_29 
REMARK   12  A    between atoms: C22_29  and  C23_30 
REMARK   13  A    between atoms: C23_30  and  O5_31 
ROOT
HETATM    1  C5  UNL     1      30.639  46.151  36.163  1.00  0.00     0.011 C 
HETATM    2  C6  UNL     1      29.345  45.986  36.913  1.00  0.00     0.041 C 
HETATM    3  C7  UNL     1      29.369  44.592  37.451  1.00  0.00     0.126 C 
HETATM    4  C8  UNL     1      30.626  43.941  36.947  1.00  0.00     0.037 C 
HETATM    5  C20 UNL     1      31.543  45.139  36.812  1.00  0.00     0.019 C 
ENDROOT
BRANCH   4   6
HETATM    6  C9  UNL     1      31.219  42.942  37.837  1.00  0.00    -0.021 C 
HETATM    7  C10 UNL     1      31.971  43.194  38.871  1.00  0.00     0.001 C 
BRANCH   7   8
HETATM    8  C11 UNL     1      32.546  42.103  39.739  1.00  0.00     0.140 C 
BRANCH   8   9
HETATM    9  O3  UNL     1      32.948  41.081  38.890  1.00  0.00    -0.392 OA
ATOM     10  H3  UNL     1      32.165  40.605  38.639  1.00  0.00     0.210 HD
ENDBRANCH   8   9
BRANCH   8  11
HETATM   11  C12 UNL     1      33.744  42.642  40.473  1.00  0.00     0.037 C 
BRANCH  11  12
HETATM   12  C13 UNL     1      34.217  41.758  41.598  1.00  0.00     0.028 C 
BRANCH  12  13
HETATM   13  C14 UNL     1      34.043  42.383  42.954  1.00  0.00     0.086 C 
HETATM   14  C15 UNL     1      35.364  42.593  43.665  1.00  0.00     0.026 C 
HETATM   15  C16 UNL     1      35.883  41.272  44.166  1.00  0.00     0.011 C 
HETATM   16  C17 UNL     1      35.038  40.864  45.357  1.00  0.00     0.103 C 
HETATM   17  C18 UNL     1      33.610  40.842  44.917  1.00  0.00     0.219 C 
HETATM   18  O4  UNL     1      32.809  40.140  45.598  1.00  0.00    -0.273 OA
HETATM   19  N1  UNL     1      33.152  41.568  43.790  1.00  0.00    -0.352 N 
HETATM   20  C19 UNL     1      31.754  41.517  43.431  1.00  0.00     0.153 C 
ENDBRANCH  12  13
ENDBRANCH  11  12
ENDBRANCH   8  11
ENDBRANCH   7   8
ENDBRANCH   4   6
BRANCH   3  21
HETATM   21  O2  UNL     1      28.213  43.930  37.085  1.00  0.00    -0.395 OA
ATOM     22  H2  UNL     1      28.433  43.114  36.653  1.00  0.00     0.210 HD
ENDBRANCH   3  21
BRANCH   1  23
HETATM   23  C4  UNL     1      30.459  45.769  34.739  1.00  0.00    -0.019 C 
HETATM   24  C3  UNL     1      29.306  46.030  34.120  1.00  0.00     0.033 C 
BRANCH  24  25
HETATM   25  C2  UNL     1      29.120  45.663  32.736  1.00  0.00     0.064 C 
HETATM   26  C21 UNL     1      29.397  46.412  31.714  1.00  0.00     0.012 C 
BRANCH  25  27
HETATM   27  O1  UNL     1      28.594  44.383  32.458  1.00  0.00    -0.356 OA
HETATM   28  C1  UNL     1      28.136  43.575  33.545  1.00  0.00     0.210 C 
ENDBRANCH  25  27
BRANCH  26  29
HETATM   29  C22 UNL     1      29.948  47.763  31.816  1.00  0.00     0.056 C 
BRANCH  29  30
HETATM   30  C23 UNL     1      29.876  48.516  30.497  1.00  0.00     0.168 C 
BRANCH  30  31
HETATM   31  O5  UNL     1      28.546  48.833  30.197  1.00  0.00    -0.401 OA
ATOM     32  H5  UNL     1      28.431  49.776  30.181  1.00  0.00     0.209 HD
ENDBRANCH  30  31
ENDBRANCH  29  30
ENDBRANCH  26  29
ENDBRANCH  24  25
ENDBRANCH   1  23
TORSDOF 13
ENDMDL
MODEL 5
REMARK VINA RESULT: -8.242202276      1.961      3.046
REMARK  13 active torsions:
REMARK  status: ('A' for Active; 'I' for Inactive)
REMARK    1  A    between atoms: O1_2  and  C2_3 
REMARK    2  A    between atoms: C2_3  and  C3_4 
REMARK    3  A    between atoms: C4_5  and  C5_6 
REMARK    4  A    between atoms: C7_8  and  O2_9 
REMARK    5  A    between atoms: C8_11  and  C9_12 
REMARK    6  A    between atoms: C10_13  and  C11_14 
REMARK    7  A    between atoms: C11_14  and  O3_15 
REMARK    8  A    between atoms: C11_14  and  C12_17 
REMARK    9  A    between atoms: C12_17  and  C13_18 
REMARK   10  A    between atoms: C13_18  and  C14_19 
REMARK   11  A    between atoms: C21_28  and  C22_29 
REMARK   12  A    between atoms: C22_29  and  C23_30 
REMARK   13  A    between atoms: C23_30  and  O5_31 
ROOT
HETATM    1  C5  UNL     1      32.715  42.089  38.091  1.00  0.00     0.011 C 
HETATM    2  C6  UNL     1      31.353  41.532  38.404  1.00  0.00     0.041 C 
HETATM    3  C7  UNL     1      30.441  42.715  38.466  1.00  0.00     0.126 C 
HETATM    4  C8  UNL     1      31.287  43.940  38.269  1.00  0.00     0.037 C 
HETATM    5  C20 UNL     1      32.405  43.391  37.405  1.00  0.00     0.019 C 
ENDROOT
BRANCH   4   6
HETATM    6  C9  UNL     1      30.627  45.061  37.599  1.00  0.00    -0.021 C 
HETATM    7  C10 UNL     1      29.347  45.171  37.380  1.00  0.00     0.001 C 
BRANCH   7   8
HETATM    8  C11 UNL     1      28.745  46.362  36.680  1.00  0.00     0.140 C 
BRANCH   8   9
HETATM    9  O3  UNL     1      29.722  47.348  36.644  1.00  0.00    -0.392 OA
ATOM     10  H3  UNL     1      29.294  48.153  36.380  1.00  0.00     0.210 HD
ENDBRANCH   8   9
BRANCH   8  11
HETATM   11  C12 UNL     1      28.381  45.971  35.273  1.00  0.00     0.037 C 
BRANCH  11  12
HETATM   12  C13 UNL     1      29.567  45.624  34.411  1.00  0.00     0.028 C 
BRANCH  12  13
HETATM   13  C14 UNL     1      29.799  46.611  33.300  1.00  0.00     0.086 C 
HETATM   14  C15 UNL     1      29.020  46.263  32.049  1.00  0.00     0.026 C 
HETATM   15  C16 UNL     1      29.670  45.094  31.358  1.00  0.00     0.011 C 
HETATM   16  C17 UNL     1      30.947  45.591  30.710  1.00  0.00     0.103 C 
HETATM   17  C18 UNL     1      31.782  46.225  31.774  1.00  0.00     0.219 C 
HETATM   18  O4  UNL     1      33.024  46.318  31.553  1.00  0.00    -0.273 OA
HETATM   19  N1  UNL     1      31.229  46.710  32.985  1.00  0.00    -0.352 N 
HETATM   20  C19 UNL     1      32.093  47.329  33.964  1.00  0.00     0.153 C 
ENDBRANCH  12  13
ENDBRANCH  11  12
ENDBRANCH   8  11
ENDBRANCH   7   8
ENDBRANCH   4   6
BRANCH   3  21
HETATM   21  O2  UNL     1      29.743  42.704  39.658  1.00  0.00    -0.395 OA
ATOM     22  H2  UNL     1      29.251  43.511  39.748  1.00  0.00     0.210 HD
ENDBRANCH   3  21
BRANCH   1  23
HETATM   23  C4  UNL     1      33.449  42.387  39.347  1.00  0.00    -0.019 C 
HETATM   24  C3  UNL     1      33.094  41.787  40.485  1.00  0.00     0.033 C 
BRANCH  24  25
HETATM   25  C2  UNL     1      33.800  42.070  41.712  1.00  0.00     0.064 C 
HETATM   26  C21 UNL     1      33.458  41.653  42.892  1.00  0.00     0.012 C 
BRANCH  25  27
HETATM   27  O1  UNL     1      34.964  42.864  41.635  1.00  0.00    -0.356 OA
HETATM   28  C1  UNL     1      35.720  43.095  42.828  1.00  0.00     0.210 C 
ENDBRANCH  25  27
BRANCH  26  29
HETATM   29  C22 UNL     1      32.284  40.822  43.157  1.00  0.00     0.056 C 
BRANCH  29  30
HETATM   30  C23 UNL     1      31.197  41.580  43.901  1.00  0.00     0.168 C 
BRANCH  30  31
HETATM   31  O5  UNL     1      31.563  41.754  45.241  1.00  0.00    -0.401 OA
ATOM     32  H5  UNL     1      30.818  41.593  45.806  1.00  0.00     0.209 HD
ENDBRANCH  30  31
ENDBRANCH  29  30
ENDBRANCH  26  29
ENDBRANCH  24  25
ENDBRANCH   1  23
TORSDOF 13
ENDMDL
