MODEL 1
REMARK VINA RESULT: -8.159130334      0.000      0.000
REMARK  10 active torsions:
REMARK  status: ('A' for Active; 'I' for Inactive)
REMARK    1  A    between atoms: C1_2  and  C2_4 
REMARK    2  A    between atoms: C2_4  and  C3_5 
REMARK    3  A    between atoms: C3_5  and  C4_6 
REMARK    4  A    between atoms: C3_5  and  N1_11 
REMARK    5  A    between atoms: C4_6  and  C5_8 
REMARK    6  A    between atoms: N1_11  and  C6_12 
REMARK    7  A    between atoms: N1_11  and  C13_19 
REMARK    8  A    between atoms: C13_19  and  C14_20 
REMARK    9  A    between atoms: C13_19  and  C21_27 
REMARK   10  A    between atoms: C14_20  and  C15_21 
ROOT
HETATM    1  N1  UNL     1      32.603  41.052  41.841  1.00  0.00    -0.311 N 
ENDROOT
BRANCH   1   2
HETATM    2  C3  UNL     1      31.972  39.892  41.275  1.00  0.00     0.084 C 
BRANCH   2   3
HETATM    3  C2  UNL     1      32.730  38.977  40.405  1.00  0.00     0.175 C 
BRANCH   3   4
HETATM    4  C1  UNL     1      32.359  39.083  38.945  1.00  0.00     0.178 C 
HETATM    5  O1  UNL     1      31.178  39.267  38.603  1.00  0.00    -0.648 OA
HETATM    6  O2  UNL     1      33.328  38.973  37.959  1.00  0.00    -0.648 OA
ENDBRANCH   3   4
ENDBRANCH   2   3
BRANCH   2   7
HETATM    7  C4  UNL     1      30.797  39.327  41.956  1.00  0.00     0.271 C 
HETATM    8  O3  UNL     1      29.610  39.709  41.664  1.00  0.00    -0.279 OA
BRANCH   7   9
HETATM    9  C5  UNL     1      30.831  38.330  42.984  1.00  0.00     0.253 C 
HETATM   10  O4  UNL     1      31.800  37.865  43.595  1.00  0.00    -0.642 OA
HETATM   11  O5  UNL     1      29.598  37.764  43.395  1.00  0.00    -0.642 OA
ENDBRANCH   7   9
ENDBRANCH   2   7
ENDBRANCH   1   2
BRANCH   1  12
HETATM   12  C6  UNL     1      32.559  42.207  41.029  1.00  0.00     0.027 C 
HETATM   13  C7  UNL     1      31.238  42.357  40.217  1.00  0.00     0.137 C 
HETATM   14  C8  UNL     1      31.585  42.695  38.895  1.00  0.00    -0.177 C 
HETATM   15  C9  UNL     1      31.976  43.033  37.588  1.00  0.00     0.084 C 
HETATM   16  C10 UNL     1      33.547  43.039  37.633  1.00  0.00     0.038 C 
HETATM   17  C11 UNL     1      34.046  42.285  38.854  1.00  0.00    -0.024 C 
HETATM   18  C12 UNL     1      33.727  42.620  40.216  1.00  0.00     0.022 C 
ENDBRANCH   1  12
BRANCH   1  19
HETATM   19  C13 UNL     1      32.654  41.082  43.216  1.00  0.00     0.094 C 
BRANCH  19  20
HETATM   20  C14 UNL     1      33.926  41.184  43.995  1.00  0.00     0.069 C 
BRANCH  20  21
HETATM   21  C15 UNL     1      35.218  40.903  43.377  1.00  0.00    -0.009 C 
HETATM   22  C16 UNL     1      35.439  39.533  42.816  1.00  0.00     0.005 C 
HETATM   23  C17 UNL     1      36.517  38.747  43.536  1.00  0.00     0.000 C 
HETATM   24  C18 UNL     1      37.826  39.487  43.426  1.00  0.00     0.000 C 
HETATM   25  C19 UNL     1      37.651  40.892  43.937  1.00  0.00     0.000 C 
HETATM   26  C20 UNL     1      36.275  41.086  44.480  1.00  0.00     0.005 C 
ENDBRANCH  20  21
ENDBRANCH  19  20
BRANCH  19  27
HETATM   27  C21 UNL     1      31.541  41.642  44.024  1.00  0.00     0.223 C 
HETATM   28  O6  UNL     1      30.564  42.312  43.685  1.00  0.00    -0.643 OA
HETATM   29  O7  UNL     1      31.571  41.387  45.414  1.00  0.00    -0.643 OA
ENDBRANCH  19  27
ENDBRANCH   1  19
TORSDOF 10
ENDMDL
MODEL 2
REMARK VINA RESULT: -8.082229124      1.884      6.556
REMARK  10 active torsions:
REMARK  status: ('A' for Active; 'I' for Inactive)
REMARK    1  A    between atoms: C1_2  and  C2_4 
REMARK    2  A    between atoms: C2_4  and  C3_5 
REMARK    3  A    between atoms: C3_5  and  C4_6 
REMARK    4  A    between atoms: C3_5  and  N1_11 
REMARK    5  A    between atoms: C4_6  and  C5_8 
REMARK    6  A    between atoms: N1_11  and  C6_12 
REMARK    7  A    between atoms: N1_11  and  C13_19 
REMARK    8  A    between atoms: C13_19  and  C14_20 
REMARK    9  A    between atoms: C13_19  and  C21_27 
REMARK   10  A    between atoms: C14_20  and  C15_21 
ROOT
HETATM    1  N1  UNL     1      34.776  40.052  42.953  1.00  0.00    -0.311 N 
ENDROOT
BRANCH   1   2
HETATM    2  C3  UNL     1      34.282  40.495  44.229  1.00  0.00     0.084 C 
BRANCH   2   3
HETATM    3  C2  UNL     1      35.037  41.478  45.023  1.00  0.00     0.175 C 
BRANCH   3   4
HETATM    4  C1  UNL     1      35.479  40.956  46.370  1.00  0.00     0.178 C 
HETATM    5  O1  UNL     1      36.674  40.688  46.585  1.00  0.00    -0.648 OA
HETATM    6  O2  UNL     1      34.560  40.765  47.390  1.00  0.00    -0.648 OA
ENDBRANCH   3   4
ENDBRANCH   2   3
BRANCH   2   7
HETATM    7  C4  UNL     1      32.838  40.408  44.493  1.00  0.00     0.271 C 
HETATM    8  O3  UNL     1      32.297  39.315  44.884  1.00  0.00    -0.279 OA
BRANCH   7   9
HETATM    9  C5  UNL     1      31.899  41.481  44.349  1.00  0.00     0.253 C 
HETATM   10  O4  UNL     1      31.683  42.209  43.374  1.00  0.00    -0.642 OA
HETATM   11  O5  UNL     1      31.077  41.791  45.461  1.00  0.00    -0.642 OA
ENDBRANCH   7   9
ENDBRANCH   2   7
ENDBRANCH   1   2
BRANCH   1  12
HETATM   12  C6  UNL     1      35.722  39.006  43.014  1.00  0.00     0.027 C 
HETATM   13  C7  UNL     1      35.451  37.976  44.151  1.00  0.00     0.137 C 
HETATM   14  C8  UNL     1      36.672  37.735  44.808  1.00  0.00    -0.177 C 
HETATM   15  C9  UNL     1      37.911  37.522  45.436  1.00  0.00     0.084 C 
HETATM   16  C10 UNL     1      38.908  38.473  44.678  1.00  0.00     0.038 C 
HETATM   17  C11 UNL     1      38.144  39.538  43.909  1.00  0.00    -0.024 C 
HETATM   18  C12 UNL     1      37.173  39.274  42.880  1.00  0.00     0.022 C 
ENDBRANCH   1  12
BRANCH   1  19
HETATM   19  C13 UNL     1      33.925  40.258  41.890  1.00  0.00     0.094 C 
BRANCH  19  20
HETATM   20  C14 UNL     1      34.083  41.375  40.909  1.00  0.00     0.069 C 
BRANCH  20  21
HETATM   21  C15 UNL     1      33.256  41.453  39.709  1.00  0.00    -0.009 C 
HETATM   22  C16 UNL     1      33.941  41.728  38.407  1.00  0.00     0.005 C 
HETATM   23  C17 UNL     1      33.556  43.056  37.784  1.00  0.00     0.000 C 
HETATM   24  C18 UNL     1      32.073  43.064  37.515  1.00  0.00     0.000 C 
HETATM   25  C19 UNL     1      31.331  42.747  38.786  1.00  0.00     0.000 C 
HETATM   26  C20 UNL     1      32.279  42.622  39.930  1.00  0.00     0.005 C 
ENDBRANCH  20  21
ENDBRANCH  19  20
BRANCH  19  27
HETATM   27  C21 UNL     1      33.209  39.133  41.238  1.00  0.00     0.223 C 
HETATM   28  O6  UNL     1      33.621  38.252  40.482  1.00  0.00    -0.643 OA
HETATM   29  O7  UNL     1      31.825  39.021  41.501  1.00  0.00    -0.643 OA
ENDBRANCH  19  27
ENDBRANCH   1  19
TORSDOF 10
ENDMDL
MODEL 3
REMARK VINA RESULT: -8.046636505      1.176      5.529
REMARK  10 active torsions:
REMARK  status: ('A' for Active; 'I' for Inactive)
REMARK    1  A    between atoms: C1_2  and  C2_4 
REMARK    2  A    between atoms: C2_4  and  C3_5 
REMARK    3  A    between atoms: C3_5  and  C4_6 
REMARK    4  A    between atoms: C3_5  and  N1_11 
REMARK    5  A    between atoms: C4_6  and  C5_8 
REMARK    6  A    between atoms: N1_11  and  C6_12 
REMARK    7  A    between atoms: N1_11  and  C13_19 
REMARK    8  A    between atoms: C13_19  and  C14_20 
REMARK    9  A    between atoms: C13_19  and  C21_27 
REMARK   10  A    between atoms: C14_20  and  C15_21 
ROOT
HETATM    1  N1  UNL     1      33.339  40.470  42.905  1.00  0.00    -0.311 N 
ENDROOT
BRANCH   1   2
HETATM    2  C3  UNL     1      32.049  40.143  43.448  1.00  0.00     0.084 C 
BRANCH   2   3
HETATM    3  C2  UNL     1      31.864  38.926  44.255  1.00  0.00     0.175 C 
BRANCH   3   4
HETATM    4  C1  UNL     1      31.074  37.847  43.551  1.00  0.00     0.178 C 
HETATM    5  O1  UNL     1      29.857  37.990  43.339  1.00  0.00    -0.648 OA
HETATM    6  O2  UNL     1      31.691  36.679  43.131  1.00  0.00    -0.648 OA
ENDBRANCH   3   4
ENDBRANCH   2   3
BRANCH   2   7
HETATM    7  C4  UNL     1      31.083  41.229  43.669  1.00  0.00     0.271 C 
HETATM    8  O3  UNL     1      30.950  41.780  44.817  1.00  0.00    -0.279 OA
BRANCH   7   9
HETATM    9  C5  UNL     1      30.206  41.778  42.677  1.00  0.00     0.253 C 
HETATM   10  O4  UNL     1      29.669  42.891  42.633  1.00  0.00    -0.642 OA
HETATM   11  O5  UNL     1      29.878  40.964  41.564  1.00  0.00    -0.642 OA
ENDBRANCH   7   9
ENDBRANCH   2   7
ENDBRANCH   1   2
BRANCH   1  12
HETATM   12  C6  UNL     1      34.427  40.215  43.768  1.00  0.00     0.027 C 
HETATM   13  C7  UNL     1      35.254  41.484  44.133  1.00  0.00     0.137 C 
HETATM   14  C8  UNL     1      36.617  41.160  43.996  1.00  0.00    -0.177 C 
HETATM   15  C9  UNL     1      37.965  40.794  43.848  1.00  0.00     0.084 C 
HETATM   16  C10 UNL     1      37.920  39.303  43.352  1.00  0.00     0.038 C 
HETATM   17  C11 UNL     1      36.541  38.967  42.808  1.00  0.00    -0.024 C 
HETATM   18  C12 UNL     1      35.317  39.049  43.559  1.00  0.00     0.022 C 
ENDBRANCH   1  12
BRANCH   1  19
HETATM   19  C13 UNL     1      33.423  40.437  41.531  1.00  0.00     0.094 C 
BRANCH  19  20
HETATM   20  C14 UNL     1      34.353  41.299  40.739  1.00  0.00     0.069 C 
BRANCH  20  21
HETATM   21  C15 UNL     1      33.860  42.433  39.963  1.00  0.00    -0.009 C 
HETATM   22  C16 UNL     1      32.433  42.842  40.155  1.00  0.00     0.005 C 
HETATM   23  C17 UNL     1      31.573  42.654  38.921  1.00  0.00     0.000 C 
HETATM   24  C18 UNL     1      32.128  43.495  37.800  1.00  0.00     0.000 C 
HETATM   25  C19 UNL     1      33.580  43.157  37.591  1.00  0.00     0.000 C 
HETATM   26  C20 UNL     1      33.992  42.035  38.482  1.00  0.00     0.005 C 
ENDBRANCH  20  21
ENDBRANCH  19  20
BRANCH  19  27
HETATM   27  C21 UNL     1      33.132  39.200  40.763  1.00  0.00     0.223 C 
HETATM   28  O6  UNL     1      33.645  38.082  40.822  1.00  0.00    -0.643 OA
HETATM   29  O7  UNL     1      32.104  39.278  39.796  1.00  0.00    -0.643 OA
ENDBRANCH  19  27
ENDBRANCH   1  19
TORSDOF 10
ENDMDL
MODEL 4
REMARK VINA RESULT: -8.014308391      1.834      6.492
REMARK  10 active torsions:
REMARK  status: ('A' for Active; 'I' for Inactive)
REMARK    1  A    between atoms: C1_2  and  C2_4 
REMARK    2  A    between atoms: C2_4  and  C3_5 
REMARK    3  A    between atoms: C3_5  and  C4_6 
REMARK    4  A    between atoms: C3_5  and  N1_11 
REMARK    5  A    between atoms: C4_6  and  C5_8 
REMARK    6  A    between atoms: N1_11  and  C6_12 
REMARK    7  A    between atoms: N1_11  and  C13_19 
REMARK    8  A    between atoms: C13_19  and  C14_20 
REMARK    9  A    between atoms: C13_19  and  C21_27 
REMARK   10  A    between atoms: C14_20  and  C15_21 
ROOT
HETATM    1  N1  UNL     1      32.968  41.832  40.983  1.00  0.00    -0.311 N 
ENDROOT
BRANCH   1   2
HETATM    2  C3  UNL     1      31.814  41.342  41.687  1.00  0.00     0.084 C 
BRANCH   2   3
HETATM    3  C2  UNL     1      31.357  42.001  42.921  1.00  0.00     0.175 C 
BRANCH   3   4
HETATM    4  C1  UNL     1      31.383  41.100  44.134  1.00  0.00     0.178 C 
HETATM    5  O1  UNL     1      31.561  41.572  45.270  1.00  0.00    -0.648 OA
HETATM    6  O2  UNL     1      31.212  39.730  44.001  1.00  0.00    -0.648 OA
ENDBRANCH   3   4
ENDBRANCH   2   3
BRANCH   2   7
HETATM    7  C4  UNL     1      30.806  40.576  40.940  1.00  0.00     0.271 C 
HETATM    8  O3  UNL     1      31.087  39.443  40.413  1.00  0.00    -0.279 OA
BRANCH   7   9
HETATM    9  C5  UNL     1      29.451  40.982  40.713  1.00  0.00     0.253 C 
HETATM   10  O4  UNL     1      28.401  40.486  41.137  1.00  0.00    -0.642 OA
HETATM   11  O5  UNL     1      29.231  42.113  39.887  1.00  0.00    -0.642 OA
ENDBRANCH   7   9
ENDBRANCH   2   7
ENDBRANCH   1   2
BRANCH   1  12
HETATM   12  C6  UNL     1      34.208  41.404  41.506  1.00  0.00     0.027 C 
HETATM   13  C7  UNL     1      34.230  39.906  41.931  1.00  0.00     0.137 C 
HETATM   14  C8  UNL     1      34.837  39.831  43.199  1.00  0.00    -0.177 C 
HETATM   15  C9  UNL     1      35.450  39.801  44.463  1.00  0.00     0.084 C 
HETATM   16  C10 UNL     1      35.752  41.308  44.793  1.00  0.00     0.038 C 
HETATM   17  C11 UNL     1      34.920  42.222  43.908  1.00  0.00    -0.024 C 
HETATM   18  C12 UNL     1      34.964  42.237  42.470  1.00  0.00     0.022 C 
ENDBRANCH   1  12
BRANCH   1  19
HETATM   19  C13 UNL     1      32.759  42.144  39.658  1.00  0.00     0.094 C 
BRANCH  19  20
HETATM   20  C14 UNL     1      32.447  43.523  39.173  1.00  0.00     0.069 C 
BRANCH  20  21
HETATM   21  C15 UNL     1      32.001  43.762  37.804  1.00  0.00    -0.009 C 
HETATM   22  C16 UNL     1      32.778  44.739  36.978  1.00  0.00     0.005 C 
HETATM   23  C17 UNL     1      31.991  45.977  36.597  1.00  0.00     0.000 C 
HETATM   24  C18 UNL     1      30.789  45.568  35.785  1.00  0.00     0.000 C 
HETATM   25  C19 UNL     1      29.990  44.548  36.551  1.00  0.00     0.000 C 
HETATM   26  C20 UNL     1      30.575  44.332  37.905  1.00  0.00     0.005 C 
ENDBRANCH  20  21
ENDBRANCH  19  20
BRANCH  19  27
HETATM   27  C21 UNL     1      33.412  41.378  38.566  1.00  0.00     0.223 C 
HETATM   28  O6  UNL     1      33.063  40.344  37.995  1.00  0.00    -0.643 OA
HETATM   29  O7  UNL     1      34.636  41.886  38.075  1.00  0.00    -0.643 OA
ENDBRANCH  19  27
ENDBRANCH   1  19
TORSDOF 10
ENDMDL
MODEL 5
REMARK VINA RESULT: -8.008099383      1.785      5.197
REMARK  10 active torsions:
REMARK  status: ('A' for Active; 'I' for Inactive)
REMARK    1  A    between atoms: C1_2  and  C2_4 
REMARK    2  A    between atoms: C2_4  and  C3_5 
REMARK    3  A    between atoms: C3_5  and  C4_6 
REMARK    4  A    between atoms: C3_5  and  N1_11 
REMARK    5  A    between atoms: C4_6  and  C5_8 
REMARK    6  A    between atoms: N1_11  and  C6_12 
REMARK    7  A    between atoms: N1_11  and  C13_19 
REMARK    8  A    between atoms: C13_19  and  C14_20 
REMARK    9  A    between atoms: C13_19  and  C21_27 
REMARK   10  A    between atoms: C14_20  and  C15_21 
ROOT
HETATM    1  N1  UNL     1      32.369  40.953  42.062  1.00  0.00    -0.311 N 
ENDROOT
BRANCH   1   2
HETATM    2  C3  UNL     1      31.991  40.062  43.126  1.00  0.00     0.084 C 
BRANCH   2   3
HETATM    3  C2  UNL     1      31.990  38.605  42.915  1.00  0.00     0.175 C 
BRANCH   3   4
HETATM    4  C1  UNL     1      30.771  37.912  43.478  1.00  0.00     0.178 C 
HETATM    5  O1  UNL     1      29.629  38.325  43.213  1.00  0.00    -0.648 OA
HETATM    6  O2  UNL     1      30.905  36.806  44.303  1.00  0.00    -0.648 OA
ENDBRANCH   3   4
ENDBRANCH   2   3
BRANCH   2   7
HETATM    7  C4  UNL     1      32.130  40.524  44.514  1.00  0.00     0.271 C 
HETATM    8  O3  UNL     1      31.424  41.492  44.968  1.00  0.00    -0.279 OA
BRANCH   7   9
HETATM    9  C5  UNL     1      33.031  39.981  45.486  1.00  0.00     0.253 C 
HETATM   10  O4  UNL     1      33.021  38.873  46.035  1.00  0.00    -0.642 OA
HETATM   11  O5  UNL     1      34.109  40.796  45.915  1.00  0.00    -0.642 OA
ENDBRANCH   7   9
ENDBRANCH   2   7
ENDBRANCH   1   2
BRANCH   1  12
HETATM   12  C6  UNL     1      33.752  40.983  41.779  1.00  0.00     0.027 C 
HETATM   13  C7  UNL     1      34.499  39.663  42.136  1.00  0.00     0.137 C 
HETATM   14  C8  UNL     1      35.679  40.012  42.820  1.00  0.00    -0.177 C 
HETATM   15  C9  UNL     1      36.846  40.404  43.497  1.00  0.00     0.084 C 
HETATM   16  C10 UNL     1      36.755  41.972  43.569  1.00  0.00     0.038 C 
HETATM   17  C11 UNL     1      35.330  42.433  43.314  1.00  0.00    -0.024 C 
HETATM   18  C12 UNL     1      34.580  42.165  42.116  1.00  0.00     0.022 C 
ENDBRANCH   1  12
BRANCH   1  19
HETATM   19  C13 UNL     1      31.388  41.206  41.131  1.00  0.00     0.094 C 
BRANCH  19  20
HETATM   20  C14 UNL     1      31.371  40.602  39.763  1.00  0.00     0.069 C 
BRANCH  20  21
HETATM   21  C15 UNL     1      31.785  41.367  38.592  1.00  0.00    -0.009 C 
HETATM   22  C16 UNL     1      33.176  41.159  38.079  1.00  0.00     0.005 C 
HETATM   23  C17 UNL     1      34.059  42.386  38.194  1.00  0.00     0.000 C 
HETATM   24  C18 UNL     1      33.453  43.507  37.389  1.00  0.00     0.000 C 
HETATM   25  C19 UNL     1      32.033  43.733  37.833  1.00  0.00     0.000 C 
HETATM   26  C20 UNL     1      31.697  42.852  38.989  1.00  0.00     0.005 C 
ENDBRANCH  20  21
ENDBRANCH  19  20
BRANCH  19  27
HETATM   27  C21 UNL     1      29.998  41.538  41.535  1.00  0.00     0.223 C 
HETATM   28  O6  UNL     1      29.574  42.395  42.312  1.00  0.00    -0.643 OA
HETATM   29  O7  UNL     1      28.965  40.766  40.957  1.00  0.00    -0.643 OA
ENDBRANCH  19  27
ENDBRANCH   1  19
TORSDOF 10
ENDMDL
