MODEL 1
REMARK VINA RESULT: -8.283216858      0.000      0.000
REMARK  13 active torsions:
REMARK  status: ('A' for Active; 'I' for Inactive)
REMARK    1  A    between atoms: C2_2  and  C4_4 
REMARK    2  A    between atoms: N1_8  and  C7_9 
REMARK    3  A    between atoms: C7_9  and  C8_10 
REMARK    4  A    between atoms: C8_10  and  C9_11 
REMARK    5  A    between atoms: C9_11  and  C10_12 
REMARK    6  A    between atoms: C9_11  and  C12_16 
REMARK    7  A    between atoms: C10_12  and  C11_13 
REMARK    8  A    between atoms: C12_16  and  O4_17 
REMARK    9  A    between atoms: C12_16  and  N2_19 
REMARK   10  A    between atoms: N2_19  and  C13_21 
REMARK   11  A    between atoms: C13_21  and  C14_22 
REMARK   12  A    between atoms: C13_21  and  C21_29 
REMARK   13  A    between atoms: C14_22  and  C15_23 
ROOT
HETATM    1  C12 UNL     1      27.915  45.793  36.401  1.00  0.00     0.143 C 
ENDROOT
BRANCH   1   2
HETATM    2  C9  UNL     1      28.922  46.694  36.808  1.00  0.00     0.000 C 
BRANCH   2   3
HETATM    3  C8  UNL     1      29.726  47.406  36.115  1.00  0.00     0.015 C 
BRANCH   3   4
HETATM    4  C7  UNL     1      29.969  47.648  34.702  1.00  0.00     0.304 C 
BRANCH   4   5
HETATM    5  N1  UNL     1      30.635  46.521  34.071  1.00  0.00     0.126 N 
HETATM    6  C4  UNL     1      31.204  46.728  32.788  1.00  0.00     0.388 C 
HETATM    7  O1  UNL     1      31.821  47.968  32.992  1.00  0.00    -0.352 OA
HETATM    8  C5  UNL     1      32.605  47.697  34.130  1.00  0.00     0.201 C 
HETATM    9  C6  UNL     1      31.939  46.502  34.830  1.00  0.00     0.303 C 
BRANCH   6  10
HETATM   10  C2  UNL     1      30.412  46.569  31.601  1.00  0.00    -0.035 C 
HETATM   11  C1  UNL     1      30.223  45.461  30.906  1.00  0.00     0.018 C 
HETATM   12  C3  UNL     1      29.753  47.827  31.061  1.00  0.00     0.047 C 
ENDBRANCH   6  10
ENDBRANCH   4   5
ENDBRANCH   3   4
ENDBRANCH   2   3
BRANCH   2  13
HETATM   13  C10 UNL     1      29.051  46.880  38.328  1.00  0.00     0.155 C 
BRANCH  13  14
HETATM   14  C11 UNL     1      28.254  48.028  38.735  1.00  0.00     0.177 C 
HETATM   15  O2  UNL     1      28.483  48.675  39.768  1.00  0.00    -0.648 OA
HETATM   16  O3  UNL     1      27.171  48.442  37.942  1.00  0.00    -0.648 OA
ENDBRANCH  13  14
ENDBRANCH   2  13
ENDBRANCH   1   2
BRANCH   1  17
HETATM   17  O4  UNL     1      26.822  46.326  35.910  1.00  0.00    -0.346 OA
ATOM     18  H4  UNL     1      26.009  46.094  36.343  1.00  0.00     0.219 HD
ENDBRANCH   1  17
BRANCH   1  19
HETATM   19  N2  UNL     1      27.864  44.397  36.421  1.00  0.00    -0.356 N 
ATOM     20  H2  UNL     1      27.086  43.918  36.876  1.00  0.00     0.162 HD
BRANCH  19  21
HETATM   21  C13 UNL     1      28.983  43.593  35.758  1.00  0.00     0.185 C 
BRANCH  21  22
HETATM   22  C14 UNL     1      29.653  42.842  36.837  1.00  0.00     0.040 C 
BRANCH  22  23
HETATM   23  C15 UNL     1      31.119  42.698  36.895  1.00  0.00    -0.012 C 
HETATM   24  C16 UNL     1      31.697  43.865  37.759  1.00  0.00     0.005 C 
HETATM   25  C17 UNL     1      33.187  43.842  37.498  1.00  0.00     0.000 C 
HETATM   26  C18 UNL     1      33.735  42.664  38.293  1.00  0.00     0.000 C 
HETATM   27  C19 UNL     1      32.618  41.742  38.711  1.00  0.00     0.000 C 
HETATM   28  C20 UNL     1      31.634  41.459  37.594  1.00  0.00     0.005 C 
ENDBRANCH  22  23
ENDBRANCH  21  22
BRANCH  21  29
HETATM   29  C21 UNL     1      28.387  42.922  34.628  1.00  0.00     0.196 C 
HETATM   30  O5  UNL     1      28.276  43.519  33.486  1.00  0.00    -0.646 OA
HETATM   31  O6  UNL     1      27.886  41.620  34.587  1.00  0.00    -0.646 OA
ENDBRANCH  21  29
ENDBRANCH  19  21
ENDBRANCH   1  19
TORSDOF 13
ENDMDL
MODEL 2
REMARK VINA RESULT: -7.928785022      3.004      7.357
REMARK  13 active torsions:
REMARK  status: ('A' for Active; 'I' for Inactive)
REMARK    1  A    between atoms: C2_2  and  C4_4 
REMARK    2  A    between atoms: N1_8  and  C7_9 
REMARK    3  A    between atoms: C7_9  and  C8_10 
REMARK    4  A    between atoms: C8_10  and  C9_11 
REMARK    5  A    between atoms: C9_11  and  C10_12 
REMARK    6  A    between atoms: C9_11  and  C12_16 
REMARK    7  A    between atoms: C10_12  and  C11_13 
REMARK    8  A    between atoms: C12_16  and  O4_17 
REMARK    9  A    between atoms: C12_16  and  N2_19 
REMARK   10  A    between atoms: N2_19  and  C13_21 
REMARK   11  A    between atoms: C13_21  and  C14_22 
REMARK   12  A    between atoms: C13_21  and  C21_29 
REMARK   13  A    between atoms: C14_22  and  C15_23 
ROOT
HETATM    1  C12 UNL     1      29.336  44.567  37.695  1.00  0.00     0.143 C 
ENDROOT
BRANCH   1   2
HETATM    2  C9  UNL     1      30.179  43.486  38.033  1.00  0.00     0.000 C 
BRANCH   2   3
HETATM    3  C8  UNL     1      30.058  42.595  38.941  1.00  0.00     0.015 C 
BRANCH   3   4
HETATM    4  C7  UNL     1      30.543  42.401  40.299  1.00  0.00     0.304 C 
BRANCH   4   5
HETATM    5  N1  UNL     1      31.483  41.296  40.381  1.00  0.00     0.126 N 
HETATM    6  C4  UNL     1      32.640  41.475  41.183  1.00  0.00     0.388 C 
HETATM    7  O1  UNL     1      32.066  42.079  42.307  1.00  0.00    -0.352 OA
HETATM    8  C5  UNL     1      31.060  41.148  42.631  1.00  0.00     0.201 C 
HETATM    9  C6  UNL     1      30.759  40.378  41.335  1.00  0.00     0.303 C 
BRANCH   6  10
HETATM   10  C2  UNL     1      33.823  42.080  40.638  1.00  0.00    -0.035 C 
HETATM   11  C1  UNL     1      34.209  42.088  39.374  1.00  0.00     0.018 C 
HETATM   12  C3  UNL     1      34.756  42.747  41.634  1.00  0.00     0.047 C 
ENDBRANCH   6  10
ENDBRANCH   4   5
ENDBRANCH   3   4
ENDBRANCH   2   3
BRANCH   2  13
HETATM   13  C10 UNL     1      31.423  43.329  37.146  1.00  0.00     0.155 C 
BRANCH  13  14
HETATM   14  C11 UNL     1      32.192  44.565  37.185  1.00  0.00     0.177 C 
HETATM   15  O2  UNL     1      32.997  44.828  38.090  1.00  0.00    -0.648 OA
HETATM   16  O3  UNL     1      32.033  45.518  36.165  1.00  0.00    -0.648 OA
ENDBRANCH  13  14
ENDBRANCH   2  13
ENDBRANCH   1   2
BRANCH   1  17
HETATM   17  O4  UNL     1      29.383  45.610  38.488  1.00  0.00    -0.346 OA
ATOM     18  H4  UNL     1      29.192  45.451  39.405  1.00  0.00     0.219 HD
ENDBRANCH   1  17
BRANCH   1  19
HETATM   19  N2  UNL     1      28.436  44.739  36.640  1.00  0.00    -0.356 N 
ATOM     20  H2  UNL     1      27.689  44.061  36.486  1.00  0.00     0.162 HD
BRANCH  19  21
HETATM   21  C13 UNL     1      28.579  45.951  35.719  1.00  0.00     0.185 C 
BRANCH  21  22
HETATM   22  C14 UNL     1      28.449  45.444  34.340  1.00  0.00     0.040 C 
BRANCH  22  23
HETATM   23  C15 UNL     1      29.488  45.676  33.320  1.00  0.00    -0.012 C 
HETATM   24  C16 UNL     1      28.898  45.313  31.919  1.00  0.00     0.005 C 
HETATM   25  C17 UNL     1      30.094  45.256  30.995  1.00  0.00     0.000 C 
HETATM   26  C18 UNL     1      30.483  46.703  30.721  1.00  0.00     0.000 C 
HETATM   27  C19 UNL     1      29.838  47.624  31.726  1.00  0.00     0.000 C 
HETATM   28  C20 UNL     1      29.937  47.111  33.148  1.00  0.00     0.005 C 
ENDBRANCH  22  23
ENDBRANCH  21  22
BRANCH  21  29
HETATM   29  C21 UNL     1      27.692  46.964  36.238  1.00  0.00     0.196 C 
HETATM   30  O5  UNL     1      26.440  46.978  35.914  1.00  0.00    -0.646 OA
HETATM   31  O6  UNL     1      28.016  48.001  37.115  1.00  0.00    -0.646 OA
ENDBRANCH  21  29
ENDBRANCH  19  21
ENDBRANCH   1  19
TORSDOF 13
ENDMDL
MODEL 3
REMARK VINA RESULT: -7.924300863      2.906      7.289
REMARK  13 active torsions:
REMARK  status: ('A' for Active; 'I' for Inactive)
REMARK    1  A    between atoms: C2_2  and  C4_4 
REMARK    2  A    between atoms: N1_8  and  C7_9 
REMARK    3  A    between atoms: C7_9  and  C8_10 
REMARK    4  A    between atoms: C8_10  and  C9_11 
REMARK    5  A    between atoms: C9_11  and  C10_12 
REMARK    6  A    between atoms: C9_11  and  C12_16 
REMARK    7  A    between atoms: C10_12  and  C11_13 
REMARK    8  A    between atoms: C12_16  and  O4_17 
REMARK    9  A    between atoms: C12_16  and  N2_19 
REMARK   10  A    between atoms: N2_19  and  C13_21 
REMARK   11  A    between atoms: C13_21  and  C14_22 
REMARK   12  A    between atoms: C13_21  and  C21_29 
REMARK   13  A    between atoms: C14_22  and  C15_23 
ROOT
HETATM    1  C12 UNL     1      31.232  45.738  36.820  1.00  0.00     0.143 C 
ENDROOT
BRANCH   1   2
HETATM    2  C9  UNL     1      31.556  44.427  37.230  1.00  0.00     0.000 C 
BRANCH   2   3
HETATM    3  C8  UNL     1      32.523  43.999  37.947  1.00  0.00     0.015 C 
BRANCH   3   4
HETATM    4  C7  UNL     1      32.676  43.412  39.269  1.00  0.00     0.304 C 
BRANCH   4   5
HETATM    5  N1  UNL     1      33.962  42.753  39.419  1.00  0.00     0.126 N 
HETATM    6  C4  UNL     1      34.107  41.830  40.487  1.00  0.00     0.388 C 
HETATM    7  O1  UNL     1      32.898  41.135  40.375  1.00  0.00    -0.352 OA
HETATM    8  C5  UNL     1      32.937  40.738  39.025  1.00  0.00     0.201 C 
HETATM    9  C6  UNL     1      33.883  41.723  38.319  1.00  0.00     0.303 C 
BRANCH   6  10
HETATM   10  C2  UNL     1      34.495  42.278  41.795  1.00  0.00    -0.035 C 
HETATM   11  C1  UNL     1      35.457  43.132  42.097  1.00  0.00     0.018 C 
HETATM   12  C3  UNL     1      33.742  41.667  42.965  1.00  0.00     0.047 C 
ENDBRANCH   6  10
ENDBRANCH   4   5
ENDBRANCH   3   4
ENDBRANCH   2   3
BRANCH   2  13
HETATM   13  C10 UNL     1      30.570  43.340  36.773  1.00  0.00     0.155 C 
BRANCH  13  14
HETATM   14  C11 UNL     1      29.355  43.438  37.568  1.00  0.00     0.177 C 
HETATM   15  O2  UNL     1      28.275  43.832  37.102  1.00  0.00    -0.648 OA
HETATM   16  O3  UNL     1      29.378  43.079  38.926  1.00  0.00    -0.648 OA
ENDBRANCH  13  14
ENDBRANCH   2  13
ENDBRANCH   1   2
BRANCH   1  17
HETATM   17  O4  UNL     1      32.122  46.352  36.078  1.00  0.00    -0.346 OA
ATOM     18  H4  UNL     1      32.147  46.107  35.161  1.00  0.00     0.219 HD
ENDBRANCH   1  17
BRANCH   1  19
HETATM   19  N2  UNL     1      30.104  46.527  37.062  1.00  0.00    -0.356 N 
ATOM     20  H2  UNL     1      29.843  46.769  38.018  1.00  0.00     0.162 HD
BRANCH  19  21
HETATM   21  C13 UNL     1      29.266  47.023  35.884  1.00  0.00     0.185 C 
BRANCH  21  22
HETATM   22  C14 UNL     1      29.481  46.063  34.785  1.00  0.00     0.040 C 
BRANCH  22  23
HETATM   23  C15 UNL     1      29.309  46.443  33.371  1.00  0.00    -0.012 C 
HETATM   24  C16 UNL     1      30.586  47.215  32.906  1.00  0.00     0.005 C 
HETATM   25  C17 UNL     1      30.201  47.846  31.586  1.00  0.00     0.000 C 
HETATM   26  C18 UNL     1      30.219  46.719  30.561  1.00  0.00     0.000 C 
HETATM   27  C19 UNL     1      30.215  45.377  31.249  1.00  0.00     0.000 C 
HETATM   28  C20 UNL     1      29.216  45.298  32.386  1.00  0.00     0.005 C 
ENDBRANCH  22  23
ENDBRANCH  21  22
BRANCH  21  29
HETATM   29  C21 UNL     1      27.948  47.290  36.407  1.00  0.00     0.196 C 
HETATM   30  O5  UNL     1      27.789  48.016  37.465  1.00  0.00    -0.646 OA
HETATM   31  O6  UNL     1      26.728  46.852  35.887  1.00  0.00    -0.646 OA
ENDBRANCH  21  29
ENDBRANCH  19  21
ENDBRANCH   1  19
TORSDOF 13
ENDMDL
MODEL 4
REMARK VINA RESULT: -7.862359055      2.808      5.495
REMARK  13 active torsions:
REMARK  status: ('A' for Active; 'I' for Inactive)
REMARK    1  A    between atoms: C2_2  and  C4_4 
REMARK    2  A    between atoms: N1_8  and  C7_9 
REMARK    3  A    between atoms: C7_9  and  C8_10 
REMARK    4  A    between atoms: C8_10  and  C9_11 
REMARK    5  A    between atoms: C9_11  and  C10_12 
REMARK    6  A    between atoms: C9_11  and  C12_16 
REMARK    7  A    between atoms: C10_12  and  C11_13 
REMARK    8  A    between atoms: C12_16  and  O4_17 
REMARK    9  A    between atoms: C12_16  and  N2_19 
REMARK   10  A    between atoms: N2_19  and  C13_21 
REMARK   11  A    between atoms: C13_21  and  C14_22 
REMARK   12  A    between atoms: C13_21  and  C21_29 
REMARK   13  A    between atoms: C14_22  and  C15_23 
ROOT
HETATM    1  C12 UNL     1      30.455  45.763  37.139  1.00  0.00     0.143 C 
ENDROOT
BRANCH   1   2
HETATM    2  C9  UNL     1      31.678  45.122  36.850  1.00  0.00     0.000 C 
BRANCH   2   3
HETATM    3  C8  UNL     1      32.785  45.601  36.425  1.00  0.00     0.015 C 
BRANCH   3   4
HETATM    4  C7  UNL     1      33.195  46.619  35.471  1.00  0.00     0.304 C 
BRANCH   4   5
HETATM    5  N1  UNL     1      34.617  46.543  35.183  1.00  0.00     0.126 N 
HETATM    6  C4  UNL     1      35.085  47.185  34.007  1.00  0.00     0.388 C 
HETATM    7  O1  UNL     1      34.383  48.393  34.093  1.00  0.00    -0.352 OA
HETATM    8  C5  UNL     1      34.745  48.826  35.383  1.00  0.00     0.201 C 
HETATM    9  C6  UNL     1      35.158  47.562  36.155  1.00  0.00     0.303 C 
BRANCH   6  10
HETATM   10  C2  UNL     1      35.073  46.501  32.745  1.00  0.00    -0.035 C 
HETATM   11  C1  UNL     1      34.056  46.374  31.911  1.00  0.00     0.018 C 
HETATM   12  C3  UNL     1      36.365  45.808  32.345  1.00  0.00     0.047 C 
ENDBRANCH   6  10
ENDBRANCH   4   5
ENDBRANCH   3   4
ENDBRANCH   2   3
BRANCH   2  13
HETATM   13  C10 UNL     1      31.701  43.610  37.123  1.00  0.00     0.155 C 
BRANCH  13  14
HETATM   14  C11 UNL     1      32.823  43.302  37.996  1.00  0.00     0.177 C 
HETATM   15  O2  UNL     1      33.829  42.687  37.609  1.00  0.00    -0.648 OA
HETATM   16  O3  UNL     1      32.793  43.706  39.341  1.00  0.00    -0.648 OA
ENDBRANCH  13  14
ENDBRANCH   2  13
ENDBRANCH   1   2
BRANCH   1  17
HETATM   17  O4  UNL     1      29.600  45.084  37.865  1.00  0.00    -0.346 OA
ATOM     18  H4  UNL     1      29.030  45.593  38.430  1.00  0.00     0.219 HD
ENDBRANCH   1  17
BRANCH   1  19
HETATM   19  N2  UNL     1      29.971  47.026  36.788  1.00  0.00    -0.356 N 
ATOM     20  H2  UNL     1      30.329  47.861  37.252  1.00  0.00     0.162 HD
BRANCH  19  21
HETATM   21  C13 UNL     1      28.901  47.147  35.702  1.00  0.00     0.185 C 
BRANCH  21  22
HETATM   22  C14 UNL     1      29.073  45.980  34.816  1.00  0.00     0.040 C 
BRANCH  22  23
HETATM   23  C15 UNL     1      29.890  46.043  33.590  1.00  0.00    -0.012 C 
HETATM   24  C16 UNL     1      29.062  45.438  32.411  1.00  0.00     0.005 C 
HETATM   25  C17 UNL     1      30.063  45.235  31.295  1.00  0.00     0.000 C 
HETATM   26  C18 UNL     1      30.330  46.617  30.713  1.00  0.00     0.000 C 
HETATM   27  C19 UNL     1      29.847  47.691  31.655  1.00  0.00     0.000 C 
HETATM   28  C20 UNL     1      30.235  47.432  33.097  1.00  0.00     0.005 C 
ENDBRANCH  22  23
ENDBRANCH  21  22
BRANCH  21  29
HETATM   29  C21 UNL     1      27.655  47.400  36.385  1.00  0.00     0.196 C 
HETATM   30  O5  UNL     1      26.545  46.903  35.944  1.00  0.00    -0.646 OA
HETATM   31  O6  UNL     1      27.466  48.152  37.545  1.00  0.00    -0.646 OA
ENDBRANCH  21  29
ENDBRANCH  19  21
ENDBRANCH   1  19
TORSDOF 13
ENDMDL
MODEL 5
REMARK VINA RESULT: -7.793588219      3.991      8.387
REMARK  13 active torsions:
REMARK  status: ('A' for Active; 'I' for Inactive)
REMARK    1  A    between atoms: C2_2  and  C4_4 
REMARK    2  A    between atoms: N1_8  and  C7_9 
REMARK    3  A    between atoms: C7_9  and  C8_10 
REMARK    4  A    between atoms: C8_10  and  C9_11 
REMARK    5  A    between atoms: C9_11  and  C10_12 
REMARK    6  A    between atoms: C9_11  and  C12_16 
REMARK    7  A    between atoms: C10_12  and  C11_13 
REMARK    8  A    between atoms: C12_16  and  O4_17 
REMARK    9  A    between atoms: C12_16  and  N2_19 
REMARK   10  A    between atoms: N2_19  and  C13_21 
REMARK   11  A    between atoms: C13_21  and  C14_22 
REMARK   12  A    between atoms: C13_21  and  C21_29 
REMARK   13  A    between atoms: C14_22  and  C15_23 
ROOT
HETATM    1  C12 UNL     1      32.652  43.441  37.571  1.00  0.00     0.143 C 
ENDROOT
BRANCH   1   2
HETATM    2  C9  UNL     1      33.060  42.454  38.494  1.00  0.00     0.000 C 
BRANCH   2   3
HETATM    3  C8  UNL     1      33.389  42.557  39.724  1.00  0.00     0.015 C 
BRANCH   3   4
HETATM    4  C7  UNL     1      32.747  42.335  41.010  1.00  0.00     0.304 C 
BRANCH   4   5
HETATM    5  N1  UNL     1      33.385  41.261  41.751  1.00  0.00     0.126 N 
HETATM    6  C4  UNL     1      33.919  41.571  43.029  1.00  0.00     0.388 C 
HETATM    7  O1  UNL     1      32.876  42.346  43.547  1.00  0.00    -0.352 OA
HETATM    8  C5  UNL     1      31.781  41.476  43.378  1.00  0.00     0.201 C 
HETATM    9  C6  UNL     1      32.178  40.507  42.254  1.00  0.00     0.303 C 
BRANCH   6  10
HETATM   10  C2  UNL     1      35.254  42.083  43.161  1.00  0.00    -0.035 C 
HETATM   11  C1  UNL     1      35.728  43.219  42.679  1.00  0.00     0.018 C 
HETATM   12  C3  UNL     1      36.242  41.198  43.901  1.00  0.00     0.047 C 
ENDBRANCH   6  10
ENDBRANCH   4   5
ENDBRANCH   3   4
ENDBRANCH   2   3
BRANCH   2  13
HETATM   13  C10 UNL     1      33.075  41.019  37.946  1.00  0.00     0.155 C 
BRANCH  13  14
HETATM   14  C11 UNL     1      31.720  40.488  37.969  1.00  0.00     0.177 C 
HETATM   15  O2  UNL     1      31.260  39.858  38.933  1.00  0.00    -0.648 OA
HETATM   16  O3  UNL     1      30.876  40.682  36.863  1.00  0.00    -0.648 OA
ENDBRANCH  13  14
ENDBRANCH   2  13
ENDBRANCH   1   2
BRANCH   1  17
HETATM   17  O4  UNL     1      33.568  44.301  37.197  1.00  0.00    -0.346 OA
ATOM     18  H4  UNL     1      33.334  44.881  36.481  1.00  0.00     0.219 HD
ENDBRANCH   1  17
BRANCH   1  19
HETATM   19  N2  UNL     1      31.417  43.680  36.962  1.00  0.00    -0.356 N 
ATOM     20  H2  UNL     1      31.212  43.285  36.044  1.00  0.00     0.162 HD
BRANCH  19  21
HETATM   21  C13 UNL     1      30.375  44.537  37.682  1.00  0.00     0.185 C 
BRANCH  21  22
HETATM   22  C14 UNL     1      30.025  45.632  36.758  1.00  0.00     0.040 C 
BRANCH  22  23
HETATM   23  C15 UNL     1      30.184  45.503  35.298  1.00  0.00    -0.012 C 
HETATM   24  C16 UNL     1      28.767  45.530  34.640  1.00  0.00     0.005 C 
HETATM   25  C17 UNL     1      28.988  45.067  33.217  1.00  0.00     0.000 C 
HETATM   26  C18 UNL     1      29.612  46.246  32.483  1.00  0.00     0.000 C 
HETATM   27  C19 UNL     1      30.136  47.263  33.466  1.00  0.00     0.000 C 
HETATM   28  C20 UNL     1      30.909  46.639  34.610  1.00  0.00     0.005 C 
ENDBRANCH  22  23
ENDBRANCH  21  22
BRANCH  21  29
HETATM   29  C21 UNL     1      29.377  43.626  38.187  1.00  0.00     0.196 C 
HETATM   30  O5  UNL     1      28.253  43.464  37.567  1.00  0.00    -0.646 OA
HETATM   31  O6  UNL     1      29.463  42.826  39.328  1.00  0.00    -0.646 OA
ENDBRANCH  21  29
ENDBRANCH  19  21
ENDBRANCH   1  19
TORSDOF 13
ENDMDL
