MODEL 1
REMARK VINA RESULT: -8.311238084      0.000      0.000
REMARK  10 active torsions:
REMARK  status: ('A' for Active; 'I' for Inactive)
REMARK    1  A    between atoms: C2_2  and  C4_4 
REMARK    2  A    between atoms: C4_4  and  C5_5 
REMARK    3  A    between atoms: C5_5  and  C6_7 
REMARK    4  A    between atoms: C6_7  and  N1_8 
REMARK    5  A    between atoms: N1_8  and  C7_11 
REMARK    6  A    between atoms: C11_15  and  C12_16 
REMARK       I    between atoms: C12_16  and  N2_18 
REMARK    7  A    between atoms: N2_18  and  C13_20 
REMARK    8  A    between atoms: C13_20  and  C18_25 
REMARK    9  A    between atoms: C14_21  and  C15_22 
REMARK   10  A    between atoms: C18_25  and  C19_27 
ROOT
HETATM    1  C7  UNL     1      30.341  44.644  36.330  1.00  0.00     0.204 C 
HETATM    2  C8  UNL     1      29.214  44.347  37.251  1.00  0.00     0.035 C 
HETATM    3  C9  UNL     1      29.707  43.576  38.490  1.00  0.00     0.008 C 
HETATM    4  C10 UNL     1      30.736  42.607  38.062  1.00  0.00     0.062 C 
HETATM    5  C11 UNL     1      32.125  43.102  38.021  1.00  0.00     0.073 C 
HETATM    6  N3  UNL     1      32.569  44.105  37.154  1.00  0.00    -0.387 N 
ATOM      7  H3  UNL     1      33.492  44.100  36.720  1.00  0.00     0.159 HD
HETATM    8  C22 UNL     1      31.574  45.173  36.928  1.00  0.00     0.152 C 
ENDROOT
BRANCH   5   9
HETATM    9  C12 UNL     1      32.699  43.036  39.391  1.00  0.00     0.268 C 
HETATM   10  O2  UNL     1      33.500  43.990  39.686  1.00  0.00    -0.266 OA
HETATM   11  N2  UNL     1      32.417  42.055  40.300  1.00  0.00    -0.319 N 
ATOM     12  H2  UNL     1      31.698  41.396  39.999  1.00  0.00     0.169 HD
BRANCH  11  13
HETATM   13  C13 UNL     1      32.979  41.778  41.661  1.00  0.00     0.081 C 
HETATM   14  C14 UNL     1      34.178  41.023  41.563  1.00  0.00     0.010 C 
BRANCH  14  15
HETATM   15  C15 UNL     1      35.176  40.907  42.634  1.00  0.00     0.002 C 
HETATM   16  C16 UNL     1      35.303  42.357  43.282  1.00  0.00     0.013 C 
HETATM   17  C17 UNL     1      35.244  39.941  43.729  1.00  0.00     0.013 C 
ENDBRANCH  14  15
BRANCH  13  18
HETATM   18  C18 UNL     1      31.790  41.559  42.495  1.00  0.00     0.211 C 
HETATM   19  O3  UNL     1      30.793  42.186  42.044  1.00  0.00    -0.287 OA
BRANCH  18  20
HETATM   20  C19 UNL     1      31.520  40.790  43.703  1.00  0.00     0.145 A 
HETATM   21  C20 UNL     1      31.143  39.339  43.744  1.00  0.00     0.057 C 
HETATM   22  C21 UNL     1      32.197  41.240  45.010  1.00  0.00     0.215 A 
HETATM   23  O4  UNL     1      30.865  41.562  44.739  1.00  0.00    -0.367 OA
ENDBRANCH  18  20
ENDBRANCH  13  18
ENDBRANCH  11  13
ENDBRANCH   5   9
BRANCH   1  24
HETATM   24  N1  UNL     1      29.870  45.422  35.202  1.00  0.00    -0.063 N 
ATOM     25  H12 UNL     1      28.867  45.605  35.206  1.00  0.00     0.278 HD
ATOM     26  H11 UNL     1      29.886  44.925  34.312  1.00  0.00     0.278 HD
BRANCH  24  27
HETATM   27  C6  UNL     1      30.708  46.632  35.236  1.00  0.00     0.310 C 
BRANCH  27  28
HETATM   28  C5  UNL     1      30.503  47.509  34.052  1.00  0.00     0.152 C 
HETATM   29  O1  UNL     1      30.926  48.641  34.089  1.00  0.00    -0.296 OA
BRANCH  28  30
HETATM   30  C4  UNL     1      29.790  46.920  32.875  1.00  0.00     0.084 C 
BRANCH  30  31
HETATM   31  C2  UNL     1      30.433  47.187  31.563  1.00  0.00    -0.016 C 
HETATM   32  C1  UNL     1      30.369  45.882  30.752  1.00  0.00     0.010 C 
HETATM   33  C3  UNL     1      29.634  48.205  30.765  1.00  0.00     0.010 C 
ENDBRANCH  30  31
ENDBRANCH  28  30
ENDBRANCH  27  28
ENDBRANCH  24  27
ENDBRANCH   1  24
TORSDOF 10
ENDMDL
MODEL 2
REMARK VINA RESULT: -8.250139811      1.357      1.520
REMARK  10 active torsions:
REMARK  status: ('A' for Active; 'I' for Inactive)
REMARK    1  A    between atoms: C2_2  and  C4_4 
REMARK    2  A    between atoms: C4_4  and  C5_5 
REMARK    3  A    between atoms: C5_5  and  C6_7 
REMARK    4  A    between atoms: C6_7  and  N1_8 
REMARK    5  A    between atoms: N1_8  and  C7_11 
REMARK    6  A    between atoms: C11_15  and  C12_16 
REMARK       I    between atoms: C12_16  and  N2_18 
REMARK    7  A    between atoms: N2_18  and  C13_20 
REMARK    8  A    between atoms: C13_20  and  C18_25 
REMARK    9  A    between atoms: C14_21  and  C15_22 
REMARK   10  A    between atoms: C18_25  and  C19_27 
ROOT
HETATM    1  C7  UNL     1      30.930  44.704  36.799  1.00  0.00     0.204 C 
HETATM    2  C8  UNL     1      29.802  44.698  37.765  1.00  0.00     0.035 C 
HETATM    3  C9  UNL     1      29.957  43.554  38.783  1.00  0.00     0.008 C 
HETATM    4  C10 UNL     1      30.483  42.366  38.080  1.00  0.00     0.062 C 
HETATM    5  C11 UNL     1      31.952  42.260  37.982  1.00  0.00     0.073 C 
HETATM    6  N3  UNL     1      32.752  43.159  37.271  1.00  0.00    -0.387 N 
ATOM      7  H3  UNL     1      33.581  42.875  36.747  1.00  0.00     0.159 HD
HETATM    8  C22 UNL     1      32.284  44.557  37.350  1.00  0.00     0.152 C 
ENDROOT
BRANCH   5   9
HETATM    9  C12 UNL     1      32.476  41.684  39.249  1.00  0.00     0.268 C 
HETATM   10  O2  UNL     1      32.672  40.419  39.223  1.00  0.00    -0.266 OA
HETATM   11  N2  UNL     1      32.747  42.410  40.374  1.00  0.00    -0.319 N 
ATOM     12  H2  UNL     1      32.645  43.419  40.260  1.00  0.00     0.169 HD
BRANCH  11  13
HETATM   13  C13 UNL     1      33.168  41.983  41.748  1.00  0.00     0.081 C 
HETATM   14  C14 UNL     1      34.380  41.246  41.694  1.00  0.00     0.010 C 
BRANCH  14  15
HETATM   15  C15 UNL     1      35.261  41.012  42.844  1.00  0.00     0.002 C 
HETATM   16  C16 UNL     1      35.309  42.384  43.654  1.00  0.00     0.013 C 
HETATM   17  C17 UNL     1      35.223  39.934  43.830  1.00  0.00     0.013 C 
ENDBRANCH  14  15
BRANCH  13  18
HETATM   18  C18 UNL     1      31.900  41.671  42.422  1.00  0.00     0.211 C 
HETATM   19  O3  UNL     1      30.928  42.240  41.856  1.00  0.00    -0.287 OA
BRANCH  18  20
HETATM   20  C19 UNL     1      31.533  40.863  43.578  1.00  0.00     0.145 A 
HETATM   21  C20 UNL     1      31.144  39.415  43.539  1.00  0.00     0.057 C 
HETATM   22  C21 UNL     1      32.112  41.260  44.948  1.00  0.00     0.215 A 
HETATM   23  O4  UNL     1      30.808  41.605  44.588  1.00  0.00    -0.367 OA
ENDBRANCH  18  20
ENDBRANCH  13  18
ENDBRANCH  11  13
ENDBRANCH   5   9
BRANCH   1  24
HETATM   24  N1  UNL     1      30.799  45.824  35.888  1.00  0.00    -0.063 N 
ATOM     25  H12 UNL     1      31.440  45.797  35.094  1.00  0.00     0.278 HD
ATOM     26  H11 UNL     1      31.130  46.712  36.264  1.00  0.00     0.278 HD
BRANCH  24  27
HETATM   27  C6  UNL     1      29.374  45.814  35.519  1.00  0.00     0.310 C 
BRANCH  27  28
HETATM   28  C5  UNL     1      29.154  45.545  34.074  1.00  0.00     0.152 C 
HETATM   29  O1  UNL     1      28.266  44.790  33.752  1.00  0.00    -0.296 OA
BRANCH  28  30
HETATM   30  C4  UNL     1      30.049  46.247  33.099  1.00  0.00     0.084 C 
BRANCH  30  31
HETATM   31  C2  UNL     1      29.552  46.262  31.700  1.00  0.00    -0.016 C 
HETATM   32  C1  UNL     1      29.699  47.703  31.183  1.00  0.00     0.010 C 
HETATM   33  C3  UNL     1      30.436  45.412  30.802  1.00  0.00     0.010 C 
ENDBRANCH  30  31
ENDBRANCH  28  30
ENDBRANCH  27  28
ENDBRANCH  24  27
ENDBRANCH   1  24
TORSDOF 10
ENDMDL
MODEL 3
REMARK VINA RESULT: -8.183867221      1.127      1.287
REMARK  10 active torsions:
REMARK  status: ('A' for Active; 'I' for Inactive)
REMARK    1  A    between atoms: C2_2  and  C4_4 
REMARK    2  A    between atoms: C4_4  and  C5_5 
REMARK    3  A    between atoms: C5_5  and  C6_7 
REMARK    4  A    between atoms: C6_7  and  N1_8 
REMARK    5  A    between atoms: N1_8  and  C7_11 
REMARK    6  A    between atoms: C11_15  and  C12_16 
REMARK       I    between atoms: C12_16  and  N2_18 
REMARK    7  A    between atoms: N2_18  and  C13_20 
REMARK    8  A    between atoms: C13_20  and  C18_25 
REMARK    9  A    between atoms: C14_21  and  C15_22 
REMARK   10  A    between atoms: C18_25  and  C19_27 
ROOT
HETATM    1  C7  UNL     1      31.479  44.681  36.908  1.00  0.00     0.204 C 
HETATM    2  C8  UNL     1      30.227  44.561  37.699  1.00  0.00     0.035 C 
HETATM    3  C9  UNL     1      30.312  43.381  38.684  1.00  0.00     0.008 C 
HETATM    4  C10 UNL     1      31.011  42.262  38.020  1.00  0.00     0.062 C 
HETATM    5  C11 UNL     1      32.483  42.251  38.134  1.00  0.00     0.073 C 
HETATM    6  N3  UNL     1      33.315  43.228  37.582  1.00  0.00    -0.387 N 
ATOM      7  H3  UNL     1      34.227  43.021  37.174  1.00  0.00     0.159 HD
HETATM    8  C22 UNL     1      32.747  44.591  37.645  1.00  0.00     0.152 C 
ENDROOT
BRANCH   5   9
HETATM    9  C12 UNL     1      32.857  41.647  39.441  1.00  0.00     0.268 C 
HETATM   10  O2  UNL     1      32.900  40.367  39.449  1.00  0.00    -0.266 OA
HETATM   11  N2  UNL     1      33.147  42.364  40.568  1.00  0.00    -0.319 N 
ATOM     12  H2  UNL     1      33.175  43.374  40.429  1.00  0.00     0.169 HD
BRANCH  11  13
HETATM   13  C13 UNL     1      33.431  41.924  41.972  1.00  0.00     0.081 C 
HETATM   14  C14 UNL     1      34.627  41.160  42.025  1.00  0.00     0.010 C 
BRANCH  14  15
HETATM   15  C15 UNL     1      35.394  40.904  43.250  1.00  0.00     0.002 C 
HETATM   16  C16 UNL     1      35.337  39.329  43.490  1.00  0.00     0.013 C 
HETATM   17  C17 UNL     1      36.744  41.342  43.600  1.00  0.00     0.013 C 
ENDBRANCH  14  15
BRANCH  13  18
HETATM   18  C18 UNL     1      32.101  41.638  42.526  1.00  0.00     0.211 C 
HETATM   19  O3  UNL     1      31.198  42.243  41.886  1.00  0.00    -0.287 OA
BRANCH  18  20
HETATM   20  C19 UNL     1      31.611  40.824  43.631  1.00  0.00     0.145 A 
HETATM   21  C20 UNL     1      31.089  39.423  43.514  1.00  0.00     0.057 C 
HETATM   22  C21 UNL     1      32.167  41.109  45.038  1.00  0.00     0.215 A 
HETATM   23  O4  UNL     1      30.917  41.591  44.644  1.00  0.00    -0.367 OA
ENDBRANCH  18  20
ENDBRANCH  13  18
ENDBRANCH  11  13
ENDBRANCH   5   9
BRANCH   1  24
HETATM   24  N1  UNL     1      31.406  45.833  36.032  1.00  0.00    -0.063 N 
ATOM     25  H12 UNL     1      32.241  45.984  35.466  1.00  0.00     0.278 HD
ATOM     26  H11 UNL     1      31.437  46.731  36.514  1.00  0.00     0.278 HD
BRANCH  24  27
HETATM   27  C6  UNL     1      30.177  45.605  35.253  1.00  0.00     0.310 C 
BRANCH  27  28
HETATM   28  C5  UNL     1      29.967  46.628  34.195  1.00  0.00     0.152 C 
HETATM   29  O1  UNL     1      30.159  47.790  34.465  1.00  0.00    -0.296 OA
BRANCH  28  30
HETATM   30  C4  UNL     1      29.540  46.143  32.844  1.00  0.00     0.084 C 
BRANCH  30  31
HETATM   31  C2  UNL     1      30.398  46.598  31.721  1.00  0.00    -0.016 C 
HETATM   32  C1  UNL     1      30.527  45.419  30.742  1.00  0.00     0.010 C 
HETATM   33  C3  UNL     1      29.720  47.710  30.938  1.00  0.00     0.010 C 
ENDBRANCH  30  31
ENDBRANCH  28  30
ENDBRANCH  27  28
ENDBRANCH  24  27
ENDBRANCH   1  24
TORSDOF 10
ENDMDL
MODEL 4
REMARK VINA RESULT: -8.112174571      2.288      9.646
REMARK  10 active torsions:
REMARK  status: ('A' for Active; 'I' for Inactive)
REMARK    1  A    between atoms: C2_2  and  C4_4 
REMARK    2  A    between atoms: C4_4  and  C5_5 
REMARK    3  A    between atoms: C5_5  and  C6_7 
REMARK    4  A    between atoms: C6_7  and  N1_8 
REMARK    5  A    between atoms: N1_8  and  C7_11 
REMARK    6  A    between atoms: C11_15  and  C12_16 
REMARK       I    between atoms: C12_16  and  N2_18 
REMARK    7  A    between atoms: N2_18  and  C13_20 
REMARK    8  A    between atoms: C13_20  and  C18_25 
REMARK    9  A    between atoms: C14_21  and  C15_22 
REMARK   10  A    between atoms: C18_25  and  C19_27 
ROOT
HETATM    1  C7  UNL     1      32.397  40.673  39.996  1.00  0.00     0.204 C 
HETATM    2  C8  UNL     1      33.573  41.492  40.388  1.00  0.00     0.035 C 
HETATM    3  C9  UNL     1      33.750  42.688  39.435  1.00  0.00     0.008 C 
HETATM    4  C10 UNL     1      33.441  42.245  38.060  1.00  0.00     0.062 C 
HETATM    5  C11 UNL     1      32.027  42.335  37.647  1.00  0.00     0.073 C 
HETATM    6  N3  UNL     1      30.997  41.588  38.225  1.00  0.00    -0.387 N 
ATOM      7  H3  UNL     1      30.211  41.214  37.692  1.00  0.00     0.159 HD
HETATM    8  C22 UNL     1      31.155  41.392  39.680  1.00  0.00     0.152 C 
ENDROOT
BRANCH   5   9
HETATM    9  C12 UNL     1      31.743  43.728  37.211  1.00  0.00     0.268 C 
HETATM   10  O2  UNL     1      32.778  44.470  37.073  1.00  0.00    -0.266 OA
HETATM   11  N2  UNL     1      30.493  44.220  36.962  1.00  0.00    -0.319 N 
ATOM     12  H2  UNL     1      29.749  43.524  37.012  1.00  0.00     0.169 HD
BRANCH  11  13
HETATM   13  C13 UNL     1      30.024  45.603  36.628  1.00  0.00     0.081 C 
HETATM   14  C14 UNL     1      29.003  46.016  37.524  1.00  0.00     0.010 C 
BRANCH  14  15
HETATM   15  C15 UNL     1      28.596  47.411  37.733  1.00  0.00     0.002 C 
HETATM   16  C16 UNL     1      27.395  47.681  36.722  1.00  0.00     0.013 C 
HETATM   17  C17 UNL     1      28.268  48.098  38.981  1.00  0.00     0.013 C 
ENDBRANCH  14  15
BRANCH  13  18
HETATM   18  C18 UNL     1      30.066  45.643  35.160  1.00  0.00     0.211 C 
HETATM   19  O3  UNL     1      31.130  46.181  34.747  1.00  0.00    -0.287 OA
BRANCH  18  20
HETATM   20  C19 UNL     1      29.165  45.204  34.102  1.00  0.00     0.145 A 
HETATM   21  C20 UNL     1      29.252  45.611  32.661  1.00  0.00     0.057 C 
HETATM   22  C21 UNL     1      28.467  43.842  34.269  1.00  0.00     0.215 A 
HETATM   23  O4  UNL     1      27.798  45.035  34.549  1.00  0.00    -0.367 OA
ENDBRANCH  18  20
ENDBRANCH  13  18
ENDBRANCH  11  13
ENDBRANCH   5   9
BRANCH   1  24
HETATM   24  N1  UNL     1      32.209  39.588  40.938  1.00  0.00    -0.063 N 
ATOM     25  H12 UNL     1      33.043  39.346  41.472  1.00  0.00     0.278 HD
ATOM     26  H11 UNL     1      32.086  38.673  40.507  1.00  0.00     0.278 HD
BRANCH  24  27
HETATM   27  C6  UNL     1      31.069  40.030  41.759  1.00  0.00     0.310 C 
BRANCH  27  28
HETATM   28  C5  UNL     1      31.370  40.023  43.215  1.00  0.00     0.152 C 
HETATM   29  O1  UNL     1      31.003  39.082  43.879  1.00  0.00    -0.296 OA
BRANCH  28  30
HETATM   30  C4  UNL     1      32.129  41.190  43.766  1.00  0.00     0.084 C 
BRANCH  30  31
HETATM   31  C2  UNL     1      33.513  40.879  44.207  1.00  0.00    -0.016 C 
HETATM   32  C1  UNL     1      34.375  42.115  43.901  1.00  0.00     0.010 C 
HETATM   33  C3  UNL     1      33.573  40.700  45.715  1.00  0.00     0.010 C 
ENDBRANCH  30  31
ENDBRANCH  28  30
ENDBRANCH  27  28
ENDBRANCH  24  27
ENDBRANCH   1  24
TORSDOF 10
ENDMDL
MODEL 5
REMARK VINA RESULT: -8.088041244      1.876      2.243
REMARK  10 active torsions:
REMARK  status: ('A' for Active; 'I' for Inactive)
REMARK    1  A    between atoms: C2_2  and  C4_4 
REMARK    2  A    between atoms: C4_4  and  C5_5 
REMARK    3  A    between atoms: C5_5  and  C6_7 
REMARK    4  A    between atoms: C6_7  and  N1_8 
REMARK    5  A    between atoms: N1_8  and  C7_11 
REMARK    6  A    between atoms: C11_15  and  C12_16 
REMARK       I    between atoms: C12_16  and  N2_18 
REMARK    7  A    between atoms: N2_18  and  C13_20 
REMARK    8  A    between atoms: C13_20  and  C18_25 
REMARK    9  A    between atoms: C14_21  and  C15_22 
REMARK   10  A    between atoms: C18_25  and  C19_27 
ROOT
HETATM    1  C7  UNL     1      30.116  45.115  36.510  1.00  0.00     0.204 C 
HETATM    2  C8  UNL     1      29.086  44.383  37.291  1.00  0.00     0.035 C 
HETATM    3  C9  UNL     1      29.712  43.199  38.050  1.00  0.00     0.008 C 
HETATM    4  C10 UNL     1      30.732  42.571  37.185  1.00  0.00     0.062 C 
HETATM    5  C11 UNL     1      32.094  43.133  37.267  1.00  0.00     0.073 C 
HETATM    6  N3  UNL     1      32.425  44.434  36.880  1.00  0.00    -0.387 N 
ATOM      7  H3  UNL     1      33.306  44.675  36.425  1.00  0.00     0.159 HD
HETATM    8  C22 UNL     1      31.378  45.428  37.194  1.00  0.00     0.152 C 
ENDROOT
BRANCH   5   9
HETATM    9  C12 UNL     1      32.788  42.536  38.439  1.00  0.00     0.268 C 
HETATM   10  O2  UNL     1      33.680  41.664  38.149  1.00  0.00    -0.266 OA
HETATM   11  N2  UNL     1      32.531  42.866  39.740  1.00  0.00    -0.319 N 
ATOM     12  H2  UNL     1      31.871  43.636  39.857  1.00  0.00     0.169 HD
BRANCH  11  13
HETATM   13  C13 UNL     1      33.049  42.296  41.025  1.00  0.00     0.081 C 
HETATM   14  C14 UNL     1      34.436  42.565  41.170  1.00  0.00     0.010 C 
BRANCH  14  15
HETATM   15  C15 UNL     1      35.166  42.499  42.441  1.00  0.00     0.002 C 
HETATM   16  C16 UNL     1      36.134  43.765  42.465  1.00  0.00     0.013 C 
HETATM   17  C17 UNL     1      34.643  42.335  43.797  1.00  0.00     0.013 C 
ENDBRANCH  14  15
BRANCH  13  18
HETATM   18  C18 UNL     1      32.310  41.034  41.172  1.00  0.00     0.211 C 
HETATM   19  O3  UNL     1      31.090  41.243  41.410  1.00  0.00    -0.287 OA
BRANCH  18  20
HETATM   20  C19 UNL     1      32.677  39.625  41.102  1.00  0.00     0.145 A 
HETATM   21  C20 UNL     1      32.741  38.805  39.849  1.00  0.00     0.057 C 
HETATM   22  C21 UNL     1      33.603  39.066  42.197  1.00  0.00     0.215 A 
HETATM   23  O4  UNL     1      32.223  38.858  42.244  1.00  0.00    -0.367 OA
ENDBRANCH  18  20
ENDBRANCH  13  18
ENDBRANCH  11  13
ENDBRANCH   5   9
BRANCH   1  24
HETATM   24  N1  UNL     1      29.521  46.261  35.852  1.00  0.00    -0.063 N 
ATOM     25  H12 UNL     1      30.174  46.812  35.294  1.00  0.00     0.278 HD
ATOM     26  H11 UNL     1      29.254  47.017  36.483  1.00  0.00     0.278 HD
BRANCH  24  27
HETATM   27  C6  UNL     1      28.403  45.687  35.087  1.00  0.00     0.310 C 
BRANCH  27  28
HETATM   28  C5  UNL     1      28.802  45.250  33.722  1.00  0.00     0.152 C 
HETATM   29  O1  UNL     1      28.340  44.222  33.284  1.00  0.00    -0.296 OA
BRANCH  28  30
HETATM   30  C4  UNL     1      29.748  46.131  32.967  1.00  0.00     0.084 C 
BRANCH  30  31
HETATM   31  C2  UNL     1      29.452  46.261  31.517  1.00  0.00    -0.016 C 
HETATM   32  C1  UNL     1      29.690  47.732  31.137  1.00  0.00     0.010 C 
HETATM   33  C3  UNL     1      30.441  45.459  30.689  1.00  0.00     0.010 C 
ENDBRANCH  30  31
ENDBRANCH  28  30
ENDBRANCH  27  28
ENDBRANCH  24  27
ENDBRANCH   1  24
TORSDOF 10
ENDMDL
