MODEL 1
REMARK VINA RESULT: -8.174183561      0.000      0.000
REMARK  14 active torsions:
REMARK  status: ('A' for Active; 'I' for Inactive)
REMARK    1  A    between atoms: C2_2  and  C3_3 
REMARK       I    between atoms: C3_3  and  N1_5 
REMARK    2  A    between atoms: N1_5  and  O2_6 
REMARK    3  A    between atoms: N1_5  and  C4_8 
REMARK    4  A    between atoms: C9_13  and  O3_15 
REMARK    5  A    between atoms: O3_15  and  C11_16 
REMARK    6  A    between atoms: C12_18  and  C13_19 
REMARK    7  A    between atoms: C13_19  and  O5_20 
REMARK    8  A    between atoms: C14_22  and  O6_23 
REMARK    9  A    between atoms: C15_25  and  O7_26 
REMARK   10  A    between atoms: C16_28  and  O8_29 
REMARK   11  A    between atoms: C17_32  and  O10_33 
REMARK   12  A    between atoms: O10_33  and  C18_34 
REMARK   13  A    between atoms: C18_34  and  C19_35 
REMARK   14  A    between atoms: C19_35  and  C20_36 
ROOT
HETATM    1  C4  UNL     1      20.794  65.227  47.472  1.00  0.00     0.202 C 
HETATM    2  C5  UNL     1      20.958  63.757  47.404  1.00  0.00    -0.050 C 
HETATM    3  C6  UNL     1      20.428  62.962  48.316  1.00  0.00     0.017 C 
HETATM    4  C7  UNL     1      21.727  63.083  46.308  1.00  0.00     0.074 C 
HETATM    5  C8  UNL     1      21.005  61.806  45.895  1.00  0.00     0.020 C 
HETATM    6  C9  UNL     1      22.038  63.954  45.139  1.00  0.00     0.173 C 
HETATM    7  C10 UNL     1      20.991  63.783  44.022  1.00  0.00     0.080 C 
HETATM    8  O9  UNL     1      22.174  65.252  45.510  1.00  0.00    -0.322 OA
HETATM    9  C17 UNL     1      21.117  65.868  46.120  1.00  0.00     0.292 C 
ENDROOT
BRANCH   6  10
HETATM   10  O3  UNL     1      23.220  63.493  44.571  1.00  0.00    -0.322 OA
BRANCH  10  11
HETATM   11  C11 UNL     1      24.375  64.052  44.992  1.00  0.00     0.295 C 
HETATM   12  O4  UNL     1      25.137  63.032  45.602  1.00  0.00    -0.348 OA
HETATM   13  C12 UNL     1      26.452  63.043  45.194  1.00  0.00     0.179 C 
HETATM   14  C14 UNL     1      26.604  62.650  43.734  1.00  0.00     0.180 C 
HETATM   15  C15 UNL     1      25.526  63.350  42.930  1.00  0.00     0.183 C 
HETATM   16  C16 UNL     1      25.111  64.563  43.746  1.00  0.00     0.204 C 
BRANCH  13  17
HETATM   17  C13 UNL     1      27.187  62.001  46.009  1.00  0.00     0.198 C 
BRANCH  17  18
HETATM   18  O5  UNL     1      27.357  60.831  45.264  1.00  0.00    -0.398 OA
ATOM     19  H5  UNL     1      27.043  60.079  45.753  1.00  0.00     0.209 HD
ENDBRANCH  17  18
ENDBRANCH  13  17
BRANCH  14  20
HETATM   20  O6  UNL     1      27.876  63.066  43.344  1.00  0.00    -0.390 OA
ATOM     21  H6  UNL     1      27.784  63.429  42.471  1.00  0.00     0.210 HD
ENDBRANCH  14  20
BRANCH  15  22
HETATM   22  O7  UNL     1      24.467  62.472  42.803  1.00  0.00    -0.390 OA
ATOM     23  H7  UNL     1      24.515  61.859  43.528  1.00  0.00     0.210 HD
ENDBRANCH  15  22
BRANCH  16  24
HETATM   24  O8  UNL     1      24.162  65.244  42.979  1.00  0.00    -0.388 OA
ATOM     25  H8  UNL     1      23.560  64.586  42.652  1.00  0.00     0.210 HD
ENDBRANCH  16  24
ENDBRANCH  10  11
ENDBRANCH   6  10
BRANCH   9  26
HETATM   26  O10 UNL     1      21.536  67.193  46.371  1.00  0.00    -0.359 OA
BRANCH  26  27
HETATM   27  C18 UNL     1      21.234  68.030  45.305  1.00  0.00     0.171 C 
BRANCH  27  28
HETATM   28  C19 UNL     1      19.732  68.114  45.139  1.00  0.00     0.026 C 
BRANCH  28  29
HETATM   29  C20 UNL     1      19.337  68.661  43.799  1.00  0.00    -0.002 C 
HETATM   30  C21 UNL     1      20.109  69.949  43.588  1.00  0.00     0.005 C 
ENDBRANCH  28  29
ENDBRANCH  27  28
ENDBRANCH  26  27
ENDBRANCH   9  26
BRANCH   1  31
HETATM   31  N1  UNL     1      19.519  65.658  48.007  1.00  0.00    -0.211 N 
HETATM   32  C3  UNL     1      18.296  65.526  47.337  1.00  0.00     0.266 C 
HETATM   33  O1  UNL     1      18.388  64.954  46.181  1.00  0.00    -0.266 OA
BRANCH  32  34
HETATM   34  C2  UNL     1      16.974  65.923  47.729  1.00  0.00     0.066 C 
HETATM   35  C1  UNL     1      15.825  65.505  47.258  1.00  0.00     0.017 C 
ENDBRANCH  32  34
BRANCH  31  36
HETATM   36  O2  UNL     1      19.504  66.240  49.240  1.00  0.00    -0.284 OA
ATOM     37  H2  UNL     1      19.458  67.188  49.279  1.00  0.00     0.245 HD
ENDBRANCH  31  36
ENDBRANCH   1  31
TORSDOF 14
ENDMDL
MODEL 2
REMARK VINA RESULT: -8.024155567      2.607      4.365
REMARK  14 active torsions:
REMARK  status: ('A' for Active; 'I' for Inactive)
REMARK    1  A    between atoms: C2_2  and  C3_3 
REMARK       I    between atoms: C3_3  and  N1_5 
REMARK    2  A    between atoms: N1_5  and  O2_6 
REMARK    3  A    between atoms: N1_5  and  C4_8 
REMARK    4  A    between atoms: C9_13  and  O3_15 
REMARK    5  A    between atoms: O3_15  and  C11_16 
REMARK    6  A    between atoms: C12_18  and  C13_19 
REMARK    7  A    between atoms: C13_19  and  O5_20 
REMARK    8  A    between atoms: C14_22  and  O6_23 
REMARK    9  A    between atoms: C15_25  and  O7_26 
REMARK   10  A    between atoms: C16_28  and  O8_29 
REMARK   11  A    between atoms: C17_32  and  O10_33 
REMARK   12  A    between atoms: O10_33  and  C18_34 
REMARK   13  A    between atoms: C18_34  and  C19_35 
REMARK   14  A    between atoms: C19_35  and  C20_36 
ROOT
HETATM    1  C4  UNL     1      19.533  64.840  45.326  1.00  0.00     0.202 C 
HETATM    2  C5  UNL     1      20.795  65.606  45.450  1.00  0.00    -0.050 C 
HETATM    3  C6  UNL     1      20.843  66.754  46.102  1.00  0.00     0.017 C 
HETATM    4  C7  UNL     1      22.084  65.131  44.852  1.00  0.00     0.074 C 
HETATM    5  C8  UNL     1      23.227  65.426  45.816  1.00  0.00     0.020 C 
HETATM    6  C9  UNL     1      22.079  63.709  44.407  1.00  0.00     0.173 C 
HETATM    7  C10 UNL     1      22.657  62.783  45.493  1.00  0.00     0.080 C 
HETATM    8  O9  UNL     1      20.841  63.317  44.014  1.00  0.00    -0.322 OA
HETATM    9  C17 UNL     1      19.818  63.393  44.918  1.00  0.00     0.292 C 
ENDROOT
BRANCH   6  10
HETATM   10  O3  UNL     1      22.974  63.594  43.350  1.00  0.00    -0.322 OA
BRANCH  10  11
HETATM   11  C11 UNL     1      22.635  64.172  42.178  1.00  0.00     0.295 C 
HETATM   12  O4  UNL     1      23.597  65.170  41.909  1.00  0.00    -0.348 OA
HETATM   13  C12 UNL     1      24.043  65.133  40.607  1.00  0.00     0.179 C 
HETATM   14  C14 UNL     1      24.865  63.888  40.316  1.00  0.00     0.180 C 
HETATM   15  C15 UNL     1      24.173  62.694  40.945  1.00  0.00     0.183 C 
HETATM   16  C16 UNL     1      22.712  63.085  41.097  1.00  0.00     0.204 C 
BRANCH  13  17
HETATM   17  C13 UNL     1      24.959  66.321  40.409  1.00  0.00     0.198 C 
BRANCH  17  18
HETATM   18  O5  UNL     1      26.296  65.924  40.487  1.00  0.00    -0.398 OA
ATOM     19  H5  UNL     1      26.867  66.683  40.494  1.00  0.00     0.209 HD
ENDBRANCH  17  18
ENDBRANCH  13  17
BRANCH  14  20
HETATM   20  O6  UNL     1      24.921  63.768  38.929  1.00  0.00    -0.390 OA
ATOM     21  H6  UNL     1      24.948  62.837  38.741  1.00  0.00     0.210 HD
ENDBRANCH  14  20
BRANCH  15  22
HETATM   22  O7  UNL     1      24.747  62.487  42.184  1.00  0.00    -0.390 OA
ATOM     23  H7  UNL     1      24.339  61.716  42.562  1.00  0.00     0.210 HD
ENDBRANCH  15  22
BRANCH  16  24
HETATM   24  O8  UNL     1      22.060  61.964  41.618  1.00  0.00    -0.388 OA
ATOM     25  H8  UNL     1      22.405  61.213  41.150  1.00  0.00     0.210 HD
ENDBRANCH  16  24
ENDBRANCH  10  11
ENDBRANCH   6  10
BRANCH   9  26
HETATM   26  O10 UNL     1      18.673  62.911  44.245  1.00  0.00    -0.359 OA
BRANCH  26  27
HETATM   27  C18 UNL     1      18.876  61.626  43.761  1.00  0.00     0.171 C 
BRANCH  27  28
HETATM   28  C19 UNL     1      17.810  61.297  42.738  1.00  0.00     0.026 C 
BRANCH  28  29
HETATM   29  C20 UNL     1      18.302  61.462  41.330  1.00  0.00    -0.002 C 
HETATM   30  C21 UNL     1      17.737  62.766  40.802  1.00  0.00     0.005 C 
ENDBRANCH  28  29
ENDBRANCH  27  28
ENDBRANCH  26  27
ENDBRANCH   9  26
BRANCH   1  31
HETATM   31  N1  UNL     1      18.664  64.937  46.481  1.00  0.00    -0.211 N 
HETATM   32  C3  UNL     1      17.437  65.614  46.492  1.00  0.00     0.266 C 
HETATM   33  O1  UNL     1      17.118  66.143  45.357  1.00  0.00    -0.266 OA
BRANCH  32  34
HETATM   34  C2  UNL     1      16.494  65.809  47.554  1.00  0.00     0.066 C 
HETATM   35  C1  UNL     1      15.224  65.486  47.586  1.00  0.00     0.017 C 
ENDBRANCH  32  34
BRANCH  31  36
HETATM   36  O2  UNL     1      19.066  64.338  47.638  1.00  0.00    -0.284 OA
ATOM     37  H2  UNL     1      19.283  63.414  47.604  1.00  0.00     0.245 HD
ENDBRANCH  31  36
ENDBRANCH   1  31
TORSDOF 14
ENDMDL
MODEL 3
REMARK VINA RESULT: -7.666095052      3.439      7.260
REMARK  14 active torsions:
REMARK  status: ('A' for Active; 'I' for Inactive)
REMARK    1  A    between atoms: C2_2  and  C3_3 
REMARK       I    between atoms: C3_3  and  N1_5 
REMARK    2  A    between atoms: N1_5  and  O2_6 
REMARK    3  A    between atoms: N1_5  and  C4_8 
REMARK    4  A    between atoms: C9_13  and  O3_15 
REMARK    5  A    between atoms: O3_15  and  C11_16 
REMARK    6  A    between atoms: C12_18  and  C13_19 
REMARK    7  A    between atoms: C13_19  and  O5_20 
REMARK    8  A    between atoms: C14_22  and  O6_23 
REMARK    9  A    between atoms: C15_25  and  O7_26 
REMARK   10  A    between atoms: C16_28  and  O8_29 
REMARK   11  A    between atoms: C17_32  and  O10_33 
REMARK   12  A    between atoms: O10_33  and  C18_34 
REMARK   13  A    between atoms: C18_34  and  C19_35 
REMARK   14  A    between atoms: C19_35  and  C20_36 
ROOT
HETATM    1  C4  UNL     1      20.249  63.367  41.404  1.00  0.00     0.202 C 
HETATM    2  C5  UNL     1      18.976  63.122  42.121  1.00  0.00    -0.050 C 
HETATM    3  C6  UNL     1      17.812  63.195  41.500  1.00  0.00     0.017 C 
HETATM    4  C7  UNL     1      18.928  62.778  43.578  1.00  0.00     0.074 C 
HETATM    5  C8  UNL     1      17.859  61.718  43.813  1.00  0.00     0.020 C 
HETATM    6  C9  UNL     1      20.239  62.394  44.172  1.00  0.00     0.173 C 
HETATM    7  C10 UNL     1      20.419  60.865  44.185  1.00  0.00     0.080 C 
HETATM    8  O9  UNL     1      21.269  63.020  43.547  1.00  0.00    -0.322 OA
HETATM    9  C17 UNL     1      21.433  62.818  42.205  1.00  0.00     0.292 C 
ENDROOT
BRANCH   6  10
HETATM   10  O3  UNL     1      20.214  62.746  45.517  1.00  0.00    -0.322 OA
BRANCH  10  11
HETATM   11  C11 UNL     1      20.541  64.016  45.837  1.00  0.00     0.295 C 
HETATM   12  O4  UNL     1      19.428  64.582  46.497  1.00  0.00    -0.348 OA
HETATM   13  C12 UNL     1      19.784  65.268  47.636  1.00  0.00     0.179 C 
HETATM   14  C14 UNL     1      20.296  64.342  48.728  1.00  0.00     0.180 C 
HETATM   15  C15 UNL     1      21.226  63.322  48.100  1.00  0.00     0.183 C 
HETATM   16  C16 UNL     1      21.728  63.946  46.809  1.00  0.00     0.204 C 
BRANCH  13  17
HETATM   17  C13 UNL     1      18.536  65.934  48.173  1.00  0.00     0.198 C 
BRANCH  17  18
HETATM   18  O5  UNL     1      18.864  66.833  49.190  1.00  0.00    -0.398 OA
ATOM     19  H5  UNL     1      19.626  67.346  48.946  1.00  0.00     0.209 HD
ENDBRANCH  17  18
ENDBRANCH  13  17
BRANCH  14  20
HETATM   20  O6  UNL     1      20.971  65.147  49.643  1.00  0.00    -0.390 OA
ATOM     21  H6  UNL     1      21.274  64.571  50.335  1.00  0.00     0.210 HD
ENDBRANCH  14  20
BRANCH  15  22
HETATM   22  O7  UNL     1      20.480  62.191  47.830  1.00  0.00    -0.390 OA
ATOM     23  H7  UNL     1      21.078  61.522  47.519  1.00  0.00     0.210 HD
ENDBRANCH  15  22
BRANCH  16  24
HETATM   24  O8  UNL     1      22.633  63.034  46.260  1.00  0.00    -0.388 OA
ATOM     25  H8  UNL     1      23.244  62.814  46.953  1.00  0.00     0.210 HD
ENDBRANCH  16  24
ENDBRANCH  10  11
ENDBRANCH   6  10
BRANCH   9  26
HETATM   26  O10 UNL     1      22.573  63.568  41.839  1.00  0.00    -0.359 OA
BRANCH  26  27
HETATM   27  C18 UNL     1      23.577  62.749  41.342  1.00  0.00     0.171 C 
BRANCH  27  28
HETATM   28  C19 UNL     1      24.917  63.212  41.872  1.00  0.00     0.026 C 
BRANCH  28  29
HETATM   29  C20 UNL     1      25.152  62.772  43.287  1.00  0.00    -0.002 C 
HETATM   30  C21 UNL     1      26.540  63.237  43.681  1.00  0.00     0.005 C 
ENDBRANCH  28  29
ENDBRANCH  27  28
ENDBRANCH  26  27
ENDBRANCH   9  26
BRANCH   1  31
HETATM   31  N1  UNL     1      20.250  62.922  40.026  1.00  0.00    -0.211 N 
HETATM   32  C3  UNL     1      20.210  63.780  38.919  1.00  0.00     0.266 C 
HETATM   33  O1  UNL     1      20.193  65.036  39.227  1.00  0.00    -0.266 OA
BRANCH  32  34
HETATM   34  C2  UNL     1      20.183  63.485  37.515  1.00  0.00     0.066 C 
HETATM   35  C1  UNL     1      19.186  63.030  36.797  1.00  0.00     0.017 C 
ENDBRANCH  32  34
BRANCH  31  36
HETATM   36  O2  UNL     1      20.284  61.580  39.784  1.00  0.00    -0.284 OA
ATOM     37  H2  UNL     1      19.899  61.006  40.435  1.00  0.00     0.245 HD
ENDBRANCH  31  36
ENDBRANCH   1  31
TORSDOF 14
ENDMDL
MODEL 4
REMARK VINA RESULT: -7.665745952      1.400      1.647
REMARK  14 active torsions:
REMARK  status: ('A' for Active; 'I' for Inactive)
REMARK    1  A    between atoms: C2_2  and  C3_3 
REMARK       I    between atoms: C3_3  and  N1_5 
REMARK    2  A    between atoms: N1_5  and  O2_6 
REMARK    3  A    between atoms: N1_5  and  C4_8 
REMARK    4  A    between atoms: C9_13  and  O3_15 
REMARK    5  A    between atoms: O3_15  and  C11_16 
REMARK    6  A    between atoms: C12_18  and  C13_19 
REMARK    7  A    between atoms: C13_19  and  O5_20 
REMARK    8  A    between atoms: C14_22  and  O6_23 
REMARK    9  A    between atoms: C15_25  and  O7_26 
REMARK   10  A    between atoms: C16_28  and  O8_29 
REMARK   11  A    between atoms: C17_32  and  O10_33 
REMARK   12  A    between atoms: O10_33  and  C18_34 
REMARK   13  A    between atoms: C18_34  and  C19_35 
REMARK   14  A    between atoms: C19_35  and  C20_36 
ROOT
HETATM    1  C4  UNL     1      20.333  65.838  47.844  1.00  0.00     0.202 C 
HETATM    2  C5  UNL     1      20.628  64.389  47.935  1.00  0.00    -0.050 C 
HETATM    3  C6  UNL     1      20.067  63.629  48.859  1.00  0.00     0.017 C 
HETATM    4  C7  UNL     1      21.570  63.700  46.996  1.00  0.00     0.074 C 
HETATM    5  C8  UNL     1      21.012  62.330  46.634  1.00  0.00     0.020 C 
HETATM    6  C9  UNL     1      21.937  64.493  45.788  1.00  0.00     0.173 C 
HETATM    7  C10 UNL     1      21.043  64.127  44.588  1.00  0.00     0.080 C 
HETATM    8  O9  UNL     1      21.920  65.825  46.046  1.00  0.00    -0.322 OA
HETATM    9  C17 UNL     1      20.752  66.388  46.478  1.00  0.00     0.292 C 
ENDROOT
BRANCH   6  10
HETATM   10  O3  UNL     1      23.211  64.099  45.395  1.00  0.00    -0.322 OA
BRANCH  10  11
HETATM   11  C11 UNL     1      24.162  65.054  45.312  1.00  0.00     0.295 C 
HETATM   12  O4  UNL     1      24.883  65.034  46.526  1.00  0.00    -0.348 OA
HETATM   13  C12 UNL     1      26.245  65.077  46.331  1.00  0.00     0.179 C 
HETATM   14  C14 UNL     1      26.774  63.804  45.688  1.00  0.00     0.180 C 
HETATM   15  C15 UNL     1      25.831  63.398  44.572  1.00  0.00     0.183 C 
HETATM   16  C16 UNL     1      25.097  64.663  44.158  1.00  0.00     0.204 C 
BRANCH  13  17
HETATM   17  C13 UNL     1      26.895  65.185  47.692  1.00  0.00     0.198 C 
BRANCH  17  18
HETATM   18  O5  UNL     1      28.093  65.899  47.604  1.00  0.00    -0.398 OA
ATOM     19  H5  UNL     1      28.820  65.308  47.445  1.00  0.00     0.209 HD
ENDBRANCH  17  18
ENDBRANCH  13  17
BRANCH  14  20
HETATM   20  O6  UNL     1      28.040  64.109  45.194  1.00  0.00    -0.390 OA
ATOM     21  H6  UNL     1      27.914  64.430  44.309  1.00  0.00     0.210 HD
ENDBRANCH  14  20
BRANCH  15  22
HETATM   22  O7  UNL     1      24.944  62.476  45.093  1.00  0.00    -0.390 OA
ATOM     23  H7  UNL     1      24.688  62.782  45.955  1.00  0.00     0.210 HD
ENDBRANCH  15  22
BRANCH  16  24
HETATM   24  O8  UNL     1      24.273  64.305  43.088  1.00  0.00    -0.388 OA
ATOM     25  H8  UNL     1      23.546  64.916  43.093  1.00  0.00     0.210 HD
ENDBRANCH  16  24
ENDBRANCH  10  11
ENDBRANCH   6  10
BRANCH   9  26
HETATM   26  O10 UNL     1      21.026  67.764  46.644  1.00  0.00    -0.359 OA
BRANCH  26  27
HETATM   27  C18 UNL     1      20.832  68.463  45.461  1.00  0.00     0.171 C 
BRANCH  27  28
HETATM   28  C19 UNL     1      19.505  68.069  44.851  1.00  0.00     0.026 C 
BRANCH  28  29
HETATM   29  C20 UNL     1      19.193  68.852  43.609  1.00  0.00    -0.002 C 
HETATM   30  C21 UNL     1      20.161  70.018  43.553  1.00  0.00     0.005 C 
ENDBRANCH  28  29
ENDBRANCH  27  28
ENDBRANCH  26  27
ENDBRANCH   9  26
BRANCH   1  31
HETATM   31  N1  UNL     1      18.974  66.191  48.198  1.00  0.00    -0.211 N 
HETATM   32  C3  UNL     1      17.843  65.817  47.459  1.00  0.00     0.266 C 
HETATM   33  O1  UNL     1      18.108  65.095  46.420  1.00  0.00    -0.266 OA
BRANCH  32  34
HETATM   34  C2  UNL     1      16.455  66.109  47.674  1.00  0.00     0.066 C 
HETATM   35  C1  UNL     1      15.421  65.323  47.503  1.00  0.00     0.017 C 
ENDBRANCH  32  34
BRANCH  31  36
HETATM   36  O2  UNL     1      18.776  66.943  49.318  1.00  0.00    -0.284 OA
ATOM     37  H2  UNL     1      19.540  67.339  49.722  1.00  0.00     0.245 HD
ENDBRANCH  31  36
ENDBRANCH   1  31
TORSDOF 14
ENDMDL
MODEL 5
REMARK VINA RESULT: -7.644041635      2.663      4.683
REMARK  14 active torsions:
REMARK  status: ('A' for Active; 'I' for Inactive)
REMARK    1  A    between atoms: C2_2  and  C3_3 
REMARK       I    between atoms: C3_3  and  N1_5 
REMARK    2  A    between atoms: N1_5  and  O2_6 
REMARK    3  A    between atoms: N1_5  and  C4_8 
REMARK    4  A    between atoms: C9_13  and  O3_15 
REMARK    5  A    between atoms: O3_15  and  C11_16 
REMARK    6  A    between atoms: C12_18  and  C13_19 
REMARK    7  A    between atoms: C13_19  and  O5_20 
REMARK    8  A    between atoms: C14_22  and  O6_23 
REMARK    9  A    between atoms: C15_25  and  O7_26 
REMARK   10  A    between atoms: C16_28  and  O8_29 
REMARK   11  A    between atoms: C17_32  and  O10_33 
REMARK   12  A    between atoms: O10_33  and  C18_34 
REMARK   13  A    between atoms: C18_34  and  C19_35 
REMARK   14  A    between atoms: C19_35  and  C20_36 
ROOT
HETATM    1  C4  UNL     1      19.686  65.013  45.309  1.00  0.00     0.202 C 
HETATM    2  C5  UNL     1      20.839  65.932  45.446  1.00  0.00    -0.050 C 
HETATM    3  C6  UNL     1      20.730  67.083  46.086  1.00  0.00     0.017 C 
HETATM    4  C7  UNL     1      22.189  65.620  44.875  1.00  0.00     0.074 C 
HETATM    5  C8  UNL     1      23.268  66.065  45.854  1.00  0.00     0.020 C 
HETATM    6  C9  UNL     1      22.371  64.205  44.445  1.00  0.00     0.173 C 
HETATM    7  C10 UNL     1      23.042  63.368  45.551  1.00  0.00     0.080 C 
HETATM    8  O9  UNL     1      21.200  63.656  44.036  1.00  0.00    -0.322 OA
HETATM    9  C17 UNL     1      20.159  63.609  44.921  1.00  0.00     0.292 C 
ENDROOT
BRANCH   6  10
HETATM   10  O3  UNL     1      23.293  64.194  43.404  1.00  0.00    -0.322 OA
BRANCH  10  11
HETATM   11  C11 UNL     1      22.957  63.527  42.279  1.00  0.00     0.295 C 
HETATM   12  O4  UNL     1      22.520  64.485  41.338  1.00  0.00    -0.348 OA
HETATM   13  C12 UNL     1      23.067  64.285  40.091  1.00  0.00     0.179 C 
HETATM   14  C14 UNL     1      24.562  64.556  40.069  1.00  0.00     0.180 C 
HETATM   15  C15 UNL     1      25.183  63.941  41.309  1.00  0.00     0.183 C 
HETATM   16  C16 UNL     1      24.231  62.846  41.759  1.00  0.00     0.204 C 
BRANCH  13  17
HETATM   17  C13 UNL     1      22.425  65.281  39.150  1.00  0.00     0.198 C 
BRANCH  17  18
HETATM   18  O5  UNL     1      22.432  64.788  37.842  1.00  0.00    -0.398 OA
ATOM     19  H5  UNL     1      22.392  63.839  37.846  1.00  0.00     0.209 HD
ENDBRANCH  17  18
ENDBRANCH  13  17
BRANCH  14  20
HETATM   20  O6  UNL     1      25.054  63.961  38.909  1.00  0.00    -0.390 OA
ATOM     21  H6  UNL     1      25.818  64.464  38.652  1.00  0.00     0.210 HD
ENDBRANCH  14  20
BRANCH  15  22
HETATM   22  O7  UNL     1      25.265  64.932  42.267  1.00  0.00    -0.390 OA
ATOM     23  H7  UNL     1      25.314  64.506  43.115  1.00  0.00     0.210 HD
ENDBRANCH  15  22
BRANCH  16  24
HETATM   24  O8  UNL     1      24.831  62.236  42.864  1.00  0.00    -0.388 OA
ATOM     25  H8  UNL     1      25.476  61.631  42.518  1.00  0.00     0.210 HD
ENDBRANCH  16  24
ENDBRANCH  10  11
ENDBRANCH   6  10
BRANCH   9  26
HETATM   26  O10 UNL     1      19.097  62.981  44.235  1.00  0.00    -0.359 OA
BRANCH  26  27
HETATM   27  C18 UNL     1      19.376  61.645  43.986  1.00  0.00     0.171 C 
BRANCH  27  28
HETATM   28  C19 UNL     1      18.184  60.993  43.321  1.00  0.00     0.026 C 
BRANCH  28  29
HETATM   29  C20 UNL     1      17.677  61.788  42.154  1.00  0.00    -0.002 C 
HETATM   30  C21 UNL     1      18.446  61.336  40.928  1.00  0.00     0.005 C 
ENDBRANCH  28  29
ENDBRANCH  27  28
ENDBRANCH  26  27
ENDBRANCH   9  26
BRANCH   1  31
HETATM   31  N1  UNL     1      18.792  65.009  46.448  1.00  0.00    -0.211 N 
HETATM   32  C3  UNL     1      17.543  65.644  46.473  1.00  0.00     0.266 C 
HETATM   33  O1  UNL     1      17.230  66.233  45.367  1.00  0.00    -0.266 OA
BRANCH  32  34
HETATM   34  C2  UNL     1      16.572  65.741  47.525  1.00  0.00     0.066 C 
HETATM   35  C1  UNL     1      15.288  65.488  47.474  1.00  0.00     0.017 C 
ENDBRANCH  32  34
BRANCH  31  36
HETATM   36  O2  UNL     1      19.189  64.351  47.574  1.00  0.00    -0.284 OA
ATOM     37  H2  UNL     1      18.514  63.980  48.129  1.00  0.00     0.245 HD
ENDBRANCH  31  36
ENDBRANCH   1  31
TORSDOF 14
ENDMDL
