MODEL 1
REMARK VINA RESULT: -7.478492445      0.000      0.000
REMARK  14 active torsions:
REMARK  status: ('A' for Active; 'I' for Inactive)
REMARK    1  A    between atoms: C2_2  and  C3_3 
REMARK    2  A    between atoms: C3_3  and  C4_4 
REMARK    3  A    between atoms: C4_4  and  N1_5 
REMARK    4  A    between atoms: N1_5  and  C5_8 
REMARK    5  A    between atoms: C7_11  and  C9_13 
REMARK    6  A    between atoms: C9_13  and  C10_14 
REMARK    7  A    between atoms: C10_14  and  C11_15 
REMARK    8  A    between atoms: C13_19  and  O4_20 
REMARK    9  A    between atoms: O4_20  and  C14_21 
REMARK   10  A    between atoms: C15_23  and  S1_24 
REMARK   11  A    between atoms: C17_26  and  O6_27 
REMARK   12  A    between atoms: C18_29  and  O7_30 
REMARK   13  A    between atoms: C19_32  and  O8_33 
REMARK   14  A    between atoms: C20_35  and  O9_36 
ROOT
HETATM    1  C5  UNL     1      24.472  64.364  47.037  1.00  0.00     0.354 C 
HETATM    2  O1  UNL     1      23.996  65.630  47.313  1.00  0.00    -0.354 OA
HETATM    3  C6  UNL     1      24.318  66.439  46.207  1.00  0.00     0.208 C 
HETATM    4  C7  UNL     1      23.008  66.682  45.496  1.00  0.00     0.082 C 
HETATM    5  C8  UNL     1      23.274  67.346  44.163  1.00  0.00     0.048 C 
HETATM    6  O3  UNL     1      22.352  65.462  45.345  1.00  0.00    -0.346 OA
HETATM    7  C13 UNL     1      23.139  64.433  44.879  1.00  0.00     0.297 C 
HETATM    8  C20 UNL     1      23.793  63.619  45.964  1.00  0.00     0.229 C 
ENDROOT
BRANCH   7   9
HETATM    9  O4  UNL     1      22.228  63.542  44.260  1.00  0.00    -0.326 OA
BRANCH   9  10
HETATM   10  C14 UNL     1      22.143  63.771  42.870  1.00  0.00     0.295 C 
HETATM   11  O5  UNL     1      20.840  63.587  42.566  1.00  0.00    -0.340 OA
HETATM   12  C15 UNL     1      20.437  62.890  41.497  1.00  0.00     0.217 C 
HETATM   13  C17 UNL     1      21.520  62.537  40.502  1.00  0.00     0.188 C 
HETATM   14  C18 UNL     1      22.671  61.898  41.248  1.00  0.00     0.183 C 
HETATM   15  C19 UNL     1      23.163  62.900  42.235  1.00  0.00     0.204 C 
BRANCH  12  16
HETATM   16  S1  UNL     1      19.817  61.273  42.118  1.00  0.00    -0.139 SA
HETATM   17  C16 UNL     1      19.503  61.315  43.880  1.00  0.00     0.092 C 
ENDBRANCH  12  16
BRANCH  13  18
HETATM   18  O6  UNL     1      21.067  61.611  39.569  1.00  0.00    -0.389 OA
ATOM     19  H6  UNL     1      20.321  61.947  39.086  1.00  0.00     0.210 HD
ENDBRANCH  13  18
BRANCH  14  20
HETATM   20  O7  UNL     1      23.643  61.544  40.333  1.00  0.00    -0.390 OA
ATOM     21  H7  UNL     1      24.478  61.495  40.784  1.00  0.00     0.210 HD
ENDBRANCH  14  20
BRANCH  15  22
HETATM   22  O8  UNL     1      24.165  63.658  41.575  1.00  0.00    -0.388 OA
ATOM     23  H8  UNL     1      24.138  63.532  40.634  1.00  0.00     0.210 HD
ENDBRANCH  15  22
ENDBRANCH   9  10
ENDBRANCH   7   9
BRANCH   8  24
HETATM   24  O9  UNL     1      22.783  62.817  46.541  1.00  0.00    -0.386 OA
ATOM     25  H9  UNL     1      22.203  62.517  45.851  1.00  0.00     0.210 HD
ENDBRANCH   8  24
BRANCH   4  26
HETATM   26  C9  UNL     1      22.125  67.528  46.373  1.00  0.00     0.047 C 
BRANCH  26  27
HETATM   27  C10 UNL     1      21.246  68.491  45.654  1.00  0.00     0.081 C 
BRANCH  27  28
HETATM   28  C11 UNL     1      19.841  67.945  45.592  1.00  0.00     0.123 C 
HETATM   29  C12 UNL     1      19.021  68.110  44.363  1.00  0.00     0.091 C 
HETATM   30  O2  UNL     1      19.342  67.359  46.531  1.00  0.00    -0.298 OA
ENDBRANCH  27  28
ENDBRANCH  26  27
ENDBRANCH   4  26
BRANCH   1  31
HETATM   31  N1  UNL     1      24.398  63.606  48.275  1.00  0.00    -0.046 N 
ATOM     32  H12 UNL     1      25.255  63.075  48.431  1.00  0.00     0.280 HD
ATOM     33  H11 UNL     1      23.739  62.832  48.193  1.00  0.00     0.280 HD
BRANCH  31  34
HETATM   34  C4  UNL     1      24.088  64.430  49.409  1.00  0.00     0.235 C 
BRANCH  34  35
HETATM   35  C3  UNL     1      22.890  63.982  50.171  1.00  0.00     0.027 C 
BRANCH  35  36
HETATM   36  C2  UNL     1      21.639  64.472  49.487  1.00  0.00    -0.003 C 
HETATM   37  C1  UNL     1      20.602  63.390  49.554  1.00  0.00     0.005 C 
ENDBRANCH  35  36
ENDBRANCH  34  35
ENDBRANCH  31  34
ENDBRANCH   1  31
TORSDOF 14
ENDMDL
MODEL 2
REMARK VINA RESULT: -7.447370613      1.817      2.334
REMARK  14 active torsions:
REMARK  status: ('A' for Active; 'I' for Inactive)
REMARK    1  A    between atoms: C2_2  and  C3_3 
REMARK    2  A    between atoms: C3_3  and  C4_4 
REMARK    3  A    between atoms: C4_4  and  N1_5 
REMARK    4  A    between atoms: N1_5  and  C5_8 
REMARK    5  A    between atoms: C7_11  and  C9_13 
REMARK    6  A    between atoms: C9_13  and  C10_14 
REMARK    7  A    between atoms: C10_14  and  C11_15 
REMARK    8  A    between atoms: C13_19  and  O4_20 
REMARK    9  A    between atoms: O4_20  and  C14_21 
REMARK   10  A    between atoms: C15_23  and  S1_24 
REMARK   11  A    between atoms: C17_26  and  O6_27 
REMARK   12  A    between atoms: C18_29  and  O7_30 
REMARK   13  A    between atoms: C19_32  and  O8_33 
REMARK   14  A    between atoms: C20_35  and  O9_36 
ROOT
HETATM    1  C5  UNL     1      22.268  64.410  47.738  1.00  0.00     0.354 C 
HETATM    2  O1  UNL     1      21.398  65.478  47.828  1.00  0.00    -0.354 OA
HETATM    3  C6  UNL     1      21.812  66.426  46.874  1.00  0.00     0.208 C 
HETATM    4  C7  UNL     1      20.778  66.365  45.775  1.00  0.00     0.082 C 
HETATM    5  C8  UNL     1      21.252  67.177  44.591  1.00  0.00     0.048 C 
HETATM    6  O3  UNL     1      20.568  65.029  45.437  1.00  0.00    -0.346 OA
HETATM    7  C13 UNL     1      21.715  64.287  45.264  1.00  0.00     0.297 C 
HETATM    8  C20 UNL     1      22.195  63.596  46.513  1.00  0.00     0.229 C 
ENDROOT
BRANCH   7   9
HETATM    9  O4  UNL     1      21.329  63.236  44.397  1.00  0.00    -0.326 OA
BRANCH   9  10
HETATM   10  C14 UNL     1      21.507  63.590  43.042  1.00  0.00     0.295 C 
HETATM   11  O5  UNL     1      20.277  63.494  42.492  1.00  0.00    -0.340 OA
HETATM   12  C15 UNL     1      20.057  62.913  41.306  1.00  0.00     0.217 C 
HETATM   13  C17 UNL     1      21.294  62.600  40.494  1.00  0.00     0.188 C 
HETATM   14  C18 UNL     1      22.269  61.845  41.370  1.00  0.00     0.183 C 
HETATM   15  C19 UNL     1      22.600  62.733  42.521  1.00  0.00     0.204 C 
BRANCH  12  16
HETATM   16  S1  UNL     1      19.287  61.278  41.649  1.00  0.00    -0.139 SA
HETATM   17  C16 UNL     1      18.555  61.218  43.282  1.00  0.00     0.092 C 
ENDBRANCH  12  16
BRANCH  13  18
HETATM   18  O6  UNL     1      20.992  61.782  39.411  1.00  0.00    -0.389 OA
ATOM     19  H6  UNL     1      21.529  61.996  38.657  1.00  0.00     0.210 HD
ENDBRANCH  13  18
BRANCH  14  20
HETATM   20  O7  UNL     1      23.382  61.529  40.616  1.00  0.00    -0.390 OA
ATOM     21  H7  UNL     1      24.146  61.914  41.029  1.00  0.00     0.210 HD
ENDBRANCH  14  20
BRANCH  15  22
HETATM   22  O8  UNL     1      23.728  63.499  42.127  1.00  0.00    -0.388 OA
ATOM     23  H8  UNL     1      24.109  63.967  42.860  1.00  0.00     0.210 HD
ENDBRANCH  15  22
ENDBRANCH   9  10
ENDBRANCH   7   9
BRANCH   8  24
HETATM   24  O9  UNL     1      21.320  62.511  46.744  1.00  0.00    -0.386 OA
ATOM     25  H9  UNL     1      20.568  62.601  46.170  1.00  0.00     0.210 HD
ENDBRANCH   8  24
BRANCH   4  26
HETATM   26  C9  UNL     1      19.466  66.873  46.309  1.00  0.00     0.047 C 
BRANCH  26  27
HETATM   27  C10 UNL     1      18.257  66.151  45.825  1.00  0.00     0.081 C 
BRANCH  27  28
HETATM   28  C11 UNL     1      17.556  65.500  46.990  1.00  0.00     0.123 C 
HETATM   29  C12 UNL     1      16.071  65.481  47.063  1.00  0.00     0.091 C 
HETATM   30  O2  UNL     1      18.174  64.975  47.895  1.00  0.00    -0.298 OA
ENDBRANCH  27  28
ENDBRANCH  26  27
ENDBRANCH   4  26
BRANCH   1  31
HETATM   31  N1  UNL     1      22.024  63.566  48.896  1.00  0.00    -0.046 N 
ATOM     32  H12 UNL     1      22.182  62.584  48.674  1.00  0.00     0.280 HD
ATOM     33  H11 UNL     1      21.029  63.526  49.117  1.00  0.00     0.280 HD
BRANCH  31  34
HETATM   34  C4  UNL     1      22.791  63.967  50.041  1.00  0.00     0.235 C 
BRANCH  34  35
HETATM   35  C3  UNL     1      24.208  64.304  49.731  1.00  0.00     0.027 C 
BRANCH  35  36
HETATM   36  C2  UNL     1      25.116  63.231  50.277  1.00  0.00    -0.003 C 
HETATM   37  C1  UNL     1      26.340  63.153  49.412  1.00  0.00     0.005 C 
ENDBRANCH  35  36
ENDBRANCH  34  35
ENDBRANCH  31  34
ENDBRANCH   1  31
TORSDOF 14
ENDMDL
MODEL 3
REMARK VINA RESULT: -7.339571390      1.857      2.237
REMARK  14 active torsions:
REMARK  status: ('A' for Active; 'I' for Inactive)
REMARK    1  A    between atoms: C2_2  and  C3_3 
REMARK    2  A    between atoms: C3_3  and  C4_4 
REMARK    3  A    between atoms: C4_4  and  N1_5 
REMARK    4  A    between atoms: N1_5  and  C5_8 
REMARK    5  A    between atoms: C7_11  and  C9_13 
REMARK    6  A    between atoms: C9_13  and  C10_14 
REMARK    7  A    between atoms: C10_14  and  C11_15 
REMARK    8  A    between atoms: C13_19  and  O4_20 
REMARK    9  A    between atoms: O4_20  and  C14_21 
REMARK   10  A    between atoms: C15_23  and  S1_24 
REMARK   11  A    between atoms: C17_26  and  O6_27 
REMARK   12  A    between atoms: C18_29  and  O7_30 
REMARK   13  A    between atoms: C19_32  and  O8_33 
REMARK   14  A    between atoms: C20_35  and  O9_36 
ROOT
HETATM    1  C5  UNL     1      23.134  66.124  46.873  1.00  0.00     0.354 C 
HETATM    2  O1  UNL     1      21.899  66.386  47.431  1.00  0.00    -0.354 OA
HETATM    3  C6  UNL     1      21.154  67.088  46.465  1.00  0.00     0.208 C 
HETATM    4  C7  UNL     1      20.124  66.104  45.964  1.00  0.00     0.082 C 
HETATM    5  C8  UNL     1      19.420  66.682  44.757  1.00  0.00     0.048 C 
HETATM    6  O3  UNL     1      20.765  64.904  45.664  1.00  0.00    -0.346 OA
HETATM    7  C13 UNL     1      21.922  65.031  44.929  1.00  0.00     0.297 C 
HETATM    8  C20 UNL     1      23.170  65.157  45.764  1.00  0.00     0.229 C 
ENDROOT
BRANCH   7   9
HETATM    9  O4  UNL     1      22.059  63.789  44.263  1.00  0.00    -0.326 OA
BRANCH   9  10
HETATM   10  C14 UNL     1      22.032  63.949  42.861  1.00  0.00     0.295 C 
HETATM   11  O5  UNL     1      20.746  63.729  42.509  1.00  0.00    -0.340 OA
HETATM   12  C15 UNL     1      20.401  62.974  41.459  1.00  0.00     0.217 C 
HETATM   13  C17 UNL     1      21.533  62.590  40.532  1.00  0.00     0.188 C 
HETATM   14  C18 UNL     1      22.659  62.007  41.358  1.00  0.00     0.183 C 
HETATM   15  C19 UNL     1      23.092  63.065  42.315  1.00  0.00     0.204 C 
BRANCH  12  16
HETATM   16  S1  UNL     1      19.777  61.379  42.132  1.00  0.00    -0.139 SA
HETATM   17  C16 UNL     1      19.375  61.504  43.872  1.00  0.00     0.092 C 
ENDBRANCH  12  16
BRANCH  13  18
HETATM   18  O6  UNL     1      21.135  61.613  39.626  1.00  0.00    -0.389 OA
ATOM     19  H6  UNL     1      21.875  61.271  39.140  1.00  0.00     0.210 HD
ENDBRANCH  13  18
BRANCH  14  20
HETATM   20  O7  UNL     1      23.675  61.625  40.505  1.00  0.00    -0.390 OA
ATOM     21  H7  UNL     1      24.186  60.946  40.930  1.00  0.00     0.210 HD
ENDBRANCH  14  20
BRANCH  15  22
HETATM   22  O8  UNL     1      24.111  63.805  41.662  1.00  0.00    -0.388 OA
ATOM     23  H8  UNL     1      23.816  64.676  41.423  1.00  0.00     0.210 HD
ENDBRANCH  15  22
ENDBRANCH   9  10
ENDBRANCH   7   9
BRANCH   8  24
HETATM   24  O9  UNL     1      23.441  63.874  46.292  1.00  0.00    -0.386 OA
ATOM     25  H9  UNL     1      22.632  63.377  46.310  1.00  0.00     0.210 HD
ENDBRANCH   8  24
BRANCH   4  26
HETATM   26  C9  UNL     1      19.158  65.796  47.077  1.00  0.00     0.047 C 
BRANCH  26  27
HETATM   27  C10 UNL     1      17.826  65.290  46.644  1.00  0.00     0.081 C 
BRANCH  27  28
HETATM   28  C11 UNL     1      16.755  65.848  47.548  1.00  0.00     0.123 C 
HETATM   29  C12 UNL     1      15.342  65.411  47.402  1.00  0.00     0.091 C 
HETATM   30  O2  UNL     1      17.010  66.660  48.414  1.00  0.00    -0.298 OA
ENDBRANCH  27  28
ENDBRANCH  26  27
ENDBRANCH   4  26
BRANCH   1  31
HETATM   31  N1  UNL     1      23.994  65.659  47.949  1.00  0.00    -0.046 N 
ATOM     32  H12 UNL     1      24.837  66.230  48.017  1.00  0.00     0.280 HD
ATOM     33  H11 UNL     1      24.422  64.762  47.716  1.00  0.00     0.280 HD
BRANCH  31  34
HETATM   34  C4  UNL     1      23.312  65.594  49.211  1.00  0.00     0.235 C 
BRANCH  34  35
HETATM   35  C3  UNL     1      23.134  64.209  49.730  1.00  0.00     0.027 C 
BRANCH  35  36
HETATM   36  C2  UNL     1      21.673  63.954  50.003  1.00  0.00    -0.003 C 
HETATM   37  C1  UNL     1      21.086  63.230  48.828  1.00  0.00     0.005 C 
ENDBRANCH  35  36
ENDBRANCH  34  35
ENDBRANCH  31  34
ENDBRANCH   1  31
TORSDOF 14
ENDMDL
MODEL 4
REMARK VINA RESULT: -7.313615759      2.049      2.641
REMARK  14 active torsions:
REMARK  status: ('A' for Active; 'I' for Inactive)
REMARK    1  A    between atoms: C2_2  and  C3_3 
REMARK    2  A    between atoms: C3_3  and  C4_4 
REMARK    3  A    between atoms: C4_4  and  N1_5 
REMARK    4  A    between atoms: N1_5  and  C5_8 
REMARK    5  A    between atoms: C7_11  and  C9_13 
REMARK    6  A    between atoms: C9_13  and  C10_14 
REMARK    7  A    between atoms: C10_14  and  C11_15 
REMARK    8  A    between atoms: C13_19  and  O4_20 
REMARK    9  A    between atoms: O4_20  and  C14_21 
REMARK   10  A    between atoms: C15_23  and  S1_24 
REMARK   11  A    between atoms: C17_26  and  O6_27 
REMARK   12  A    between atoms: C18_29  and  O7_30 
REMARK   13  A    between atoms: C19_32  and  O8_33 
REMARK   14  A    between atoms: C20_35  and  O9_36 
ROOT
HETATM    1  C5  UNL     1      22.109  64.503  46.731  1.00  0.00     0.354 C 
HETATM    2  O1  UNL     1      21.209  65.512  47.010  1.00  0.00    -0.354 OA
HETATM    3  C6  UNL     1      21.425  66.528  46.061  1.00  0.00     0.208 C 
HETATM    4  C7  UNL     1      20.241  66.459  45.126  1.00  0.00     0.082 C 
HETATM    5  C8  UNL     1      20.488  67.354  43.932  1.00  0.00     0.048 C 
HETATM    6  O3  UNL     1      20.051  65.132  44.748  1.00  0.00    -0.346 OA
HETATM    7  C13 UNL     1      21.194  64.468  44.364  1.00  0.00     0.297 C 
HETATM    8  C20 UNL     1      21.893  63.747  45.487  1.00  0.00     0.229 C 
ENDROOT
BRANCH   7   9
HETATM    9  O4  UNL     1      20.736  63.438  43.506  1.00  0.00    -0.326 OA
BRANCH   9  10
HETATM   10  C14 UNL     1      21.303  63.548  42.217  1.00  0.00     0.295 C 
HETATM   11  O5  UNL     1      20.405  64.260  41.502  1.00  0.00    -0.340 OA
HETATM   12  C15 UNL     1      20.042  63.927  40.257  1.00  0.00     0.217 C 
HETATM   13  C17 UNL     1      20.884  62.857  39.597  1.00  0.00     0.188 C 
HETATM   14  C18 UNL     1      20.991  61.677  40.538  1.00  0.00     0.183 C 
HETATM   15  C19 UNL     1      21.641  62.170  41.786  1.00  0.00     0.204 C 
BRANCH  12  16
HETATM   16  S1  UNL     1      18.356  63.201  40.371  1.00  0.00    -0.139 SA
HETATM   17  C16 UNL     1      17.749  63.189  42.054  1.00  0.00     0.092 C 
ENDBRANCH  12  16
BRANCH  13  18
HETATM   18  O6  UNL     1      20.292  62.400  38.425  1.00  0.00    -0.389 OA
ATOM     19  H6  UNL     1      20.397  61.461  38.329  1.00  0.00     0.210 HD
ENDBRANCH  13  18
BRANCH  14  20
HETATM   20  O7  UNL     1      21.730  60.689  39.918  1.00  0.00    -0.390 OA
ATOM     21  H7  UNL     1      22.089  60.116  40.586  1.00  0.00     0.210 HD
ENDBRANCH  14  20
BRANCH  15  22
HETATM   22  O8  UNL     1      23.038  62.003  41.604  1.00  0.00    -0.388 OA
ATOM     23  H8  UNL     1      23.473  62.829  41.432  1.00  0.00     0.210 HD
ENDBRANCH  15  22
ENDBRANCH   9  10
ENDBRANCH   7   9
BRANCH   8  24
HETATM   24  O9  UNL     1      21.120  62.602  45.784  1.00  0.00    -0.386 OA
ATOM     25  H9  UNL     1      21.673  61.834  45.704  1.00  0.00     0.210 HD
ENDBRANCH   8  24
BRANCH   4  26
HETATM   26  C9  UNL     1      19.000  66.862  45.876  1.00  0.00     0.047 C 
BRANCH  26  27
HETATM   27  C10 UNL     1      17.798  66.023  45.621  1.00  0.00     0.081 C 
BRANCH  27  28
HETATM   28  C11 UNL     1      17.280  65.470  46.925  1.00  0.00     0.123 C 
HETATM   29  C12 UNL     1      15.825  65.488  47.227  1.00  0.00     0.091 C 
HETATM   30  O2  UNL     1      18.025  64.997  47.759  1.00  0.00    -0.298 OA
ENDBRANCH  27  28
ENDBRANCH  26  27
ENDBRANCH   4  26
BRANCH   1  31
HETATM   31  N1  UNL     1      22.087  63.591  47.863  1.00  0.00    -0.046 N 
ATOM     32  H12 UNL     1      22.953  63.056  47.920  1.00  0.00     0.280 HD
ATOM     33  H11 UNL     1      21.432  62.825  47.704  1.00  0.00     0.280 HD
BRANCH  31  34
HETATM   34  C4  UNL     1      21.809  64.259  49.103  1.00  0.00     0.235 C 
BRANCH  34  35
HETATM   35  C3  UNL     1      22.792  63.962  50.182  1.00  0.00     0.027 C 
BRANCH  35  36
HETATM   36  C2  UNL     1      24.186  64.273  49.698  1.00  0.00    -0.003 C 
HETATM   37  C1  UNL     1      25.123  63.235  50.241  1.00  0.00     0.005 C 
ENDBRANCH  35  36
ENDBRANCH  34  35
ENDBRANCH  31  34
ENDBRANCH   1  31
TORSDOF 14
ENDMDL
MODEL 5
REMARK VINA RESULT: -7.226975941      3.029      5.975
REMARK  14 active torsions:
REMARK  status: ('A' for Active; 'I' for Inactive)
REMARK    1  A    between atoms: C2_2  and  C3_3 
REMARK    2  A    between atoms: C3_3  and  C4_4 
REMARK    3  A    between atoms: C4_4  and  N1_5 
REMARK    4  A    between atoms: N1_5  and  C5_8 
REMARK    5  A    between atoms: C7_11  and  C9_13 
REMARK    6  A    between atoms: C9_13  and  C10_14 
REMARK    7  A    between atoms: C10_14  and  C11_15 
REMARK    8  A    between atoms: C13_19  and  O4_20 
REMARK    9  A    between atoms: O4_20  and  C14_21 
REMARK   10  A    between atoms: C15_23  and  S1_24 
REMARK   11  A    between atoms: C17_26  and  O6_27 
REMARK   12  A    between atoms: C18_29  and  O7_30 
REMARK   13  A    between atoms: C19_32  and  O8_33 
REMARK   14  A    between atoms: C20_35  and  O9_36 
ROOT
HETATM    1  C5  UNL     1      20.516  65.384  44.356  1.00  0.00     0.354 C 
HETATM    2  O1  UNL     1      19.989  64.255  43.763  1.00  0.00    -0.354 OA
HETATM    3  C6  UNL     1      20.577  64.148  42.488  1.00  0.00     0.208 C 
HETATM    4  C7  UNL     1      21.544  62.993  42.590  1.00  0.00     0.082 C 
HETATM    5  C8  UNL     1      22.400  62.941  41.344  1.00  0.00     0.048 C 
HETATM    6  O3  UNL     1      22.314  63.158  43.740  1.00  0.00    -0.346 OA
HETATM    7  C13 UNL     1      22.825  64.424  43.920  1.00  0.00     0.297 C 
HETATM    8  C20 UNL     1      21.939  65.335  44.729  1.00  0.00     0.229 C 
ENDROOT
BRANCH   7   9
HETATM    9  O4  UNL     1      23.974  64.231  44.724  1.00  0.00    -0.326 OA
BRANCH   9  10
HETATM   10  C14 UNL     1      24.784  63.187  44.229  1.00  0.00     0.295 C 
HETATM   11  O5  UNL     1      24.982  62.368  45.285  1.00  0.00    -0.340 OA
HETATM   12  C15 UNL     1      26.179  61.850  45.586  1.00  0.00     0.217 C 
HETATM   13  C17 UNL     1      27.248  62.023  44.530  1.00  0.00     0.188 C 
HETATM   14  C18 UNL     1      27.299  63.480  44.126  1.00  0.00     0.183 C 
HETATM   15  C19 UNL     1      25.955  63.830  43.584  1.00  0.00     0.204 C 
BRANCH  12  16
HETATM   16  S1  UNL     1      26.805  62.772  47.051  1.00  0.00    -0.139 SA
HETATM   17  C16 UNL     1      25.482  63.594  47.933  1.00  0.00     0.092 C 
ENDBRANCH  12  16
BRANCH  13  18
HETATM   18  O6  UNL     1      28.504  61.686  45.024  1.00  0.00    -0.389 OA
ATOM     19  H6  UNL     1      29.186  61.883  44.393  1.00  0.00     0.210 HD
ENDBRANCH  13  18
BRANCH  14  20
HETATM   20  O7  UNL     1      28.300  63.640  43.189  1.00  0.00    -0.390 OA
ATOM     21  H7  UNL     1      28.216  64.504  42.803  1.00  0.00     0.210 HD
ENDBRANCH  14  20
BRANCH  15  22
HETATM   22  O8  UNL     1      26.002  63.564  42.191  1.00  0.00    -0.388 OA
ATOM     23  H8  UNL     1      26.862  63.738  41.828  1.00  0.00     0.210 HD
ENDBRANCH  15  22
ENDBRANCH   9  10
ENDBRANCH   7   9
BRANCH   8  24
HETATM   24  O9  UNL     1      22.039  64.916  46.074  1.00  0.00    -0.386 OA
ATOM     25  H9  UNL     1      21.575  64.092  46.170  1.00  0.00     0.210 HD
ENDBRANCH   8  24
BRANCH   4  26
HETATM   26  C9  UNL     1      20.767  61.719  42.785  1.00  0.00     0.047 C 
BRANCH  26  27
HETATM   27  C10 UNL     1      20.286  61.067  41.537  1.00  0.00     0.081 C 
BRANCH  27  28
HETATM   28  C11 UNL     1      18.787  61.203  41.439  1.00  0.00     0.123 C 
HETATM   29  C12 UNL     1      17.953  61.265  42.667  1.00  0.00     0.091 C 
HETATM   30  O2  UNL     1      18.221  61.268  40.366  1.00  0.00    -0.298 OA
ENDBRANCH  27  28
ENDBRANCH  26  27
ENDBRANCH   4  26
BRANCH   1  31
HETATM   31  N1  UNL     1      19.714  65.655  45.537  1.00  0.00    -0.046 N 
ATOM     32  H12 UNL     1      20.192  65.346  46.384  1.00  0.00     0.280 HD
ATOM     33  H11 UNL     1      18.900  65.042  45.576  1.00  0.00     0.280 HD
BRANCH  31  34
HETATM   34  C4  UNL     1      19.328  67.034  45.637  1.00  0.00     0.235 C 
BRANCH  34  35
HETATM   35  C3  UNL     1      19.864  67.726  46.842  1.00  0.00     0.027 C 
BRANCH  35  36
HETATM   36  C2  UNL     1      20.844  68.792  46.421  1.00  0.00    -0.003 C 
HETATM   37  C1  UNL     1      20.527  69.203  45.013  1.00  0.00     0.005 C 
ENDBRANCH  35  36
ENDBRANCH  34  35
ENDBRANCH  31  34
ENDBRANCH   1  31
TORSDOF 14
ENDMDL
