MODEL 1
REMARK VINA RESULT: -3.391696134      0.000      0.000
REMARK  0 active torsions:
REMARK  status: ('A' for Active; 'I' for Inactive)
ROOT
HETATM    1  N1  UNL     1      53.266  36.414  45.744  1.00  0.00    -0.190 NA
HETATM    2  C1  UNL     1      52.359  35.699  45.522  1.00  0.00     0.120 C 
HETATM    3  C2  UNL     1      51.266  34.807  45.259  1.00  0.00     0.147 A 
HETATM    4  N2  UNL     1      51.259  34.072  44.116  1.00  0.00    -0.298 N 
ATOM      5  H2  UNL     1      52.034  34.166  43.459  1.00  0.00     0.171 HD
HETATM    6  C3  UNL     1      50.256  33.226  43.830  1.00  0.00     0.328 A 
HETATM    7  O1  UNL     1      50.270  32.549  42.757  1.00  0.00    -0.247 OA
HETATM    8  N3  UNL     1      49.250  33.126  44.717  1.00  0.00    -0.274 N 
ATOM      9  H3  UNL     1      48.481  32.486  44.514  1.00  0.00     0.173 HD
HETATM   10  C4  UNL     1      49.214  33.836  45.866  1.00  0.00     0.276 A 
HETATM   11  O2  UNL     1      48.260  33.731  46.689  1.00  0.00    -0.266 OA
HETATM   12  C5  UNL     1      50.234  34.705  46.169  1.00  0.00     0.151 A 
HETATM   13  N4  UNL     1      50.269  35.489  47.360  1.00  0.00    -0.093 NA
ENDROOT
TORSDOF 0
ENDMDL
MODEL 2
REMARK VINA RESULT: -2.676408586      6.093      8.222
REMARK  0 active torsions:
REMARK  status: ('A' for Active; 'I' for Inactive)
ROOT
HETATM    1  N1  UNL     1      54.058  35.929  45.862  1.00  0.00    -0.190 NA
HETATM    2  C1  UNL     1      54.561  36.953  46.143  1.00  0.00     0.120 C 
HETATM    3  C2  UNL     1      55.192  38.192  46.499  1.00  0.00     0.147 A 
HETATM    4  N2  UNL     1      54.928  38.758  47.705  1.00  0.00    -0.298 N 
ATOM      5  H2  UNL     1      54.282  38.293  48.342  1.00  0.00     0.171 HD
HETATM    6  C3  UNL     1      55.497  39.917  48.078  1.00  0.00     0.328 A 
HETATM    7  O1  UNL     1      55.236  40.428  49.210  1.00  0.00    -0.247 OA
HETATM    8  N3  UNL     1      56.344  40.504  47.214  1.00  0.00    -0.274 N 
ATOM      9  H3  UNL     1      56.784  41.385  47.484  1.00  0.00     0.173 HD
HETATM   10  C4  UNL     1      56.637  39.978  46.004  1.00  0.00     0.276 A 
HETATM   11  O2  UNL     1      57.436  40.544  45.204  1.00  0.00    -0.266 OA
HETATM   12  C5  UNL     1      56.061  38.795  45.612  1.00  0.00     0.151 A 
HETATM   13  N4  UNL     1      56.319  38.177  44.353  1.00  0.00    -0.093 NA
ENDROOT
TORSDOF 0
ENDMDL
MODEL 3
REMARK VINA RESULT: -2.510899859      1.410      2.894
REMARK  0 active torsions:
REMARK  status: ('A' for Active; 'I' for Inactive)
ROOT
HETATM    1  N1  UNL     1      50.191  36.421  47.917  1.00  0.00    -0.190 NA
HETATM    2  C1  UNL     1      50.032  35.599  47.093  1.00  0.00     0.120 C 
HETATM    3  C2  UNL     1      49.822  34.608  46.076  1.00  0.00     0.147 A 
HETATM    4  N2  UNL     1      48.801  33.720  46.205  1.00  0.00    -0.298 N 
ATOM      5  H2  UNL     1      48.198  33.771  47.026  1.00  0.00     0.171 HD
HETATM    6  C3  UNL     1      48.568  32.776  45.277  1.00  0.00     0.328 A 
HETATM    7  O1  UNL     1      47.609  31.958  45.418  1.00  0.00    -0.247 OA
HETATM    8  N3  UNL     1      49.382  32.737  44.207  1.00  0.00    -0.274 N 
ATOM      9  H3  UNL     1      49.217  32.026  43.494  1.00  0.00     0.173 HD
HETATM   10  C4  UNL     1      50.409  33.599  44.037  1.00  0.00     0.276 A 
HETATM   11  O2  UNL     1      51.165  33.548  43.024  1.00  0.00    -0.266 OA
HETATM   12  C5  UNL     1      50.658  34.567  44.979  1.00  0.00     0.151 A 
HETATM   13  N4  UNL     1      51.720  35.512  44.871  1.00  0.00    -0.093 NA
ENDROOT
TORSDOF 0
ENDMDL
MODEL 4
REMARK VINA RESULT: -1.913675523      6.090      7.793
REMARK  0 active torsions:
REMARK  status: ('A' for Active; 'I' for Inactive)
ROOT
HETATM    1  N1  UNL     1      53.971  35.903  45.709  1.00  0.00    -0.190 NA
HETATM    2  C1  UNL     1      54.691  36.831  45.684  1.00  0.00     0.120 C 
HETATM    3  C2  UNL     1      55.551  37.979  45.645  1.00  0.00     0.147 A 
HETATM    4  N2  UNL     1      56.112  38.358  44.466  1.00  0.00    -0.298 N 
ATOM      5  H2  UNL     1      55.913  37.820  43.624  1.00  0.00     0.171 HD
HETATM    6  C3  UNL     1      56.924  39.427  44.385  1.00  0.00     0.328 A 
HETATM    7  O1  UNL     1      57.436  39.763  43.274  1.00  0.00    -0.247 OA
HETATM    8  N3  UNL     1      57.166  40.115  45.515  1.00  0.00    -0.274 N 
ATOM      9  H3  UNL     1      57.780  40.929  45.468  1.00  0.00     0.173 HD
HETATM   10  C4  UNL     1      56.632  39.775  46.708  1.00  0.00     0.276 A 
HETATM   11  O2  UNL     1      56.870  40.433  47.761  1.00  0.00    -0.266 OA
HETATM   12  C5  UNL     1      55.801  38.685  46.804  1.00  0.00     0.151 A 
HETATM   13  N4  UNL     1      55.198  38.263  48.025  1.00  0.00    -0.093 NA
ENDROOT
TORSDOF 0
ENDMDL
MODEL 5
REMARK VINA RESULT: -1.643372587      5.846      7.741
REMARK  0 active torsions:
REMARK  status: ('A' for Active; 'I' for Inactive)
ROOT
HETATM    1  N1  UNL     1      55.786  41.014  48.971  1.00  0.00    -0.190 NA
HETATM    2  C1  UNL     1      55.813  40.279  48.055  1.00  0.00     0.120 C 
HETATM    3  C2  UNL     1      55.826  39.392  46.927  1.00  0.00     0.147 A 
HETATM    4  N2  UNL     1      55.048  38.279  46.939  1.00  0.00    -0.298 N 
ATOM      5  H2  UNL     1      54.464  38.089  47.753  1.00  0.00     0.171 HD
HETATM    6  C3  UNL     1      55.030  37.421  45.904  1.00  0.00     0.328 A 
HETATM    7  O1  UNL     1      54.295  36.388  45.937  1.00  0.00    -0.247 OA
HETATM    8  N3  UNL     1      55.812  37.701  44.847  1.00  0.00    -0.274 N 
ATOM      9  H3  UNL     1      55.809  37.059  44.053  1.00  0.00     0.173 HD
HETATM   10  C4  UNL     1      56.603  38.796  44.790  1.00  0.00     0.276 A 
HETATM   11  O2  UNL     1      57.333  39.044  43.788  1.00  0.00    -0.266 OA
HETATM   12  C5  UNL     1      56.630  39.679  45.842  1.00  0.00     0.151 A 
HETATM   13  N4  UNL     1      57.436  40.855  45.857  1.00  0.00    -0.093 NA
ENDROOT
TORSDOF 0
ENDMDL
