MODEL 1
REMARK VINA RESULT: -4.925503034      0.000      0.000
REMARK  2 active torsions:
REMARK  status: ('A' for Active; 'I' for Inactive)
REMARK    1  A    between atoms: N1_1  and  N2_4 
REMARK    2  A    between atoms: N2_4  and  C1_6 
ROOT
HETATM    1  C1  UNL     1      55.989  39.769  47.153  1.00  0.00     0.702 A 
HETATM    2  N3  UNL     1      55.304  38.622  47.144  1.00  0.00    -0.162 N 
ATOM      3  H3  UNL     1      54.767  38.364  47.972  1.00  0.00     0.187 HD
HETATM    4  C2  UNL     1      55.295  37.790  46.077  1.00  0.00     0.210 A 
HETATM    5  N4  UNL     1      54.536  36.593  46.165  1.00  0.00    -0.062 NA
HETATM    6  N5  UNL     1      55.997  38.134  45.000  1.00  0.00    -0.282 N 
ATOM      7  H5  UNL     1      56.006  37.523  44.184  1.00  0.00     0.173 HD
HETATM    8  C3  UNL     1      56.696  39.286  44.984  1.00  0.00     0.341 A 
HETATM    9  O1  UNL     1      57.364  39.627  43.975  1.00  0.00    -0.246 OA
HETATM   10  N6  UNL     1      56.692  40.100  46.056  1.00  0.00    -0.140 N 
ATOM     11  H6  UNL     1      57.222  40.971  46.036  1.00  0.00     0.189 HD
ENDROOT
BRANCH   1  12
HETATM   12  N2  UNL     1      55.980  40.556  48.198  1.00  0.00    -0.138 N 
ATOM     13  H2  UNL     1      56.838  41.038  48.468  1.00  0.00     0.205 HD
BRANCH  12  14
HETATM   14  N1  UNL     1      54.829  40.748  48.945  1.00  0.00    -0.331 N 
ATOM     15  H12 UNL     1      54.754  41.593  49.510  1.00  0.00     0.177 HD
ATOM     16  H11 UNL     1      54.072  40.064  48.934  1.00  0.00     0.177 HD
ENDBRANCH  12  14
ENDBRANCH   1  12
TORSDOF 2
ENDMDL
MODEL 2
REMARK VINA RESULT: -4.719308231      1.635      2.557
REMARK  2 active torsions:
REMARK  status: ('A' for Active; 'I' for Inactive)
REMARK    1  A    between atoms: N1_1  and  N2_4 
REMARK    2  A    between atoms: N2_4  and  C1_6 
ROOT
HETATM    1  C1  UNL     1      55.955  39.745  47.141  1.00  0.00     0.702 A 
HETATM    2  N3  UNL     1      56.628  40.040  46.027  1.00  0.00    -0.162 N 
ATOM      3  H3  UNL     1      57.164  40.907  45.991  1.00  0.00     0.187 HD
HETATM    4  C2  UNL     1      56.627  39.232  44.941  1.00  0.00     0.210 A 
HETATM    5  N4  UNL     1      57.374  39.635  43.803  1.00  0.00    -0.062 NA
HETATM    6  N5  UNL     1      55.926  38.103  44.995  1.00  0.00    -0.282 N 
ATOM      7  H5  UNL     1      55.909  37.478  44.189  1.00  0.00     0.173 HD
HETATM    8  C3  UNL     1      55.238  37.782  46.108  1.00  0.00     0.341 A 
HETATM    9  O1  UNL     1      54.571  36.718  46.177  1.00  0.00    -0.246 OA
HETATM   10  N6  UNL     1      55.253  38.599  47.177  1.00  0.00    -0.140 N 
ATOM     11  H6  UNL     1      54.731  38.349  48.017  1.00  0.00     0.189 HD
ENDROOT
BRANCH   1  12
HETATM   12  N2  UNL     1      55.974  40.544  48.177  1.00  0.00    -0.138 N 
ATOM     13  H2  UNL     1      56.841  41.020  48.427  1.00  0.00     0.205 HD
BRANCH  12  14
HETATM   14  N1  UNL     1      54.837  40.758  48.941  1.00  0.00    -0.331 N 
ATOM     15  H12 UNL     1      54.812  40.379  49.887  1.00  0.00     0.177 HD
ATOM     16  H11 UNL     1      54.042  41.280  48.572  1.00  0.00     0.177 HD
ENDBRANCH  12  14
ENDBRANCH   1  12
TORSDOF 2
ENDMDL
MODEL 3
REMARK VINA RESULT: -3.485651858      1.979      3.987
REMARK  2 active torsions:
REMARK  status: ('A' for Active; 'I' for Inactive)
REMARK    1  A    between atoms: N1_1  and  N2_4 
REMARK    2  A    between atoms: N2_4  and  C1_6 
ROOT
HETATM    1  C1  UNL     1      55.473  37.753  45.868  1.00  0.00     0.702 A 
HETATM    2  N3  UNL     1      56.227  38.524  45.081  1.00  0.00    -0.162 N 
ATOM      3  H3  UNL     1      56.505  38.169  44.166  1.00  0.00     0.187 HD
HETATM    4  C2  UNL     1      56.635  39.760  45.451  1.00  0.00     0.210 A 
HETATM    5  N4  UNL     1      57.436  40.502  44.542  1.00  0.00    -0.062 NA
HETATM    6  N5  UNL     1      56.268  40.217  46.644  1.00  0.00    -0.282 N 
ATOM      7  H5  UNL     1      56.564  41.145  46.945  1.00  0.00     0.173 HD
HETATM    8  C3  UNL     1      55.507  39.459  47.458  1.00  0.00     0.341 A 
HETATM    9  O1  UNL     1      55.150  39.874  48.589  1.00  0.00    -0.246 OA
HETATM   10  N6  UNL     1      55.111  38.231  47.071  1.00  0.00    -0.140 N 
ATOM     11  H6  UNL     1      54.534  37.664  47.692  1.00  0.00     0.189 HD
ENDROOT
BRANCH   1  12
HETATM   12  N2  UNL     1      55.092  36.561  45.487  1.00  0.00    -0.138 N 
ATOM     13  H2  UNL     1      54.123  36.275  45.634  1.00  0.00     0.205 HD
BRANCH  12  14
HETATM   14  N1  UNL     1      55.977  35.680  44.887  1.00  0.00    -0.331 N 
ATOM     15  H12 UNL     1      56.974  35.893  44.926  1.00  0.00     0.177 HD
ATOM     16  H11 UNL     1      55.647  34.838  44.415  1.00  0.00     0.177 HD
ENDBRANCH  12  14
ENDBRANCH   1  12
TORSDOF 2
ENDMDL
MODEL 4
REMARK VINA RESULT: -3.458457212      0.926      3.295
REMARK  2 active torsions:
REMARK  status: ('A' for Active; 'I' for Inactive)
REMARK    1  A    between atoms: N1_1  and  N2_4 
REMARK    2  A    between atoms: N2_4  and  C1_6 
ROOT
HETATM    1  C1  UNL     1      55.514  37.805  45.908  1.00  0.00     0.702 A 
HETATM    2  N3  UNL     1      55.160  38.337  47.080  1.00  0.00    -0.162 N 
ATOM      3  H3  UNL     1      54.567  37.794  47.707  1.00  0.00     0.187 HD
HETATM    4  C2  UNL     1      55.559  39.571  47.468  1.00  0.00     0.210 A 
HETATM    5  N4  UNL     1      55.128  40.048  48.735  1.00  0.00    -0.062 NA
HETATM    6  N5  UNL     1      56.333  40.273  46.646  1.00  0.00    -0.282 N 
ATOM      7  H5  UNL     1      56.646  41.206  46.916  1.00  0.00     0.173 HD
HETATM    8  C3  UNL     1      56.704  39.759  45.457  1.00  0.00     0.341 A 
HETATM    9  O1  UNL     1      57.436  40.409  44.667  1.00  0.00    -0.246 OA
HETATM   10  N6  UNL     1      56.297  38.530  45.090  1.00  0.00    -0.140 N 
ATOM     11  H6  UNL     1      56.584  38.147  44.189  1.00  0.00     0.189 HD
ENDROOT
BRANCH   1  12
HETATM   12  N2  UNL     1      55.115  36.610  45.557  1.00  0.00    -0.138 N 
ATOM     13  H2  UNL     1      54.180  36.297  45.820  1.00  0.00     0.205 HD
BRANCH  12  14
HETATM   14  N1  UNL     1      55.937  35.761  44.833  1.00  0.00    -0.331 N 
ATOM     15  H12 UNL     1      56.856  36.102  44.550  1.00  0.00     0.177 HD
ATOM     16  H11 UNL     1      55.638  34.818  44.587  1.00  0.00     0.177 HD
ENDBRANCH  12  14
ENDBRANCH   1  12
TORSDOF 2
ENDMDL
MODEL 5
REMARK VINA RESULT: -3.221422506      2.000      3.246
REMARK  2 active torsions:
REMARK  status: ('A' for Active; 'I' for Inactive)
REMARK    1  A    between atoms: N1_1  and  N2_4 
REMARK    2  A    between atoms: N2_4  and  C1_6 
ROOT
HETATM    1  C1  UNL     1      56.731  39.842  45.578  1.00  0.00     0.702 A 
HETATM    2  N3  UNL     1      56.113  38.664  45.459  1.00  0.00    -0.162 N 
ATOM      3  H3  UNL     1      56.198  38.152  44.581  1.00  0.00     0.187 HD
HETATM    4  C2  UNL     1      55.378  38.125  46.459  1.00  0.00     0.210 A 
HETATM    5  N4  UNL     1      54.759  36.867  46.233  1.00  0.00    -0.062 NA
HETATM    6  N5  UNL     1      55.273  38.799  47.601  1.00  0.00    -0.282 N 
ATOM      7  H5  UNL     1      54.724  38.413  48.369  1.00  0.00     0.173 HD
HETATM    8  C3  UNL     1      55.887  39.989  47.747  1.00  0.00     0.341 A 
HETATM    9  O1  UNL     1      55.799  40.639  48.819  1.00  0.00    -0.246 OA
HETATM   10  N6  UNL     1      56.614  40.508  46.740  1.00  0.00    -0.140 N 
ATOM     11  H6  UNL     1      57.077  41.409  46.859  1.00  0.00     0.189 HD
ENDROOT
BRANCH   1  12
HETATM   12  N2  UNL     1      57.436  40.341  44.596  1.00  0.00    -0.138 N 
ATOM     13  H2  UNL     1      57.997  41.178  44.757  1.00  0.00     0.205 HD
BRANCH  12  14
HETATM   14  N1  UNL     1      57.436  39.755  43.340  1.00  0.00    -0.331 N 
ATOM     15  H12 UNL     1      58.334  39.565  42.895  1.00  0.00     0.177 HD
ATOM     16  H11 UNL     1      56.564  39.518  42.867  1.00  0.00     0.177 HD
ENDBRANCH  12  14
ENDBRANCH   1  12
TORSDOF 2
ENDMDL
