MODEL 1
REMARK VINA RESULT: -5.377838924      0.000      0.000
REMARK  2 active torsions:
REMARK  status: ('A' for Active; 'I' for Inactive)
REMARK    1  A    between atoms: N1_1  and  N2_4 
REMARK       I    between atoms: N2_4  and  C1_6 
REMARK    2  A    between atoms: C1_6  and  C2_8 
ROOT
HETATM    1  C2  UNL     1      55.930  38.861  46.468  1.00  0.00     0.195 A 
HETATM    2  N3  UNL     1      56.339  38.951  45.197  1.00  0.00    -0.277 N 
ATOM      3  H3  UNL     1      56.895  39.701  44.789  1.00  0.00     0.189 HD
HETATM    4  N4  UNL     1      55.882  37.881  44.573  1.00  0.00    -0.250 N 
ATOM      5  H4  UNL     1      56.037  37.676  43.585  1.00  0.00     0.192 HD
HETATM    6  C3  UNL     1      55.187  37.100  45.414  1.00  0.00     0.340 A 
HETATM    7  O2  UNL     1      54.603  36.005  45.197  1.00  0.00    -0.245 OA
HETATM    8  N5  UNL     1      55.222  37.726  46.605  1.00  0.00    -0.288 N 
ATOM      9  H5  UNL     1      54.786  37.396  47.466  1.00  0.00     0.172 HD
ENDROOT
BRANCH   1  10
HETATM   10  C1  UNL     1      56.230  39.857  47.488  1.00  0.00     0.305 C 
HETATM   11  N2  UNL     1      55.190  40.448  48.275  1.00  0.00    -0.270 N 
ATOM     12  H2  UNL     1      54.214  40.186  48.141  1.00  0.00     0.189 HD
HETATM   13  O1  UNL     1      57.436  40.162  47.633  1.00  0.00    -0.263 OA
BRANCH  11  14
HETATM   14  N1  UNL     1      55.559  41.395  49.231  1.00  0.00    -0.342 N 
ATOM     15  H12 UNL     1      56.379  41.240  49.819  1.00  0.00     0.176 HD
ATOM     16  H11 UNL     1      54.983  42.233  49.315  1.00  0.00     0.176 HD
ENDBRANCH  11  14
ENDBRANCH   1  10
TORSDOF 2
ENDMDL
MODEL 2
REMARK VINA RESULT: -5.121837363      1.284      1.299
REMARK  2 active torsions:
REMARK  status: ('A' for Active; 'I' for Inactive)
REMARK    1  A    between atoms: N1_1  and  N2_4 
REMARK       I    between atoms: N2_4  and  C1_6 
REMARK    2  A    between atoms: C1_6  and  C2_8 
ROOT
HETATM    1  C2  UNL     1      55.757  39.258  46.862  1.00  0.00     0.195 A 
HETATM    2  N3  UNL     1      56.290  39.603  45.684  1.00  0.00    -0.277 N 
ATOM      3  H3  UNL     1      56.746  40.486  45.457  1.00  0.00     0.189 HD
HETATM    4  N4  UNL     1      56.112  38.578  44.871  1.00  0.00    -0.250 N 
ATOM      5  H4  UNL     1      56.416  38.550  43.898  1.00  0.00     0.192 HD
HETATM    6  C3  UNL     1      55.475  37.577  45.499  1.00  0.00     0.340 A 
HETATM    7  O2  UNL     1      55.129  36.447  45.064  1.00  0.00    -0.245 OA
HETATM    8  N5  UNL     1      55.255  38.016  46.753  1.00  0.00    -0.288 N 
ATOM      9  H5  UNL     1      54.787  37.494  47.493  1.00  0.00     0.172 HD
ENDROOT
BRANCH   1  10
HETATM   10  C1  UNL     1      55.749  40.126  48.032  1.00  0.00     0.305 C 
HETATM   11  N2  UNL     1      56.926  40.834  48.438  1.00  0.00    -0.270 N 
ATOM     12  H2  UNL     1      57.798  40.749  47.917  1.00  0.00     0.189 HD
HETATM   13  O1  UNL     1      54.666  40.214  48.655  1.00  0.00    -0.263 OA
BRANCH  11  14
HETATM   14  N1  UNL     1      56.838  41.645  49.570  1.00  0.00    -0.342 N 
ATOM     15  H12 UNL     1      57.073  41.271  50.489  1.00  0.00     0.176 HD
ATOM     16  H11 UNL     1      56.532  42.610  49.439  1.00  0.00     0.176 HD
ENDBRANCH  11  14
ENDBRANCH   1  10
TORSDOF 2
ENDMDL
MODEL 3
REMARK VINA RESULT: -4.982221716      1.901      4.533
REMARK  2 active torsions:
REMARK  status: ('A' for Active; 'I' for Inactive)
REMARK    1  A    between atoms: N1_1  and  N2_4 
REMARK       I    between atoms: N2_4  and  C1_6 
REMARK    2  A    between atoms: C1_6  and  C2_8 
ROOT
HETATM    1  C2  UNL     1      56.301  40.130  47.599  1.00  0.00     0.195 A 
HETATM    2  N3  UNL     1      57.436  40.504  48.202  1.00  0.00    -0.277 N 
ATOM      3  H3  UNL     1      58.378  40.189  47.972  1.00  0.00     0.189 HD
HETATM    4  N4  UNL     1      57.101  41.358  49.151  1.00  0.00    -0.250 N 
ATOM      5  H4  UNL     1      57.761  41.813  49.781  1.00  0.00     0.192 HD
HETATM    6  C3  UNL     1      55.772  41.545  49.174  1.00  0.00     0.340 A 
HETATM    7  O2  UNL     1      55.077  42.277  49.928  1.00  0.00    -0.245 OA
HETATM    8  N5  UNL     1      55.277  40.767  48.194  1.00  0.00    -0.288 N 
ATOM      9  H5  UNL     1      54.292  40.676  47.945  1.00  0.00     0.172 HD
ENDROOT
BRANCH   1  10
HETATM   10  C1  UNL     1      56.244  39.186  46.490  1.00  0.00     0.305 C 
HETATM   11  N2  UNL     1      55.299  38.112  46.479  1.00  0.00    -0.270 N 
ATOM     12  H2  UNL     1      54.641  37.980  47.247  1.00  0.00     0.189 HD
HETATM   13  O1  UNL     1      57.062  39.369  45.560  1.00  0.00    -0.263 OA
BRANCH  11  14
HETATM   14  N1  UNL     1      55.309  37.250  45.382  1.00  0.00    -0.342 N 
ATOM     15  H12 UNL     1      54.476  36.711  45.145  1.00  0.00     0.176 HD
ATOM     16  H11 UNL     1      56.170  37.184  44.838  1.00  0.00     0.176 HD
ENDBRANCH  11  14
ENDBRANCH   1  10
TORSDOF 2
ENDMDL
MODEL 4
REMARK VINA RESULT: -4.934232327      1.902      4.641
REMARK  2 active torsions:
REMARK  status: ('A' for Active; 'I' for Inactive)
REMARK    1  A    between atoms: N1_1  and  N2_4 
REMARK       I    between atoms: N2_4  and  C1_6 
REMARK    2  A    between atoms: C1_6  and  C2_8 
ROOT
HETATM    1  C2  UNL     1      56.033  39.957  47.742  1.00  0.00     0.195 A 
HETATM    2  N3  UNL     1      57.257  40.339  48.127  1.00  0.00    -0.277 N 
ATOM      3  H3  UNL     1      58.144  39.962  47.795  1.00  0.00     0.189 HD
HETATM    4  N4  UNL     1      57.094  41.298  49.019  1.00  0.00    -0.250 N 
ATOM      5  H4  UNL     1      57.855  41.785  49.492  1.00  0.00     0.192 HD
HETATM    6  C3  UNL     1      55.790  41.545  49.219  1.00  0.00     0.340 A 
HETATM    7  O2  UNL     1      55.239  42.380  49.985  1.00  0.00    -0.245 OA
HETATM    8  N5  UNL     1      55.130  40.695  48.410  1.00  0.00    -0.288 N 
ATOM      9  H5  UNL     1      54.117  40.623  48.321  1.00  0.00     0.172 HD
ENDROOT
BRANCH   1  10
HETATM   10  C1  UNL     1      55.783  38.910  46.760  1.00  0.00     0.305 C 
HETATM   11  N2  UNL     1      56.294  39.007  45.427  1.00  0.00    -0.270 N 
ATOM     12  H2  UNL     1      56.847  39.811  45.131  1.00  0.00     0.189 HD
HETATM   13  O1  UNL     1      55.101  37.933  47.148  1.00  0.00    -0.263 OA
BRANCH  11  14
HETATM   14  N1  UNL     1      56.010  37.963  44.545  1.00  0.00    -0.342 N 
ATOM     15  H12 UNL     1      55.070  37.568  44.504  1.00  0.00     0.176 HD
ATOM     16  H11 UNL     1      56.769  37.620  43.957  1.00  0.00     0.176 HD
ENDBRANCH  11  14
ENDBRANCH   1  10
TORSDOF 2
ENDMDL
MODEL 5
REMARK VINA RESULT: -4.821444415      1.955      4.727
REMARK  2 active torsions:
REMARK  status: ('A' for Active; 'I' for Inactive)
REMARK    1  A    between atoms: N1_1  and  N2_4 
REMARK       I    between atoms: N2_4  and  C1_6 
REMARK    2  A    between atoms: C1_6  and  C2_8 
ROOT
HETATM    1  C2  UNL     1      55.954  40.144  47.928  1.00  0.00     0.195 A 
HETATM    2  N3  UNL     1      54.771  40.045  48.548  1.00  0.00    -0.277 N 
ATOM      3  H3  UNL     1      53.994  39.442  48.282  1.00  0.00     0.189 HD
HETATM    4  N4  UNL     1      54.806  40.881  49.570  1.00  0.00    -0.250 N 
ATOM      5  H4  UNL     1      54.039  41.023  50.228  1.00  0.00     0.192 HD
HETATM    6  C3  UNL     1      55.986  41.517  49.624  1.00  0.00     0.340 A 
HETATM    7  O2  UNL     1      56.396  42.380  50.445  1.00  0.00    -0.245 OA
HETATM    8  N5  UNL     1      56.702  41.047  48.585  1.00  0.00    -0.288 N 
ATOM      9  H5  UNL     1      57.650  41.328  48.339  1.00  0.00     0.172 HD
ENDROOT
BRANCH   1  10
HETATM   10  C1  UNL     1      56.313  39.378  46.742  1.00  0.00     0.305 C 
HETATM   11  N2  UNL     1      55.531  38.255  46.320  1.00  0.00    -0.270 N 
ATOM     12  H2  UNL     1      54.703  37.965  46.839  1.00  0.00     0.189 HD
HETATM   13  O1  UNL     1      57.334  39.755  46.123  1.00  0.00    -0.263 OA
BRANCH  11  14
HETATM   14  N1  UNL     1      55.942  37.573  45.174  1.00  0.00    -0.342 N 
ATOM     15  H12 UNL     1      56.906  37.648  44.850  1.00  0.00     0.176 HD
ATOM     16  H11 UNL     1      55.248  37.007  44.685  1.00  0.00     0.176 HD
ENDBRANCH  11  14
ENDBRANCH   1  10
TORSDOF 2
ENDMDL
