MODEL 1
REMARK VINA RESULT: -5.065697078      0.000      0.000
REMARK  1 active torsions:
REMARK  status: ('A' for Active; 'I' for Inactive)
REMARK    1  A    between atoms: N2_5  and  O2_6 
ROOT
HETATM    1  O1  UNL     1      55.476  22.341  39.749  1.00  0.00    -0.244 OA
HETATM    2  C1  UNL     1      55.071  23.447  40.240  1.00  0.00     0.357 A 
HETATM    3  N1  UNL     1      53.808  23.811  40.512  1.00  0.00    -0.207 N 
ATOM      4  H1  UNL     1      52.991  23.223  40.350  1.00  0.00     0.196 HD
HETATM    5  N2  UNL     1      53.764  25.030  41.015  1.00  0.00    -0.076 N 
HETATM    6  N3  UNL     1      55.018  25.439  41.060  1.00  0.00    -0.196 N 
ATOM      7  H3  UNL     1      55.320  26.351  41.403  1.00  0.00     0.212 HD
HETATM    8  N4  UNL     1      55.828  24.501  40.598  1.00  0.00    -0.232 N 
ATOM      9  H4  UNL     1      56.844  24.565  40.526  1.00  0.00     0.193 HD
ENDROOT
BRANCH   5  10
HETATM   10  O2  UNL     1      52.642  25.728  41.409  1.00  0.00    -0.252 OA
ATOM     11  H2  UNL     1      52.290  25.800  42.288  1.00  0.00     0.248 HD
ENDBRANCH   5  10
TORSDOF 1
ENDMDL
MODEL 2
REMARK VINA RESULT: -4.870705187      6.257      6.737
REMARK  1 active torsions:
REMARK  status: ('A' for Active; 'I' for Inactive)
REMARK    1  A    between atoms: N2_5  and  O2_6 
ROOT
HETATM    1  O1  UNL     1      50.428  19.556  45.156  1.00  0.00    -0.244 OA
HETATM    2  C1  UNL     1      50.011  20.571  44.504  1.00  0.00     0.357 A 
HETATM    3  N1  UNL     1      49.966  20.730  43.173  1.00  0.00    -0.207 N 
ATOM      4  H1  UNL     1      50.273  20.030  42.497  1.00  0.00     0.196 HD
HETATM    5  N2  UNL     1      49.474  21.911  42.852  1.00  0.00    -0.076 N 
HETATM    6  N3  UNL     1      49.205  22.504  44.000  1.00  0.00    -0.196 N 
ATOM      7  H3  UNL     1      48.810  23.440  44.092  1.00  0.00     0.212 HD
HETATM    8  N4  UNL     1      49.521  21.716  45.014  1.00  0.00    -0.232 N 
ATOM      9  H4  UNL     1      49.411  21.936  46.005  1.00  0.00     0.193 HD
ENDROOT
BRANCH   5  10
HETATM   10  O2  UNL     1      49.282  22.418  41.584  1.00  0.00    -0.252 OA
ATOM     11  H2  UNL     1      48.589  22.192  40.975  1.00  0.00     0.248 HD
ENDBRANCH   5  10
TORSDOF 1
ENDMDL
MODEL 3
REMARK VINA RESULT: -4.820265583      9.517      9.890
REMARK  1 active torsions:
REMARK  status: ('A' for Active; 'I' for Inactive)
REMARK    1  A    between atoms: N2_5  and  O2_6 
ROOT
HETATM    1  O1  UNL     1      47.020  26.009  47.972  1.00  0.00    -0.244 OA
HETATM    2  C1  UNL     1      46.916  26.408  46.765  1.00  0.00     0.357 A 
HETATM    3  N1  UNL     1      46.684  27.656  46.330  1.00  0.00    -0.207 N 
ATOM      4  H1  UNL     1      46.559  28.465  46.938  1.00  0.00     0.196 HD
HETATM    5  N2  UNL     1      46.639  27.698  45.012  1.00  0.00    -0.076 N 
HETATM    6  N3  UNL     1      46.845  26.458  44.613  1.00  0.00    -0.196 N 
ATOM      7  H3  UNL     1      46.870  26.158  43.638  1.00  0.00     0.212 HD
HETATM    8  N4  UNL     1      47.016  25.658  45.652  1.00  0.00    -0.232 N 
ATOM      9  H4  UNL     1      47.191  24.653  45.616  1.00  0.00     0.193 HD
ENDROOT
BRANCH   5  10
HETATM   10  O2  UNL     1      46.421  28.806  44.221  1.00  0.00    -0.252 OA
ATOM     11  H2  UNL     1      46.285  29.701  44.511  1.00  0.00     0.248 HD
ENDBRANCH   5  10
TORSDOF 1
ENDMDL
MODEL 4
REMARK VINA RESULT: -4.803094016      9.503      9.722
REMARK  1 active torsions:
REMARK  status: ('A' for Active; 'I' for Inactive)
REMARK    1  A    between atoms: N2_5  and  O2_6 
ROOT
HETATM    1  O1  UNL     1      46.265  28.586  44.205  1.00  0.00    -0.244 OA
HETATM    2  C1  UNL     1      46.727  27.744  45.045  1.00  0.00     0.357 A 
HETATM    3  N1  UNL     1      46.440  26.437  45.140  1.00  0.00    -0.207 N 
ATOM      4  H1  UNL     1      45.792  25.943  44.527  1.00  0.00     0.196 HD
HETATM    5  N2  UNL     1      47.107  25.875  46.129  1.00  0.00    -0.076 N 
HETATM    6  N3  UNL     1      47.824  26.845  46.666  1.00  0.00    -0.196 N 
ATOM      7  H3  UNL     1      48.453  26.730  47.462  1.00  0.00     0.212 HD
HETATM    8  N4  UNL     1      47.613  27.984  46.029  1.00  0.00    -0.232 N 
ATOM      9  H4  UNL     1      48.045  28.883  46.245  1.00  0.00     0.193 HD
ENDROOT
BRANCH   5  10
HETATM   10  O2  UNL     1      47.061  24.554  46.521  1.00  0.00    -0.252 OA
ATOM     11  H2  UNL     1      47.796  24.001  46.762  1.00  0.00     0.248 HD
ENDBRANCH   5  10
TORSDOF 1
ENDMDL
MODEL 5
REMARK VINA RESULT: -4.742852825      9.349      9.766
REMARK  1 active torsions:
REMARK  status: ('A' for Active; 'I' for Inactive)
REMARK    1  A    between atoms: N2_5  and  O2_6 
ROOT
HETATM    1  O1  UNL     1      47.076  26.025  47.972  1.00  0.00    -0.244 OA
HETATM    2  C1  UNL     1      47.035  26.604  46.835  1.00  0.00     0.357 A 
HETATM    3  N1  UNL     1      46.633  26.086  45.664  1.00  0.00    -0.207 N 
ATOM      4  H1  UNL     1      46.298  25.130  45.541  1.00  0.00     0.196 HD
HETATM    5  N2  UNL     1      46.726  26.976  44.695  1.00  0.00    -0.076 N 
HETATM    6  N3  UNL     1      47.196  28.070  45.265  1.00  0.00    -0.196 N 
ATOM      7  H3  UNL     1      47.382  28.946  44.776  1.00  0.00     0.212 HD
HETATM    8  N4  UNL     1      47.391  27.872  46.558  1.00  0.00    -0.232 N 
ATOM      9  H4  UNL     1      47.746  28.557  47.225  1.00  0.00     0.193 HD
ENDROOT
BRANCH   5  10
HETATM   10  O2  UNL     1      46.403  26.798  43.367  1.00  0.00    -0.252 OA
ATOM     11  H2  UNL     1      46.943  27.003  42.612  1.00  0.00     0.248 HD
ENDBRANCH   5  10
TORSDOF 1
ENDMDL
