MODEL 1
REMARK VINA RESULT: -4.942291919      0.000      0.000
REMARK  2 active torsions:
REMARK  status: ('A' for Active; 'I' for Inactive)
REMARK    1  A    between atoms: O1_1  and  N1_3 
REMARK    2  A    between atoms: N4_8  and  O2_9 
ROOT
HETATM    1  N1  UNL     1      55.094  23.439  40.204  1.00  0.00    -0.059 N 
HETATM    2  N2  UNL     1      55.778  24.479  40.583  1.00  0.00    -0.185 N 
ATOM      3  H2  UNL     1      56.793  24.558  40.526  1.00  0.00     0.214 HD
HETATM    4  N3  UNL     1      54.986  25.405  41.046  1.00  0.00    -0.185 N 
ATOM      5  H3  UNL     1      55.269  26.316  41.406  1.00  0.00     0.214 HD
HETATM    6  N4  UNL     1      53.756  24.950  40.963  1.00  0.00    -0.059 N 
HETATM    7  N5  UNL     1      53.820  23.735  40.442  1.00  0.00     0.072 NA
ENDROOT
BRANCH   1   8
HETATM    8  O1  UNL     1      55.521  22.234  39.655  1.00  0.00    -0.254 OA
ATOM      9  H1  UNL     1      55.295  21.341  39.885  1.00  0.00     0.248 HD
ENDBRANCH   1   8
BRANCH   6  10
HETATM   10  O2  UNL     1      52.664  25.666  41.365  1.00  0.00    -0.254 OA
ATOM     11  H2  UNL     1      52.076  26.101  40.759  1.00  0.00     0.248 HD
ENDBRANCH   6  10
TORSDOF 2
ENDMDL
MODEL 2
REMARK VINA RESULT: -4.886968324      0.058      2.889
REMARK  2 active torsions:
REMARK  status: ('A' for Active; 'I' for Inactive)
REMARK    1  A    between atoms: O1_1  and  N1_3 
REMARK    2  A    between atoms: N4_8  and  O2_9 
ROOT
HETATM    1  N1  UNL     1      53.799  24.984  40.972  1.00  0.00    -0.059 N 
HETATM    2  N2  UNL     1      55.046  25.350  41.013  1.00  0.00    -0.185 N 
ATOM      3  H2  UNL     1      55.376  26.249  41.365  1.00  0.00     0.214 HD
HETATM    4  N3  UNL     1      55.817  24.410  40.545  1.00  0.00    -0.185 N 
ATOM      5  H3  UNL     1      56.834  24.444  40.467  1.00  0.00     0.214 HD
HETATM    6  N4  UNL     1      55.045  23.407  40.190  1.00  0.00    -0.059 N 
HETATM    7  N5  UNL     1      53.797  23.760  40.454  1.00  0.00     0.072 NA
ENDROOT
BRANCH   1   8
HETATM    8  O1  UNL     1      52.650  25.662  41.365  1.00  0.00    -0.254 OA
ATOM      9  H1  UNL     1      52.170  25.633  42.184  1.00  0.00     0.248 HD
ENDBRANCH   1   8
BRANCH   6  10
HETATM   10  O2  UNL     1      55.524  22.246  39.653  1.00  0.00    -0.254 OA
ATOM     11  H2  UNL     1      55.036  21.720  39.030  1.00  0.00     0.248 HD
ENDBRANCH   6  10
TORSDOF 2
ENDMDL
MODEL 3
REMARK VINA RESULT: -4.574481073      1.029      3.143
REMARK  2 active torsions:
REMARK  status: ('A' for Active; 'I' for Inactive)
REMARK    1  A    between atoms: O1_1  and  N1_3 
REMARK    2  A    between atoms: N4_8  and  O2_9 
ROOT
HETATM    1  N1  UNL     1      53.589  24.961  41.006  1.00  0.00    -0.059 N 
HETATM    2  N2  UNL     1      53.593  23.704  40.671  1.00  0.00    -0.185 N 
ATOM      3  H2  UNL     1      52.758  23.130  40.561  1.00  0.00     0.214 HD
HETATM    4  N3  UNL     1      54.813  23.279  40.495  1.00  0.00    -0.185 N 
ATOM      5  H3  UNL     1      55.091  22.334  40.229  1.00  0.00     0.214 HD
HETATM    6  N4  UNL     1      55.620  24.291  40.724  1.00  0.00    -0.059 N 
HETATM    7  N5  UNL     1      54.865  25.332  41.039  1.00  0.00     0.072 NA
ENDROOT
BRANCH   1   8
HETATM    8  O1  UNL     1      52.526  25.812  41.287  1.00  0.00    -0.254 OA
ATOM      9  H1  UNL     1      52.419  26.451  41.982  1.00  0.00     0.248 HD
ENDBRANCH   1   8
BRANCH   6  10
HETATM   10  O2  UNL     1      56.980  24.201  40.630  1.00  0.00    -0.254 OA
ATOM     11  H2  UNL     1      57.423  23.737  39.930  1.00  0.00     0.248 HD
ENDBRANCH   6  10
TORSDOF 2
ENDMDL
MODEL 4
REMARK VINA RESULT: -4.566946650      9.503      9.874
REMARK  2 active torsions:
REMARK  status: ('A' for Active; 'I' for Inactive)
REMARK    1  A    between atoms: O1_1  and  N1_3 
REMARK    2  A    between atoms: N4_8  and  O2_9 
ROOT
HETATM    1  N1  UNL     1      47.095  26.408  46.677  1.00  0.00    -0.059 N 
HETATM    2  N2  UNL     1      46.975  25.856  45.506  1.00  0.00    -0.185 N 
ATOM      3  H2  UNL     1      47.028  24.853  45.329  1.00  0.00     0.214 HD
HETATM    4  N3  UNL     1      46.776  26.761  44.589  1.00  0.00    -0.185 N 
ATOM      5  H3  UNL     1      46.650  26.592  43.591  1.00  0.00     0.214 HD
HETATM    6  N4  UNL     1      46.769  27.932  45.187  1.00  0.00    -0.059 N 
HETATM    7  N5  UNL     1      46.965  27.716  46.477  1.00  0.00     0.072 NA
ENDROOT
BRANCH   1   8
HETATM    8  O1  UNL     1      47.313  25.832  47.924  1.00  0.00    -0.254 OA
ATOM      9  H1  UNL     1      46.694  25.550  48.587  1.00  0.00     0.248 HD
ENDBRANCH   1   8
BRANCH   6  10
HETATM   10  O2  UNL     1      46.586  29.110  44.521  1.00  0.00    -0.254 OA
ATOM     11  H2  UNL     1      47.135  29.874  44.654  1.00  0.00     0.248 HD
ENDBRANCH   6  10
TORSDOF 2
ENDMDL
MODEL 5
REMARK VINA RESULT: -4.417975654      9.360      9.577
REMARK  2 active torsions:
REMARK  status: ('A' for Active; 'I' for Inactive)
REMARK    1  A    between atoms: O1_1  and  N1_3 
REMARK    2  A    between atoms: N4_8  and  O2_9 
ROOT
HETATM    1  N1  UNL     1      47.144  26.147  45.979  1.00  0.00    -0.059 N 
HETATM    2  N2  UNL     1      47.978  26.982  46.526  1.00  0.00    -0.185 N 
ATOM      3  H2  UNL     1      48.700  26.724  47.198  1.00  0.00     0.214 HD
HETATM    4  N3  UNL     1      47.762  28.194  46.097  1.00  0.00    -0.185 N 
ATOM      5  H3  UNL     1      48.277  29.031  46.369  1.00  0.00     0.214 HD
HETATM    6  N4  UNL     1      46.760  28.139  45.248  1.00  0.00    -0.059 N 
HETATM    7  N5  UNL     1      46.377  26.875  45.173  1.00  0.00     0.072 NA
ENDROOT
BRANCH   1   8
HETATM    8  O1  UNL     1      47.012  24.772  46.142  1.00  0.00    -0.254 OA
ATOM      9  H1  UNL     1      47.516  24.059  45.769  1.00  0.00     0.248 HD
ENDBRANCH   1   8
BRANCH   6  10
HETATM   10  O2  UNL     1      46.265  29.237  44.603  1.00  0.00    -0.254 OA
ATOM     11  H2  UNL     1      46.241  30.102  44.993  1.00  0.00     0.248 HD
ENDBRANCH   6  10
TORSDOF 2
ENDMDL
