MODEL 1
REMARK VINA RESULT: -4.627702820      0.000      0.000
REMARK  2 active torsions:
REMARK  status: ('A' for Active; 'I' for Inactive)
REMARK    1  A    between atoms: N2_3  and  O1_4 
REMARK    2  A    between atoms: N5_10  and  O2_11 
ROOT
HETATM    1  C1  UNL     1      53.392  22.677  41.439  1.00  0.00     0.209 C 
HETATM    2  N1  UNL     1      54.319  23.800  41.325  1.00  0.00    -0.152 N 
HETATM    3  N2  UNL     1      55.625  23.702  41.255  1.00  0.00    -0.059 N 
HETATM    4  N3  UNL     1      56.123  24.910  41.162  1.00  0.00    -0.181 N 
ATOM      5  H3  UNL     1      57.112  25.148  41.092  1.00  0.00     0.214 HD
HETATM    6  N4  UNL     1      55.125  25.758  41.173  1.00  0.00    -0.181 N 
ATOM      7  H4  UNL     1      55.206  26.773  41.113  1.00  0.00     0.214 HD
HETATM    8  N5  UNL     1      54.004  25.082  41.274  1.00  0.00    -0.059 N 
ENDROOT
BRANCH   3   9
HETATM    9  O1  UNL     1      56.333  22.512  41.278  1.00  0.00    -0.251 OA
ATOM     10  H1  UNL     1      56.738  22.134  42.050  1.00  0.00     0.248 HD
ENDBRANCH   3   9
BRANCH   8  11
HETATM   11  O2  UNL     1      52.707  25.589  41.321  1.00  0.00    -0.251 OA
ATOM     12  H2  UNL     1      52.444  26.445  41.004  1.00  0.00     0.248 HD
ENDBRANCH   8  11
TORSDOF 2
ENDMDL
MODEL 2
REMARK VINA RESULT: -4.596939959      0.081      2.687
REMARK  2 active torsions:
REMARK  status: ('A' for Active; 'I' for Inactive)
REMARK    1  A    between atoms: N2_3  and  O1_4 
REMARK    2  A    between atoms: N5_10  and  O2_11 
ROOT
HETATM    1  C1  UNL     1      53.361  22.708  41.322  1.00  0.00     0.209 C 
HETATM    2  N1  UNL     1      54.319  23.809  41.252  1.00  0.00    -0.152 N 
HETATM    3  N2  UNL     1      54.012  25.083  41.262  1.00  0.00    -0.059 N 
HETATM    4  N3  UNL     1      55.122  25.774  41.185  1.00  0.00    -0.181 N 
ATOM      5  H3  UNL     1      55.197  26.791  41.171  1.00  0.00     0.214 HD
HETATM    6  N4  UNL     1      56.120  24.927  41.128  1.00  0.00    -0.181 N 
ATOM      7  H4  UNL     1      57.107  25.173  41.064  1.00  0.00     0.214 HD
HETATM    8  N5  UNL     1      55.633  23.707  41.169  1.00  0.00    -0.059 N 
ENDROOT
BRANCH   3   9
HETATM    9  O1  UNL     1      52.724  25.588  41.340  1.00  0.00    -0.251 OA
ATOM     10  H1  UNL     1      52.418  26.199  42.000  1.00  0.00     0.248 HD
ENDBRANCH   3   9
BRANCH   8  11
HETATM   11  O2  UNL     1      56.343  22.509  41.133  1.00  0.00    -0.251 OA
ATOM     12  H2  UNL     1      56.371  21.912  40.394  1.00  0.00     0.248 HD
ENDBRANCH   8  11
TORSDOF 2
ENDMDL
MODEL 3
REMARK VINA RESULT: -4.558346325      6.850      7.442
REMARK  2 active torsions:
REMARK  status: ('A' for Active; 'I' for Inactive)
REMARK    1  A    between atoms: N2_3  and  O1_4 
REMARK    2  A    between atoms: N5_10  and  O2_11 
ROOT
HETATM    1  C1  UNL     1      48.477  19.484  45.435  1.00  0.00     0.209 C 
HETATM    2  N1  UNL     1      48.724  20.803  44.857  1.00  0.00    -0.152 N 
HETATM    3  N2  UNL     1      49.531  21.052  43.853  1.00  0.00    -0.059 N 
HETATM    4  N3  UNL     1      49.499  22.339  43.611  1.00  0.00    -0.181 N 
ATOM      5  H3  UNL     1      50.025  22.827  42.886  1.00  0.00     0.214 HD
HETATM    6  N4  UNL     1      48.672  22.889  44.464  1.00  0.00    -0.181 N 
ATOM      7  H4  UNL     1      48.442  23.881  44.517  1.00  0.00     0.214 HD
HETATM    8  N5  UNL     1      48.187  21.946  45.241  1.00  0.00    -0.059 N 
ENDROOT
BRANCH   3   9
HETATM    9  O1  UNL     1      50.278  20.099  43.181  1.00  0.00    -0.251 OA
ATOM     10  H1  UNL     1      51.086  20.273  42.712  1.00  0.00     0.248 HD
ENDBRANCH   3   9
BRANCH   8  11
HETATM   11  O2  UNL     1      47.274  22.091  46.283  1.00  0.00    -0.251 OA
ATOM     12  H2  UNL     1      47.501  22.287  47.185  1.00  0.00     0.248 HD
ENDBRANCH   8  11
TORSDOF 2
ENDMDL
MODEL 4
REMARK VINA RESULT: -4.543252827      5.857      6.222
REMARK  2 active torsions:
REMARK  status: ('A' for Active; 'I' for Inactive)
REMARK    1  A    between atoms: N2_3  and  O1_4 
REMARK    2  A    between atoms: N5_10  and  O2_11 
ROOT
HETATM    1  C1  UNL     1      51.345  20.293  42.279  1.00  0.00     0.209 C 
HETATM    2  N1  UNL     1      50.500  20.994  43.243  1.00  0.00    -0.152 N 
HETATM    3  N2  UNL     1      50.470  20.766  44.534  1.00  0.00    -0.059 N 
HETATM    4  N3  UNL     1      49.598  21.579  45.075  1.00  0.00    -0.181 N 
ATOM      5  H3  UNL     1      49.360  21.632  46.065  1.00  0.00     0.214 HD
HETATM    6  N4  UNL     1      49.086  22.314  44.120  1.00  0.00    -0.181 N 
ATOM      7  H4  UNL     1      48.379  23.039  44.239  1.00  0.00     0.214 HD
HETATM    8  N5  UNL     1      49.637  21.959  42.980  1.00  0.00    -0.059 N 
ENDROOT
BRANCH   3   9
HETATM    9  O1  UNL     1      51.241  19.819  45.189  1.00  0.00    -0.251 OA
ATOM     10  H1  UNL     1      51.002  18.907  45.302  1.00  0.00     0.248 HD
ENDBRANCH   3   9
BRANCH   8  11
HETATM   11  O2  UNL     1      49.382  22.483  41.715  1.00  0.00    -0.251 OA
ATOM     12  H2  UNL     1      48.925  22.027  41.017  1.00  0.00     0.248 HD
ENDBRANCH   8  11
TORSDOF 2
ENDMDL
MODEL 5
REMARK VINA RESULT: -4.520959213      5.846      6.590
REMARK  2 active torsions:
REMARK  status: ('A' for Active; 'I' for Inactive)
REMARK    1  A    between atoms: N2_3  and  O1_4 
REMARK    2  A    between atoms: N5_10  and  O2_11 
ROOT
HETATM    1  C1  UNL     1      51.358  20.321  42.276  1.00  0.00     0.209 C 
HETATM    2  N1  UNL     1      50.515  20.995  43.262  1.00  0.00    -0.152 N 
HETATM    3  N2  UNL     1      49.656  21.950  42.999  1.00  0.00    -0.059 N 
HETATM    4  N3  UNL     1      49.087  22.310  44.122  1.00  0.00    -0.181 N 
ATOM      5  H3  UNL     1      48.375  23.032  44.230  1.00  0.00     0.214 HD
HETATM    6  N4  UNL     1      49.592  21.577  45.083  1.00  0.00    -0.181 N 
ATOM      7  H4  UNL     1      49.340  21.632  46.070  1.00  0.00     0.214 HD
HETATM    8  N5  UNL     1      50.479  20.760  44.561  1.00  0.00    -0.059 N 
ENDROOT
BRANCH   3   9
HETATM    9  O1  UNL     1      49.411  22.472  41.740  1.00  0.00    -0.251 OA
ATOM     10  H1  UNL     1      48.915  22.036  41.057  1.00  0.00     0.248 HD
ENDBRANCH   3   9
BRANCH   8  11
HETATM   11  O2  UNL     1      51.252  19.810  45.225  1.00  0.00    -0.251 OA
ATOM     12  H2  UNL     1      50.933  19.219  45.897  1.00  0.00     0.248 HD
ENDBRANCH   8  11
TORSDOF 2
ENDMDL
