MODEL 1
REMARK VINA RESULT: -5.381635200      0.000      0.000
REMARK  2 active torsions:
REMARK  status: ('A' for Active; 'I' for Inactive)
REMARK    1  A    between atoms: O1_1  and  C1_3 
REMARK    2  A    between atoms: N4_8  and  O2_9 
ROOT
HETATM    1  C1  UNL     1      53.636  23.755  40.580  1.00  0.00     0.275 A 
HETATM    2  N1  UNL     1      54.888  23.570  40.112  1.00  0.00    -0.248 N 
ATOM      3  H1  UNL     1      55.240  22.690  39.736  1.00  0.00     0.187 HD
HETATM    4  N2  UNL     1      55.598  24.683  40.204  1.00  0.00    -0.003 NA
HETATM    5  N3  UNL     1      54.785  25.581  40.736  1.00  0.00     0.024 NA
HETATM    6  N4  UNL     1      53.601  25.040  40.968  1.00  0.00    -0.106 N 
ENDROOT
BRANCH   1   7
HETATM    7  O1  UNL     1      52.607  22.822  40.647  1.00  0.00    -0.329 OA
ATOM      8  H1  UNL     1      51.719  22.913  40.323  1.00  0.00     0.221 HD
ENDBRANCH   1   7
BRANCH   6   9
HETATM    9  O2  UNL     1      52.528  25.685  41.512  1.00  0.00    -0.266 OA
ATOM     10  H2  UNL     1      51.836  25.285  42.025  1.00  0.00     0.246 HD
ENDBRANCH   6   9
TORSDOF 2
ENDMDL
MODEL 2
REMARK VINA RESULT: -5.122643155      1.554      2.238
REMARK  2 active torsions:
REMARK  status: ('A' for Active; 'I' for Inactive)
REMARK    1  A    between atoms: O1_1  and  C1_3 
REMARK    2  A    between atoms: N4_8  and  O2_9 
ROOT
HETATM    1  C1  UNL     1      54.733  24.697  40.843  1.00  0.00     0.275 A 
HETATM    2  N1  UNL     1      55.143  23.444  40.561  1.00  0.00    -0.248 N 
ATOM      3  H1  UNL     1      56.112  23.178  40.389  1.00  0.00     0.187 HD
HETATM    4  N2  UNL     1      54.121  22.604  40.536  1.00  0.00    -0.003 NA
HETATM    5  N3  UNL     1      53.052  23.336  40.808  1.00  0.00     0.024 NA
HETATM    6  N4  UNL     1      53.403  24.597  40.995  1.00  0.00    -0.106 N 
ENDROOT
BRANCH   1   7
HETATM    7  O1  UNL     1      55.514  25.843  40.954  1.00  0.00    -0.329 OA
ATOM      8  H1  UNL     1      55.395  26.672  40.507  1.00  0.00     0.221 HD
ENDBRANCH   1   7
BRANCH   6   9
HETATM    9  O2  UNL     1      52.549  25.621  41.293  1.00  0.00    -0.266 OA
ATOM     10  H2  UNL     1      52.192  26.248  40.676  1.00  0.00     0.246 HD
ENDBRANCH   6   9
TORSDOF 2
ENDMDL
MODEL 3
REMARK VINA RESULT: -5.020863154      0.738      2.081
REMARK  2 active torsions:
REMARK  status: ('A' for Active; 'I' for Inactive)
REMARK    1  A    between atoms: O1_1  and  C1_3 
REMARK    2  A    between atoms: N4_8  and  O2_9 
ROOT
HETATM    1  C1  UNL     1      53.644  25.019  40.998  1.00  0.00     0.275 A 
HETATM    2  N1  UNL     1      54.916  25.440  40.838  1.00  0.00    -0.248 N 
ATOM      3  H1  UNL     1      55.269  26.342  41.155  1.00  0.00     0.187 HD
HETATM    4  N2  UNL     1      55.643  24.528  40.214  1.00  0.00    -0.003 NA
HETATM    5  N3  UNL     1      54.821  23.518  39.978  1.00  0.00     0.024 NA
HETATM    6  N4  UNL     1      53.615  23.796  40.443  1.00  0.00    -0.106 N 
ENDROOT
BRANCH   1   7
HETATM    7  O1  UNL     1      52.593  25.698  41.604  1.00  0.00    -0.329 OA
ATOM      8  H1  UNL     1      51.997  25.373  42.268  1.00  0.00     0.221 HD
ENDBRANCH   1   7
BRANCH   6   9
HETATM    9  O2  UNL     1      52.528  22.974  40.368  1.00  0.00    -0.266 OA
ATOM     10  H2  UNL     1      52.435  22.221  39.796  1.00  0.00     0.246 HD
ENDBRANCH   6   9
TORSDOF 2
ENDMDL
MODEL 4
REMARK VINA RESULT: -4.785046273      9.100      9.675
REMARK  2 active torsions:
REMARK  status: ('A' for Active; 'I' for Inactive)
REMARK    1  A    between atoms: O1_1  and  C1_3 
REMARK    2  A    between atoms: N4_8  and  O2_9 
ROOT
HETATM    1  C1  UNL     1      46.917  26.468  45.862  1.00  0.00     0.275 A 
HETATM    2  N1  UNL     1      46.748  27.572  46.619  1.00  0.00    -0.248 N 
ATOM      3  H1  UNL     1      46.641  28.515  46.248  1.00  0.00     0.187 HD
HETATM    4  N2  UNL     1      46.740  27.268  47.907  1.00  0.00    -0.003 NA
HETATM    5  N3  UNL     1      46.903  25.956  47.964  1.00  0.00     0.024 NA
HETATM    6  N4  UNL     1      47.011  25.459  46.744  1.00  0.00    -0.106 N 
ENDROOT
BRANCH   1   7
HETATM    7  O1  UNL     1      46.978  26.389  44.475  1.00  0.00    -0.329 OA
ATOM      8  H1  UNL     1      47.250  25.647  43.947  1.00  0.00     0.221 HD
ENDBRANCH   1   7
BRANCH   6   9
HETATM    9  O2  UNL     1      47.190  24.140  46.438  1.00  0.00    -0.266 OA
ATOM     10  H2  UNL     1      47.752  23.796  45.755  1.00  0.00     0.246 HD
ENDBRANCH   6   9
TORSDOF 2
ENDMDL
MODEL 5
REMARK VINA RESULT: -4.781622259      1.123      2.234
REMARK  2 active torsions:
REMARK  status: ('A' for Active; 'I' for Inactive)
REMARK    1  A    between atoms: O1_1  and  C1_3 
REMARK    2  A    between atoms: N4_8  and  O2_9 
ROOT
HETATM    1  C1  UNL     1      53.650  23.771  40.639  1.00  0.00     0.275 A 
HETATM    2  N1  UNL     1      53.647  25.053  41.058  1.00  0.00    -0.248 N 
ATOM      3  H1  UNL     1      52.861  25.508  41.521  1.00  0.00     0.187 HD
HETATM    4  N2  UNL     1      54.800  25.643  40.787  1.00  0.00    -0.003 NA
HETATM    5  N3  UNL     1      55.540  24.722  40.191  1.00  0.00     0.024 NA
HETATM    6  N4  UNL     1      54.863  23.590  40.094  1.00  0.00    -0.106 N 
ENDROOT
BRANCH   1   7
HETATM    7  O1  UNL     1      52.623  22.839  40.747  1.00  0.00    -0.329 OA
ATOM      8  H1  UNL     1      52.556  22.118  41.362  1.00  0.00     0.221 HD
ENDBRANCH   1   7
BRANCH   6   9
HETATM    9  O2  UNL     1      55.327  22.436  39.533  1.00  0.00    -0.266 OA
ATOM     10  H2  UNL     1      55.377  21.588  39.958  1.00  0.00     0.246 HD
ENDBRANCH   6   9
TORSDOF 2
ENDMDL
