MODEL 1
REMARK VINA RESULT: -5.017795180      0.000      0.000
REMARK  1 active torsions:
REMARK  status: ('A' for Active; 'I' for Inactive)
REMARK    1  A    between atoms: O1_1  and  N1_3 
ROOT
HETATM    1  N1  UNL     1      53.662  25.078  41.018  1.00  0.00     0.006 N 
HETATM    2  O2  UNL     1      54.839  25.465  40.658  1.00  0.00    -0.087 OA
HETATM    3  N2  UNL     1      55.243  24.247  40.457  1.00  0.00    -0.116 N 
HETATM    4  N3  UNL     1      54.060  23.829  40.817  1.00  0.00    -0.059 N 
HETATM    5  N4  UNL     1      54.351  22.495  40.645  1.00  0.00    -0.071 NA
HETATM    6  C1  UNL     1      55.661  22.877  40.242  1.00  0.00     0.321 A 
ENDROOT
BRANCH   1   7
HETATM    7  O1  UNL     1      52.498  25.720  41.433  1.00  0.00    -0.244 OA
ATOM      8  H1  UNL     1      51.875  25.591  42.139  1.00  0.00     0.249 HD
ENDBRANCH   1   7
TORSDOF 1
ENDMDL
MODEL 2
REMARK VINA RESULT: -4.518839238      1.050      1.503
REMARK  1 active torsions:
REMARK  status: ('A' for Active; 'I' for Inactive)
REMARK    1  A    between atoms: O1_1  and  N1_3 
ROOT
HETATM    1  N1  UNL     1      53.369  24.728  41.115  1.00  0.00     0.006 N 
HETATM    2  O2  UNL     1      53.291  23.465  41.366  1.00  0.00    -0.087 OA
HETATM    3  N2  UNL     1      54.426  23.219  40.783  1.00  0.00    -0.116 N 
HETATM    4  N3  UNL     1      54.528  24.492  40.516  1.00  0.00    -0.059 N 
HETATM    5  N4  UNL     1      55.738  24.378  39.870  1.00  0.00    -0.071 NA
HETATM    6  C1  UNL     1      55.693  22.980  40.126  1.00  0.00     0.321 A 
ENDROOT
BRANCH   1   7
HETATM    7  O1  UNL     1      52.564  25.836  41.374  1.00  0.00    -0.244 OA
ATOM      8  H1  UNL     1      52.214  26.243  42.157  1.00  0.00     0.249 HD
ENDBRANCH   1   7
TORSDOF 1
ENDMDL
MODEL 3
REMARK VINA RESULT: -4.415300905      9.603      9.735
REMARK  1 active torsions:
REMARK  status: ('A' for Active; 'I' for Inactive)
REMARK    1  A    between atoms: O1_1  and  N1_3 
ROOT
HETATM    1  N1  UNL     1      47.007  26.392  46.126  1.00  0.00     0.006 N 
HETATM    2  O2  UNL     1      47.349  27.473  46.743  1.00  0.00    -0.087 OA
HETATM    3  N2  UNL     1      47.013  28.223  45.737  1.00  0.00    -0.116 N 
HETATM    4  N3  UNL     1      46.660  27.145  45.092  1.00  0.00    -0.059 N 
HETATM    5  N4  UNL     1      46.265  27.814  43.956  1.00  0.00    -0.071 NA
HETATM    6  C1  UNL     1      46.629  29.030  44.598  1.00  0.00     0.321 A 
ENDROOT
BRANCH   1   7
HETATM    7  O1  UNL     1      47.014  25.034  46.440  1.00  0.00    -0.244 OA
ATOM      8  H1  UNL     1      46.728  24.242  46.000  1.00  0.00     0.249 HD
ENDBRANCH   1   7
TORSDOF 1
ENDMDL
MODEL 4
REMARK VINA RESULT: -4.277457233      9.464      9.817
REMARK  1 active torsions:
REMARK  status: ('A' for Active; 'I' for Inactive)
REMARK    1  A    between atoms: O1_1  and  N1_3 
ROOT
HETATM    1  N1  UNL     1      46.595  27.046  44.949  1.00  0.00     0.006 N 
HETATM    2  O2  UNL     1      46.600  28.119  45.666  1.00  0.00    -0.087 OA
HETATM    3  N2  UNL     1      46.792  27.455  46.766  1.00  0.00    -0.116 N 
HETATM    4  N3  UNL     1      46.791  26.355  46.064  1.00  0.00    -0.059 N 
HETATM    5  N4  UNL     1      46.995  25.528  47.145  1.00  0.00    -0.071 NA
HETATM    6  C1  UNL     1      47.007  26.684  47.972  1.00  0.00     0.321 A 
ENDROOT
BRANCH   1   7
HETATM    7  O1  UNL     1      46.444  26.768  43.593  1.00  0.00    -0.244 OA
ATOM      8  H1  UNL     1      46.959  26.309  42.940  1.00  0.00     0.249 HD
ENDBRANCH   1   7
TORSDOF 1
ENDMDL
MODEL 5
REMARK VINA RESULT: -4.248641095      1.909      2.260
REMARK  1 active torsions:
REMARK  status: ('A' for Active; 'I' for Inactive)
REMARK    1  A    between atoms: O1_1  and  N1_3 
ROOT
HETATM    1  N1  UNL     1      53.249  23.281  40.439  1.00  0.00     0.006 N 
HETATM    2  O2  UNL     1      54.264  22.505  40.622  1.00  0.00    -0.087 OA
HETATM    3  N2  UNL     1      55.061  23.503  40.855  1.00  0.00    -0.116 N 
HETATM    4  N3  UNL     1      54.051  24.310  40.676  1.00  0.00    -0.059 N 
HETATM    5  N4  UNL     1      54.777  25.457  40.903  1.00  0.00    -0.071 NA
HETATM    6  C1  UNL     1      55.922  24.639  41.111  1.00  0.00     0.321 A 
ENDROOT
BRANCH   1   7
HETATM    7  O1  UNL     1      51.905  23.089  40.128  1.00  0.00    -0.244 OA
ATOM      8  H1  UNL     1      51.201  23.646  39.816  1.00  0.00     0.249 HD
ENDBRANCH   1   7
TORSDOF 1
ENDMDL
