MODEL 1
REMARK VINA RESULT: -4.830636920      0.000      0.000
REMARK  4 active torsions:
REMARK  status: ('A' for Active; 'I' for Inactive)
REMARK    1  A    between atoms: N1_2  and  C2_5 
REMARK    2  A    between atoms: C2_5  and  C3_6 
REMARK    3  A    between atoms: C3_6  and  N2_7 
REMARK    4  A    between atoms: N2_7  and  C4_9 
ROOT
HETATM    1  C4  UNL     1       8.285  33.396  10.909  1.00  0.00     0.706 A 
HETATM    2  N3  UNL     1       7.382  32.411  11.047  1.00  0.00    -0.114 N 
ATOM      3  H3  UNL     1       6.713  32.332  11.813  1.00  0.00     0.203 HD
HETATM    4  N4  UNL     1       7.489  31.552  10.035  1.00  0.00     0.009 NA
HETATM    5  N5  UNL     1       8.472  32.002   9.251  1.00  0.00    -0.212 N 
ATOM      6  H5  UNL     1       8.797  31.562   8.390  1.00  0.00     0.206 HD
HETATM    7  N6  UNL     1       8.946  33.100   9.770  1.00  0.00    -0.118 N 
ATOM      8  H6  UNL     1       9.705  33.654   9.374  1.00  0.00     0.207 HD
ENDROOT
BRANCH   1   9
HETATM    9  N2  UNL     1       8.458  34.401  11.719  1.00  0.00    -0.222 N 
ATOM     10  H2  UNL     1       8.348  34.306  12.729  1.00  0.00     0.177 HD
BRANCH   9  11
HETATM   11  C3  UNL     1       8.816  35.654  11.105  1.00  0.00     0.165 C 
BRANCH  11  12
HETATM   12  C2  UNL     1       7.735  36.298  10.309  1.00  0.00     0.252 C 
BRANCH  12  13
HETATM   13  N1  UNL     1       6.672  36.872  11.064  1.00  0.00    -0.077 N 
HETATM   14  C1  UNL     1       5.852  37.710  10.242  1.00  0.00     0.267 C 
ATOM     15  H12 UNL     1       7.020  37.373  11.881  1.00  0.00     0.276 HD
ATOM     16  H11 UNL     1       6.122  36.158  11.541  1.00  0.00     0.276 HD
ENDBRANCH  12  13
ENDBRANCH  11  12
ENDBRANCH   9  11
ENDBRANCH   1   9
TORSDOF 4
ENDMDL
MODEL 2
REMARK VINA RESULT: -4.727302166      1.025      1.186
REMARK  4 active torsions:
REMARK  status: ('A' for Active; 'I' for Inactive)
REMARK    1  A    between atoms: N1_2  and  C2_5 
REMARK    2  A    between atoms: C2_5  and  C3_6 
REMARK    3  A    between atoms: C3_6  and  N2_7 
REMARK    4  A    between atoms: N2_7  and  C4_9 
ROOT
HETATM    1  C4  UNL     1       8.483  34.341  10.776  1.00  0.00     0.706 A 
HETATM    2  N3  UNL     1       7.765  33.302  11.234  1.00  0.00    -0.114 N 
ATOM      3  H3  UNL     1       7.132  33.335  12.033  1.00  0.00     0.203 HD
HETATM    4  N4  UNL     1       8.002  32.223  10.491  1.00  0.00     0.009 NA
HETATM    5  N5  UNL     1       8.880  32.587   9.552  1.00  0.00    -0.212 N 
ATOM      6  H5  UNL     1       9.262  31.982   8.826  1.00  0.00     0.206 HD
HETATM    7  N6  UNL     1       9.167  33.848   9.721  1.00  0.00    -0.118 N 
ATOM      8  H6  UNL     1       9.814  34.383   9.142  1.00  0.00     0.207 HD
ENDROOT
BRANCH   1   9
HETATM    9  N2  UNL     1       8.495  35.547  11.268  1.00  0.00    -0.222 N 
ATOM     10  H2  UNL     1       8.990  35.773  12.131  1.00  0.00     0.177 HD
BRANCH   9  11
HETATM   11  C3  UNL     1       7.769  36.542  10.522  1.00  0.00     0.165 C 
BRANCH  11  12
HETATM   12  C2  UNL     1       6.613  37.148  11.237  1.00  0.00     0.252 C 
BRANCH  12  13
HETATM   13  N1  UNL     1       5.503  37.508  10.420  1.00  0.00    -0.077 N 
HETATM   14  C1  UNL     1       5.913  38.359   9.342  1.00  0.00     0.267 C 
ATOM     15  H12 UNL     1       4.754  37.931  10.967  1.00  0.00     0.276 HD
ATOM     16  H11 UNL     1       5.004  36.686  10.081  1.00  0.00     0.276 HD
ENDBRANCH  12  13
ENDBRANCH  11  12
ENDBRANCH   9  11
ENDBRANCH   1   9
TORSDOF 4
ENDMDL
MODEL 3
REMARK VINA RESULT: -4.725539149      0.713      1.362
REMARK  4 active torsions:
REMARK  status: ('A' for Active; 'I' for Inactive)
REMARK    1  A    between atoms: N1_2  and  C2_5 
REMARK    2  A    between atoms: C2_5  and  C3_6 
REMARK    3  A    between atoms: C3_6  and  N2_7 
REMARK    4  A    between atoms: N2_7  and  C4_9 
ROOT
HETATM    1  C4  UNL     1       8.649  33.329  10.201  1.00  0.00     0.706 A 
HETATM    2  N3  UNL     1       8.452  32.210   9.484  1.00  0.00    -0.114 N 
ATOM      3  H3  UNL     1       8.931  31.980   8.613  1.00  0.00     0.203 HD
HETATM    4  N4  UNL     1       7.539  31.444  10.078  1.00  0.00     0.009 NA
HETATM    5  N5  UNL     1       7.157  32.090  11.184  1.00  0.00    -0.212 N 
ATOM      6  H5  UNL     1       6.465  31.760  11.857  1.00  0.00     0.206 HD
HETATM    7  N6  UNL     1       7.817  33.211  11.257  1.00  0.00    -0.118 N 
ATOM      8  H6  UNL     1       7.719  33.900  12.003  1.00  0.00     0.207 HD
ENDROOT
BRANCH   1   9
HETATM    9  N2  UNL     1       9.470  34.297   9.909  1.00  0.00    -0.222 N 
ATOM     10  H2  UNL     1      10.242  34.171   9.253  1.00  0.00     0.177 HD
BRANCH   9  11
HETATM   11  C3  UNL     1       9.225  35.554  10.565  1.00  0.00     0.165 C 
BRANCH  11  12
HETATM   12  C2  UNL     1       8.026  36.294  10.084  1.00  0.00     0.252 C 
BRANCH  12  13
HETATM   13  N1  UNL     1       7.108  36.703  11.094  1.00  0.00    -0.077 N 
HETATM   14  C1  UNL     1       6.072  37.526  10.545  1.00  0.00     0.267 C 
ATOM     15  H12 UNL     1       7.583  37.164  11.870  1.00  0.00     0.276 HD
ATOM     16  H11 UNL     1       6.725  35.904  11.599  1.00  0.00     0.276 HD
ENDBRANCH  12  13
ENDBRANCH  11  12
ENDBRANCH   9  11
ENDBRANCH   1   9
TORSDOF 4
ENDMDL
MODEL 4
REMARK VINA RESULT: -4.309895676      1.056      1.683
REMARK  4 active torsions:
REMARK  status: ('A' for Active; 'I' for Inactive)
REMARK    1  A    between atoms: N1_2  and  C2_5 
REMARK    2  A    between atoms: C2_5  and  C3_6 
REMARK    3  A    between atoms: C3_6  and  N2_7 
REMARK    4  A    between atoms: N2_7  and  C4_9 
ROOT
HETATM    1  C4  UNL     1       8.507  34.401  10.890  1.00  0.00     0.706 A 
HETATM    2  N3  UNL     1       9.163  33.708   9.945  1.00  0.00    -0.114 N 
ATOM      3  H3  UNL     1       9.842  34.103   9.294  1.00  0.00     0.203 HD
HETATM    4  N4  UNL     1       8.796  32.428   9.982  1.00  0.00     0.009 NA
HETATM    5  N5  UNL     1       7.898  32.314  10.964  1.00  0.00    -0.212 N 
ATOM      6  H5  UNL     1       7.427  31.454  11.244  1.00  0.00     0.206 HD
HETATM    7  N6  UNL     1       7.725  33.488  11.505  1.00  0.00    -0.118 N 
ATOM      8  H6  UNL     1       7.092  33.687  12.280  1.00  0.00     0.207 HD
ENDROOT
BRANCH   1   9
HETATM    9  N2  UNL     1       8.622  35.675  11.132  1.00  0.00    -0.222 N 
ATOM     10  H2  UNL     1       9.290  36.037  11.813  1.00  0.00     0.177 HD
BRANCH   9  11
HETATM   11  C3  UNL     1       7.753  36.543  10.380  1.00  0.00     0.165 C 
BRANCH  11  12
HETATM   12  C2  UNL     1       6.647  37.160  11.163  1.00  0.00     0.252 C 
BRANCH  12  13
HETATM   13  N1  UNL     1       5.503  37.551  10.409  1.00  0.00    -0.077 N 
HETATM   14  C1  UNL     1       5.877  38.368   9.293  1.00  0.00     0.267 C 
ATOM     15  H12 UNL     1       4.806  38.011  10.994  1.00  0.00     0.276 HD
ATOM     16  H11 UNL     1       4.952  36.744  10.117  1.00  0.00     0.276 HD
ENDBRANCH  12  13
ENDBRANCH  11  12
ENDBRANCH   9  11
ENDBRANCH   1   9
TORSDOF 4
ENDMDL
MODEL 5
REMARK VINA RESULT: -4.181990539      1.515      2.289
REMARK  4 active torsions:
REMARK  status: ('A' for Active; 'I' for Inactive)
REMARK    1  A    between atoms: N1_2  and  C2_5 
REMARK    2  A    between atoms: C2_5  and  C3_6 
REMARK    3  A    between atoms: C3_6  and  N2_7 
REMARK    4  A    between atoms: N2_7  and  C4_9 
ROOT
HETATM    1  C4  UNL     1       8.424  35.361  10.655  1.00  0.00     0.706 A 
HETATM    2  N3  UNL     1       8.158  34.659  11.769  1.00  0.00    -0.114 N 
ATOM      3  H3  UNL     1       7.640  35.012  12.574  1.00  0.00     0.203 HD
HETATM    4  N4  UNL     1       8.670  33.434  11.669  1.00  0.00     0.009 NA
HETATM    5  N5  UNL     1       9.266  33.364  10.475  1.00  0.00    -0.212 N 
ATOM      6  H5  UNL     1       9.753  32.551  10.099  1.00  0.00     0.206 HD
HETATM    7  N6  UNL     1       9.120  34.510   9.871  1.00  0.00    -0.118 N 
ATOM      8  H6  UNL     1       9.479  34.732   8.943  1.00  0.00     0.207 HD
ENDROOT
BRANCH   1   9
HETATM    9  N2  UNL     1       8.074  36.593  10.417  1.00  0.00    -0.222 N 
ATOM     10  H2  UNL     1       8.596  37.187   9.773  1.00  0.00     0.177 HD
BRANCH   9  11
HETATM   11  C3  UNL     1       6.907  37.065  11.116  1.00  0.00     0.165 C 
BRANCH  11  12
HETATM   12  C2  UNL     1       5.750  37.416  10.248  1.00  0.00     0.252 C 
BRANCH  12  13
HETATM   13  N1  UNL     1       5.880  38.626   9.508  1.00  0.00    -0.077 N 
HETATM   14  C1  UNL     1       5.623  38.407   8.116  1.00  0.00     0.267 C 
ATOM     15  H12 UNL     1       6.790  39.062   9.658  1.00  0.00     0.276 HD
ATOM     16  H11 UNL     1       5.289  39.365   9.888  1.00  0.00     0.276 HD
ENDBRANCH  12  13
ENDBRANCH  11  12
ENDBRANCH   9  11
ENDBRANCH   1   9
TORSDOF 4
ENDMDL
