MODEL 1
REMARK VINA RESULT: -3.249126504      0.000      0.000
REMARK  4 active torsions:
REMARK  status: ('A' for Active; 'I' for Inactive)
REMARK    1  A    between atoms: N1_1  and  C1_5 
REMARK    2  A    between atoms: C1_5  and  C2_6 
REMARK    3  A    between atoms: C2_6  and  N2_7 
REMARK    4  A    between atoms: N2_7  and  C3_9 
ROOT
HETATM    1  C3  UNL     1       8.599  35.171  11.105  1.00  0.00     0.174 C 
HETATM    2  C4  UNL     1       8.267  33.860  11.850  1.00  0.00     0.073 C 
HETATM    3  C5  UNL     1       7.502  33.011  10.847  1.00  0.00     0.238 C 
HETATM    4  N3  UNL     1       8.385  32.583   9.785  1.00  0.00    -0.060 N 
ATOM      5  H31 UNL     1       7.855  32.268   8.973  1.00  0.00     0.279 HD
ATOM      6  H32 UNL     1       8.850  31.708  10.027  1.00  0.00     0.279 HD
HETATM    7  C6  UNL     1       9.345  33.595   9.417  1.00  0.00     0.351 C 
HETATM    8  N4  UNL     1       8.869  34.890   9.742  1.00  0.00    -0.380 N 
ATOM      9  H4  UNL     1       8.725  35.595   9.019  1.00  0.00     0.156 HD
ENDROOT
BRANCH   1  10
HETATM   10  N2  UNL     1       7.484  36.042  11.264  1.00  0.00    -0.400 N 
ATOM     11  H2  UNL     1       6.837  35.923  12.043  1.00  0.00     0.155 HD
BRANCH  10  12
HETATM   12  C2  UNL     1       7.295  37.069  10.325  1.00  0.00     0.143 C 
BRANCH  12  13
HETATM   13  C1  UNL     1       5.861  37.596  10.426  1.00  0.00     0.248 C 
BRANCH  13  14
HETATM   14  N1  UNL     1       5.540  38.495   9.359  1.00  0.00    -0.078 N 
ATOM     15  H13 UNL     1       4.762  39.104   9.613  1.00  0.00     0.274 HD
ATOM     16  H12 UNL     1       6.266  39.200   9.240  1.00  0.00     0.274 HD
ATOM     17  H11 UNL     1       5.355  38.004   8.485  1.00  0.00     0.274 HD
ENDBRANCH  13  14
ENDBRANCH  12  13
ENDBRANCH  10  12
ENDBRANCH   1  10
TORSDOF 4
ENDMDL
MODEL 2
REMARK VINA RESULT: -2.173672916      1.212      1.340
REMARK  4 active torsions:
REMARK  status: ('A' for Active; 'I' for Inactive)
REMARK    1  A    between atoms: N1_1  and  C1_5 
REMARK    2  A    between atoms: C1_5  and  C2_6 
REMARK    3  A    between atoms: C2_6  and  N2_7 
REMARK    4  A    between atoms: N2_7  and  C3_9 
ROOT
HETATM    1  C3  UNL     1       9.287  34.472  10.169  1.00  0.00     0.174 C 
HETATM    2  C4  UNL     1       8.638  33.862  11.431  1.00  0.00     0.073 C 
HETATM    3  C5  UNL     1       7.321  33.267  10.956  1.00  0.00     0.238 C 
HETATM    4  N3  UNL     1       7.571  32.118  10.115  1.00  0.00    -0.060 N 
ATOM      5  H31 UNL     1       6.746  31.882   9.563  1.00  0.00     0.279 HD
ATOM      6  H32 UNL     1       7.645  31.266  10.671  1.00  0.00     0.279 HD
HETATM    7  C6  UNL     1       8.728  32.288   9.270  1.00  0.00     0.351 C 
HETATM    8  N4  UNL     1       8.995  33.661   9.043  1.00  0.00    -0.380 N 
ATOM      9  H4  UNL     1       8.978  34.053   8.101  1.00  0.00     0.156 HD
ENDROOT
BRANCH   1  10
HETATM   10  N2  UNL     1       8.776  35.793  10.027  1.00  0.00    -0.400 N 
ATOM     11  H2  UNL     1       9.029  36.367   9.223  1.00  0.00     0.155 HD
BRANCH  10  12
HETATM   12  C2  UNL     1       7.914  36.289  11.019  1.00  0.00     0.143 C 
BRANCH  12  13
HETATM   13  C1  UNL     1       6.878  37.217  10.379  1.00  0.00     0.248 C 
BRANCH  13  14
HETATM   14  N1  UNL     1       5.723  37.390  11.207  1.00  0.00    -0.078 N 
ATOM     15  H13 UNL     1       4.983  37.883  10.708  1.00  0.00     0.274 HD
ATOM     16  H12 UNL     1       5.247  36.501  11.366  1.00  0.00     0.274 HD
ATOM     17  H11 UNL     1       5.946  37.852  12.088  1.00  0.00     0.274 HD
ENDBRANCH  13  14
ENDBRANCH  12  13
ENDBRANCH  10  12
ENDBRANCH   1  10
TORSDOF 4
ENDMDL
MODEL 3
REMARK VINA RESULT: -1.479977688      1.274      1.870
REMARK  4 active torsions:
REMARK  status: ('A' for Active; 'I' for Inactive)
REMARK    1  A    between atoms: N1_1  and  C1_5 
REMARK    2  A    between atoms: C1_5  and  C2_6 
REMARK    3  A    between atoms: C2_6  and  N2_7 
REMARK    4  A    between atoms: N2_7  and  C3_9 
ROOT
HETATM    1  C3  UNL     1       7.569  35.557  10.506  1.00  0.00     0.174 C 
HETATM    2  C4  UNL     1       8.704  35.678   9.465  1.00  0.00     0.073 C 
HETATM    3  C5  UNL     1       9.950  35.166  10.171  1.00  0.00     0.238 C 
HETATM    4  N3  UNL     1       9.845  33.741  10.393  1.00  0.00    -0.060 N 
ATOM      5  H31 UNL     1      10.511  33.430  11.099  1.00  0.00     0.279 HD
ATOM      6  H32 UNL     1      10.199  33.219   9.592  1.00  0.00     0.279 HD
HETATM    7  C6  UNL     1       8.503  33.329  10.727  1.00  0.00     0.351 C 
HETATM    8  N4  UNL     1       7.768  34.398  11.297  1.00  0.00    -0.380 N 
ATOM      9  H4  UNL     1       7.396  34.336  12.245  1.00  0.00     0.156 HD
ENDROOT
BRANCH   1  10
HETATM   10  N2  UNL     1       7.581  36.749  11.284  1.00  0.00    -0.400 N 
ATOM     11  H2  UNL     1       8.429  37.049  11.766  1.00  0.00     0.155 HD
BRANCH  10  12
HETATM   12  C2  UNL     1       6.400  37.503  11.375  1.00  0.00     0.143 C 
BRANCH  12  13
HETATM   13  C1  UNL     1       5.679  37.490  10.024  1.00  0.00     0.248 C 
BRANCH  13  14
HETATM   14  N1  UNL     1       5.724  38.764   9.375  1.00  0.00    -0.078 N 
ATOM     15  H13 UNL     1       4.924  38.890   8.755  1.00  0.00     0.274 HD
ATOM     16  H12 UNL     1       5.541  39.520  10.034  1.00  0.00     0.274 HD
ATOM     17  H11 UNL     1       6.603  38.912   8.879  1.00  0.00     0.274 HD
ENDBRANCH  13  14
ENDBRANCH  12  13
ENDBRANCH  10  12
ENDBRANCH   1  10
TORSDOF 4
ENDMDL
MODEL 4
REMARK VINA RESULT: -1.187057531      1.233      1.605
REMARK  4 active torsions:
REMARK  status: ('A' for Active; 'I' for Inactive)
REMARK    1  A    between atoms: N1_1  and  C1_5 
REMARK    2  A    between atoms: C1_5  and  C2_6 
REMARK    3  A    between atoms: C2_6  and  N2_7 
REMARK    4  A    between atoms: N2_7  and  C3_9 
ROOT
HETATM    1  C3  UNL     1       8.029  34.286  10.319  1.00  0.00     0.174 C 
HETATM    2  C4  UNL     1       9.338  33.684  10.876  1.00  0.00     0.073 C 
HETATM    3  C5  UNL     1       8.901  32.703  11.952  1.00  0.00     0.238 C 
HETATM    4  N3  UNL     1       8.236  31.568  11.350  1.00  0.00    -0.060 N 
ATOM      5  H31 UNL     1       7.692  31.053  12.041  1.00  0.00     0.279 HD
ATOM      6  H32 UNL     1       8.907  30.844  11.096  1.00  0.00     0.279 HD
HETATM    7  C6  UNL     1       7.421  31.939  10.219  1.00  0.00     0.351 C 
HETATM    8  N4  UNL     1       7.016  33.294  10.304  1.00  0.00    -0.380 N 
ATOM      9  H4  UNL     1       6.029  33.548  10.354  1.00  0.00     0.156 HD
ENDROOT
BRANCH   1  10
HETATM   10  N2  UNL     1       7.688  35.393  11.146  1.00  0.00    -0.400 N 
ATOM     11  H2  UNL     1       7.502  35.263  12.140  1.00  0.00     0.155 HD
BRANCH  10  12
HETATM   12  C2  UNL     1       7.612  36.668  10.563  1.00  0.00     0.143 C 
BRANCH  12  13
HETATM   13  C1  UNL     1       6.275  37.319  10.927  1.00  0.00     0.248 C 
BRANCH  13  14
HETATM   14  N1  UNL     1       5.696  38.019   9.821  1.00  0.00    -0.078 N 
ATOM     15  H13 UNL     1       4.891  37.516   9.447  1.00  0.00     0.274 HD
ATOM     16  H12 UNL     1       5.226  38.870  10.129  1.00  0.00     0.274 HD
ATOM     17  H11 UNL     1       6.379  38.219   9.091  1.00  0.00     0.274 HD
ENDBRANCH  13  14
ENDBRANCH  12  13
ENDBRANCH  10  12
ENDBRANCH   1  10
TORSDOF 4
ENDMDL
MODEL 5
REMARK VINA RESULT: -1.142414019      1.581      4.109
REMARK  4 active torsions:
REMARK  status: ('A' for Active; 'I' for Inactive)
REMARK    1  A    between atoms: N1_1  and  C1_5 
REMARK    2  A    between atoms: C1_5  and  C2_6 
REMARK    3  A    between atoms: C2_6  and  N2_7 
REMARK    4  A    between atoms: N2_7  and  C3_9 
ROOT
HETATM    1  C3  UNL     1       8.749  34.731  11.669  1.00  0.00     0.174 C 
HETATM    2  C4  UNL     1       9.791  35.371  10.725  1.00  0.00     0.073 C 
HETATM    3  C5  UNL     1       9.058  35.594   9.412  1.00  0.00     0.238 C 
HETATM    4  N3  UNL     1       8.062  36.631   9.569  1.00  0.00    -0.060 N 
ATOM      5  H31 UNL     1       7.379  36.601   8.813  1.00  0.00     0.279 HD
ATOM      6  H32 UNL     1       8.462  37.552   9.393  1.00  0.00     0.279 HD
HETATM    7  C6  UNL     1       7.412  36.586  10.857  1.00  0.00     0.351 C 
HETATM    8  N4  UNL     1       7.468  35.284  11.411  1.00  0.00    -0.380 N 
ATOM      9  H4  UNL     1       6.617  34.761  11.617  1.00  0.00     0.156 HD
ENDROOT
BRANCH   1  10
HETATM   10  N2  UNL     1       8.783  33.325  11.445  1.00  0.00    -0.400 N 
ATOM     11  H2  UNL     1       9.670  32.838  11.323  1.00  0.00     0.155 HD
BRANCH  10  12
HETATM   12  C2  UNL     1       7.567  32.624  11.397  1.00  0.00     0.143 C 
BRANCH  12  13
HETATM   13  C1  UNL     1       7.455  31.886  10.060  1.00  0.00     0.248 C 
BRANCH  13  14
HETATM   14  N1  UNL     1       8.577  32.135   9.209  1.00  0.00    -0.078 N 
ATOM     15  H13 UNL     1       8.499  33.043   8.752  1.00  0.00     0.274 HD
ATOM     16  H12 UNL     1       9.424  32.300   9.754  1.00  0.00     0.274 HD
ATOM     17  H11 UNL     1       8.718  31.389   8.528  1.00  0.00     0.274 HD
ENDBRANCH  13  14
ENDBRANCH  12  13
ENDBRANCH  10  12
ENDBRANCH   1  10
TORSDOF 4
ENDMDL
