MODEL 1
REMARK VINA RESULT: -4.428153678      0.000      0.000
REMARK  5 active torsions:
REMARK  status: ('A' for Active; 'I' for Inactive)
REMARK    1  A    between atoms: N1_2  and  C2_4 
REMARK    2  A    between atoms: C3_11  and  C4_12 
REMARK    3  A    between atoms: C4_12  and  C5_13 
REMARK    4  A    between atoms: C5_13  and  N5_14 
REMARK    5  A    between atoms: N5_14  and  N6_15 
ROOT
HETATM    1  C2  UNL     1       8.437  34.219  10.654  1.00  0.00     0.141 A 
HETATM    2  N2  UNL     1       9.515  34.028   9.897  1.00  0.00    -0.270 N 
ATOM      3  H2  UNL     1       9.984  33.140   9.722  1.00  0.00     0.190 HD
HETATM    4  N3  UNL     1       9.856  35.194   9.424  1.00  0.00    -0.241 N 
ATOM      5  H3  UNL     1      10.653  35.356   8.809  1.00  0.00     0.208 HD
HETATM    6  N4  UNL     1       9.036  36.135   9.847  1.00  0.00    -0.287 N 
ATOM      7  H4  UNL     1       9.095  37.126   9.613  1.00  0.00     0.188 HD
HETATM    8  C3  UNL     1       8.108  35.570  10.637  1.00  0.00     0.073 A 
ENDROOT
BRANCH   8   9
HETATM    9  C4  UNL     1       7.027  36.284  11.292  1.00  0.00     0.080 C 
BRANCH   9  10
HETATM   10  C5  UNL     1       6.810  37.689  10.829  1.00  0.00     0.140 C 
BRANCH  10  11
HETATM   11  N5  UNL     1       5.487  37.730  10.227  1.00  0.00    -0.148 NA
BRANCH  11  12
HETATM   12  N6  UNL     1       5.489  38.554   9.103  1.00  0.00    -0.348 N 
ATOM     13  H62 UNL     1       5.058  39.478   9.073  1.00  0.00     0.172 HD
ATOM     14  H61 UNL     1       5.977  38.101   8.331  1.00  0.00     0.172 HD
ENDBRANCH  11  12
ENDBRANCH  10  11
ENDBRANCH   9  10
ENDBRANCH   8   9
BRANCH   1  15
HETATM   15  N1  UNL     1       7.787  33.347  11.297  1.00  0.00    -0.378 N 
HETATM   16  C1  UNL     1       7.527  32.009  10.842  1.00  0.00     0.147 C 
ATOM     17  H1  UNL     1       7.418  33.613  12.210  1.00  0.00     0.160 HD
ENDBRANCH   1  15
TORSDOF 5
ENDMDL
MODEL 2
REMARK VINA RESULT: -4.395599637      1.477      4.036
REMARK  5 active torsions:
REMARK  status: ('A' for Active; 'I' for Inactive)
REMARK    1  A    between atoms: N1_2  and  C2_4 
REMARK    2  A    between atoms: C3_11  and  C4_12 
REMARK    3  A    between atoms: C4_12  and  C5_13 
REMARK    4  A    between atoms: C5_13  and  N5_14 
REMARK    5  A    between atoms: N5_14  and  N6_15 
ROOT
HETATM    1  C2  UNL     1       8.204  35.860  10.600  1.00  0.00     0.141 A 
HETATM    2  N2  UNL     1       8.878  36.270   9.527  1.00  0.00    -0.270 N 
ATOM      3  H2  UNL     1       8.775  37.165   9.050  1.00  0.00     0.190 HD
HETATM    4  N3  UNL     1       9.695  35.307   9.205  1.00  0.00    -0.241 N 
ATOM      5  H3  UNL     1      10.342  35.338   8.416  1.00  0.00     0.208 HD
HETATM    6  N4  UNL     1       9.575  34.287  10.031  1.00  0.00    -0.287 N 
ATOM      7  H4  UNL     1      10.107  33.417   9.986  1.00  0.00     0.188 HD
HETATM    8  C3  UNL     1       8.636  34.585  10.944  1.00  0.00     0.073 A 
ENDROOT
BRANCH   8   9
HETATM    9  C4  UNL     1       8.220  33.710  12.026  1.00  0.00     0.080 C 
BRANCH   9  10
HETATM   10  C5  UNL     1       7.858  32.317  11.624  1.00  0.00     0.140 C 
BRANCH  10  11
HETATM   11  N5  UNL     1       7.136  32.420  10.366  1.00  0.00    -0.148 NA
BRANCH  11  12
HETATM   12  N6  UNL     1       7.560  31.435   9.478  1.00  0.00    -0.348 N 
ATOM     13  H62 UNL     1       8.505  31.378   9.098  1.00  0.00     0.172 HD
ATOM     14  H61 UNL     1       6.798  30.790   9.270  1.00  0.00     0.172 HD
ENDBRANCH  11  12
ENDBRANCH  10  11
ENDBRANCH   9  10
ENDBRANCH   8   9
BRANCH   1  15
HETATM   15  N1  UNL     1       7.312  36.494  11.232  1.00  0.00    -0.378 N 
HETATM   16  C1  UNL     1       6.357  37.388  10.638  1.00  0.00     0.147 C 
ATOM     17  H1  UNL     1       7.267  36.361  12.242  1.00  0.00     0.160 HD
ENDBRANCH   1  15
TORSDOF 5
ENDMDL
MODEL 3
REMARK VINA RESULT: -3.550445200      1.607      4.547
REMARK  5 active torsions:
REMARK  status: ('A' for Active; 'I' for Inactive)
REMARK    1  A    between atoms: N1_2  and  C2_4 
REMARK    2  A    between atoms: C3_11  and  C4_12 
REMARK    3  A    between atoms: C4_12  and  C5_13 
REMARK    4  A    between atoms: C5_13  and  N5_14 
REMARK    5  A    between atoms: N5_14  and  N6_15 
ROOT
HETATM    1  C2  UNL     1       8.220  35.677  10.673  1.00  0.00     0.141 A 
HETATM    2  N2  UNL     1       9.023  36.253   9.781  1.00  0.00    -0.270 N 
ATOM      3  H2  UNL     1       9.038  37.240   9.525  1.00  0.00     0.190 HD
HETATM    4  N3  UNL     1       9.786  35.313   9.298  1.00  0.00    -0.241 N 
ATOM      5  H3  UNL     1      10.505  35.460   8.590  1.00  0.00     0.208 HD
HETATM    6  N4  UNL     1       9.507  34.147   9.847  1.00  0.00    -0.287 N 
ATOM      7  H4  UNL     1       9.968  33.263   9.634  1.00  0.00     0.188 HD
HETATM    8  C3  UNL     1       8.513  34.320  10.733  1.00  0.00     0.073 A 
ENDROOT
BRANCH   8   9
HETATM    9  C4  UNL     1       7.928  33.265  11.542  1.00  0.00     0.080 C 
BRANCH   9  10
HETATM   10  C5  UNL     1       7.611  31.997  10.816  1.00  0.00     0.140 C 
BRANCH  10  11
HETATM   11  N5  UNL     1       8.002  30.905  11.694  1.00  0.00    -0.148 NA
BRANCH  11  12
HETATM   12  N6  UNL     1       9.218  31.189  12.312  1.00  0.00    -0.348 N 
ATOM     13  H62 UNL     1       9.933  31.797  11.912  1.00  0.00     0.172 HD
ATOM     14  H61 UNL     1       9.284  30.706  13.207  1.00  0.00     0.172 HD
ENDBRANCH  11  12
ENDBRANCH  10  11
ENDBRANCH   9  10
ENDBRANCH   8   9
BRANCH   1  15
HETATM   15  N1  UNL     1       7.326  36.234  11.371  1.00  0.00    -0.378 N 
HETATM   16  C1  UNL     1       6.461  37.287  10.918  1.00  0.00     0.147 C 
ATOM     17  H1  UNL     1       7.210  35.911  12.332  1.00  0.00     0.160 HD
ENDBRANCH   1  15
TORSDOF 5
ENDMDL
MODEL 4
REMARK VINA RESULT: -3.133438155      1.153      2.444
REMARK  5 active torsions:
REMARK  status: ('A' for Active; 'I' for Inactive)
REMARK    1  A    between atoms: N1_2  and  C2_4 
REMARK    2  A    between atoms: C3_11  and  C4_12 
REMARK    3  A    between atoms: C4_12  and  C5_13 
REMARK    4  A    between atoms: C5_13  and  N5_14 
REMARK    5  A    between atoms: N5_14  and  N6_15 
ROOT
HETATM    1  C2  UNL     1       9.183  34.616  10.090  1.00  0.00     0.141 A 
HETATM    2  N2  UNL     1       9.356  33.296  10.080  1.00  0.00    -0.270 N 
ATOM      3  H2  UNL     1      10.052  32.779   9.545  1.00  0.00     0.190 HD
HETATM    4  N3  UNL     1       8.462  32.793  10.886  1.00  0.00    -0.241 N 
ATOM      5  H3  UNL     1       8.355  31.797  11.077  1.00  0.00     0.208 HD
HETATM    6  N4  UNL     1       7.717  33.741  11.418  1.00  0.00    -0.287 N 
ATOM      7  H4  UNL     1       6.953  33.598  12.079  1.00  0.00     0.188 HD
HETATM    8  C3  UNL     1       8.133  34.927  10.945  1.00  0.00     0.073 A 
ENDROOT
BRANCH   8   9
HETATM    9  C4  UNL     1       7.558  36.213  11.302  1.00  0.00     0.080 C 
BRANCH   9  10
HETATM   10  C5  UNL     1       7.222  37.108  10.154  1.00  0.00     0.140 C 
BRANCH  10  11
HETATM   11  N5  UNL     1       5.923  37.693  10.447  1.00  0.00    -0.148 NA
BRANCH  11  12
HETATM   12  N6  UNL     1       5.511  38.514   9.400  1.00  0.00    -0.348 N 
ATOM     13  H62 UNL     1       6.117  39.189   8.933  1.00  0.00     0.172 HD
ATOM     14  H61 UNL     1       4.531  38.342   9.177  1.00  0.00     0.172 HD
ENDBRANCH  11  12
ENDBRANCH  10  11
ENDBRANCH   9  10
ENDBRANCH   8   9
BRANCH   1  15
HETATM   15  N1  UNL     1       9.842  35.480   9.445  1.00  0.00    -0.378 N 
HETATM   16  C1  UNL     1      11.090  36.052   9.870  1.00  0.00     0.147 C 
ATOM     17  H1  UNL     1       9.459  35.796   8.554  1.00  0.00     0.160 HD
ENDBRANCH   1  15
TORSDOF 5
ENDMDL
MODEL 5
REMARK VINA RESULT: -3.032073558      1.059      1.330
REMARK  5 active torsions:
REMARK  status: ('A' for Active; 'I' for Inactive)
REMARK    1  A    between atoms: N1_2  and  C2_4 
REMARK    2  A    between atoms: C3_11  and  C4_12 
REMARK    3  A    between atoms: C4_12  and  C5_13 
REMARK    4  A    between atoms: C5_13  and  N5_14 
REMARK    5  A    between atoms: N5_14  and  N6_15 
ROOT
HETATM    1  C2  UNL     1       8.341  33.202  10.359  1.00  0.00     0.141 A 
HETATM    2  N2  UNL     1       8.780  32.760   9.182  1.00  0.00    -0.270 N 
ATOM      3  H2  UNL     1       8.734  31.802   8.837  1.00  0.00     0.190 HD
HETATM    4  N3  UNL     1       9.279  33.789   8.556  1.00  0.00    -0.241 N 
ATOM      5  H3  UNL     1       9.693  33.752   7.624  1.00  0.00     0.208 HD
HETATM    6  N4  UNL     1       9.178  34.883   9.285  1.00  0.00    -0.287 N 
ATOM      7  H4  UNL     1       9.496  35.813   9.012  1.00  0.00     0.188 HD
HETATM    8  C3  UNL     1       8.586  34.567  10.448  1.00  0.00     0.073 A 
ENDROOT
BRANCH   8   9
HETATM    9  C4  UNL     1       8.297  35.507  11.517  1.00  0.00     0.080 C 
BRANCH   9  10
HETATM   10  C5  UNL     1       7.834  36.859  11.077  1.00  0.00     0.140 C 
BRANCH  10  11
HETATM   11  N5  UNL     1       6.421  36.731  10.756  1.00  0.00    -0.148 NA
BRANCH  11  12
HETATM   12  N6  UNL     1       5.985  37.837  10.029  1.00  0.00    -0.348 N 
ATOM     13  H62 UNL     1       6.490  38.722   9.980  1.00  0.00     0.172 HD
ATOM     14  H61 UNL     1       5.102  37.631   9.563  1.00  0.00     0.172 HD
ENDBRANCH  11  12
ENDBRANCH  10  11
ENDBRANCH   9  10
ENDBRANCH   8   9
BRANCH   1  15
HETATM   15  N1  UNL     1       7.786  32.527  11.272  1.00  0.00    -0.378 N 
HETATM   16  C1  UNL     1       7.480  31.125  11.191  1.00  0.00     0.147 C 
ATOM     17  H1  UNL     1       7.536  33.015  12.132  1.00  0.00     0.160 HD
ENDBRANCH   1  15
TORSDOF 5
ENDMDL
