MODEL 1
REMARK VINA RESULT: -4.849149277      0.000      0.000
REMARK  5 active torsions:
REMARK  status: ('A' for Active; 'I' for Inactive)
REMARK    1  A    between atoms: N1_1  and  C1_5 
REMARK    2  A    between atoms: C1_5  and  C2_6 
REMARK    3  A    between atoms: C2_6  and  C3_7 
REMARK    4  A    between atoms: C3_7  and  N2_8 
REMARK    5  A    between atoms: N2_8  and  C4_10 
ROOT
HETATM    1  C4  UNL     1       8.572  34.378  10.667  1.00  0.00     0.709 A 
HETATM    2  N3  UNL     1       9.269  33.959   9.574  1.00  0.00    -0.115 N 
ATOM      3  H3  UNL     1       9.987  34.486   9.077  1.00  0.00     0.207 HD
HETATM    4  N4  UNL     1       8.843  32.743   9.276  1.00  0.00    -0.213 N 
ATOM      5  H4  UNL     1       9.191  32.183   8.499  1.00  0.00     0.210 HD
HETATM    6  N5  UNL     1       7.916  32.355  10.111  1.00  0.00    -0.213 N 
ATOM      7  H5  UNL     1       7.421  31.463  10.107  1.00  0.00     0.210 HD
HETATM    8  N6  UNL     1       7.750  33.354  10.962  1.00  0.00    -0.115 N 
ATOM      9  H6  UNL     1       7.087  33.348  11.737  1.00  0.00     0.207 HD
ENDROOT
BRANCH   1  10
HETATM   10  N2  UNL     1       8.698  35.521  11.270  1.00  0.00    -0.223 N 
ATOM     11  H2  UNL     1       9.606  35.851  11.597  1.00  0.00     0.177 HD
BRANCH  10  12
HETATM   12  C3  UNL     1       7.512  36.301  11.459  1.00  0.00     0.140 C 
BRANCH  12  13
HETATM   13  C2  UNL     1       7.129  37.123  10.273  1.00  0.00     0.047 C 
BRANCH  13  14
HETATM   14  C1  UNL     1       5.751  37.687  10.330  1.00  0.00     0.231 C 
BRANCH  14  15
HETATM   15  N1  UNL     1       5.582  38.534   9.150  1.00  0.00    -0.079 N 
ATOM     16  H13 UNL     1       6.360  39.177   9.006  1.00  0.00     0.274 HD
ATOM     17  H12 UNL     1       5.671  38.020   8.274  1.00  0.00     0.274 HD
ATOM     18  H11 UNL     1       4.684  39.008   9.246  1.00  0.00     0.274 HD
ENDBRANCH  14  15
ENDBRANCH  13  14
ENDBRANCH  12  13
ENDBRANCH  10  12
ENDBRANCH   1  10
TORSDOF 5
ENDMDL
MODEL 2
REMARK VINA RESULT: -4.839902528      0.051      1.124
REMARK  5 active torsions:
REMARK  status: ('A' for Active; 'I' for Inactive)
REMARK    1  A    between atoms: N1_1  and  C1_5 
REMARK    2  A    between atoms: C1_5  and  C2_6 
REMARK    3  A    between atoms: C2_6  and  C3_7 
REMARK    4  A    between atoms: C3_7  and  N2_8 
REMARK    5  A    between atoms: N2_8  and  C4_10 
ROOT
HETATM    1  C4  UNL     1       8.576  34.413  10.664  1.00  0.00     0.709 A 
HETATM    2  N3  UNL     1       7.728  33.403  11.007  1.00  0.00    -0.115 N 
ATOM      3  H3  UNL     1       7.065  33.408  11.782  1.00  0.00     0.207 HD
HETATM    4  N4  UNL     1       7.923  32.416  10.149  1.00  0.00    -0.213 N 
ATOM      5  H4  UNL     1       7.422  31.528  10.166  1.00  0.00     0.210 HD
HETATM    6  N5  UNL     1       8.843  32.729   9.276  1.00  0.00    -0.213 N 
ATOM      7  H5  UNL     1       9.184  32.150   8.509  1.00  0.00     0.210 HD
HETATM    8  N6  UNL     1       9.243  33.950   9.590  1.00  0.00    -0.115 N 
ATOM      9  H6  UNL     1       9.960  34.471   9.086  1.00  0.00     0.207 HD
ENDROOT
BRANCH   1  10
HETATM   10  N2  UNL     1       8.691  35.560  11.262  1.00  0.00    -0.223 N 
ATOM     11  H2  UNL     1       9.594  35.894  11.598  1.00  0.00     0.177 HD
BRANCH  10  12
HETATM   12  C3  UNL     1       7.501  36.337  11.432  1.00  0.00     0.140 C 
BRANCH  12  13
HETATM   13  C2  UNL     1       7.096  37.106  10.218  1.00  0.00     0.047 C 
BRANCH  13  14
HETATM   14  C1  UNL     1       5.736  37.711  10.293  1.00  0.00     0.231 C 
BRANCH  14  15
HETATM   15  N1  UNL     1       5.565  38.538   9.100  1.00  0.00    -0.079 N 
ATOM     16  H13 UNL     1       5.549  39.537   9.305  1.00  0.00     0.274 HD
ATOM     17  H12 UNL     1       6.386  38.541   8.495  1.00  0.00     0.274 HD
ATOM     18  H11 UNL     1       4.721  38.214   8.627  1.00  0.00     0.274 HD
ENDBRANCH  14  15
ENDBRANCH  13  14
ENDBRANCH  12  13
ENDBRANCH  10  12
ENDBRANCH   1  10
TORSDOF 5
ENDMDL
MODEL 3
REMARK VINA RESULT: -4.361392015      1.041      1.615
REMARK  5 active torsions:
REMARK  status: ('A' for Active; 'I' for Inactive)
REMARK    1  A    between atoms: N1_1  and  C1_5 
REMARK    2  A    between atoms: C1_5  and  C2_6 
REMARK    3  A    between atoms: C2_6  and  C3_7 
REMARK    4  A    between atoms: C3_7  and  N2_8 
REMARK    5  A    between atoms: N2_8  and  C4_10 
ROOT
HETATM    1  C4  UNL     1       8.436  35.352  10.608  1.00  0.00     0.709 A 
HETATM    2  N3  UNL     1       8.153  34.407  11.548  1.00  0.00    -0.115 N 
ATOM      3  H3  UNL     1       7.600  34.543  12.394  1.00  0.00     0.207 HD
HETATM    4  N4  UNL     1       8.727  33.280  11.159  1.00  0.00    -0.213 N 
ATOM      5  H4  UNL     1       8.680  32.401  11.673  1.00  0.00     0.210 HD
HETATM    6  N5  UNL     1       9.361  33.444  10.029  1.00  0.00    -0.213 N 
ATOM      7  H5  UNL     1       9.886  32.738   9.512  1.00  0.00     0.210 HD
HETATM    8  N6  UNL     1       9.184  34.710   9.691  1.00  0.00    -0.115 N 
ATOM      9  H6  UNL     1       9.563  35.142   8.848  1.00  0.00     0.207 HD
ENDROOT
BRANCH   1  10
HETATM   10  N2  UNL     1       8.054  36.594  10.623  1.00  0.00    -0.223 N 
ATOM     11  H2  UNL     1       8.607  37.324  10.174  1.00  0.00     0.177 HD
BRANCH  10  12
HETATM   12  C3  UNL     1       6.827  36.897  11.294  1.00  0.00     0.140 C 
BRANCH  12  13
HETATM   13  C2  UNL     1       5.757  37.427  10.398  1.00  0.00     0.047 C 
BRANCH  13  14
HETATM   14  C1  UNL     1       6.187  38.549   9.516  1.00  0.00     0.231 C 
BRANCH  14  15
HETATM   15  N1  UNL     1       5.300  38.549   8.355  1.00  0.00    -0.079 N 
ATOM     16  H13 UNL     1       5.516  37.809   7.687  1.00  0.00     0.274 HD
ATOM     17  H12 UNL     1       4.350  38.252   8.577  1.00  0.00     0.274 HD
ATOM     18  H11 UNL     1       5.342  39.482   7.943  1.00  0.00     0.274 HD
ENDBRANCH  14  15
ENDBRANCH  13  14
ENDBRANCH  12  13
ENDBRANCH  10  12
ENDBRANCH   1  10
TORSDOF 5
ENDMDL
MODEL 4
REMARK VINA RESULT: -3.706309559      1.168      1.529
REMARK  5 active torsions:
REMARK  status: ('A' for Active; 'I' for Inactive)
REMARK    1  A    between atoms: N1_1  and  C1_5 
REMARK    2  A    between atoms: C1_5  and  C2_6 
REMARK    3  A    between atoms: C2_6  and  C3_7 
REMARK    4  A    between atoms: C3_7  and  N2_8 
REMARK    5  A    between atoms: N2_8  and  C4_10 
ROOT
HETATM    1  C4  UNL     1       8.748  33.484  10.248  1.00  0.00     0.709 A 
HETATM    2  N3  UNL     1       8.559  32.434   9.400  1.00  0.00    -0.115 N 
ATOM      3  H3  UNL     1       9.048  32.274   8.519  1.00  0.00     0.207 HD
HETATM    4  N4  UNL     1       7.625  31.662   9.931  1.00  0.00    -0.213 N 
ATOM      5  H4  UNL     1       7.280  30.800   9.509  1.00  0.00     0.210 HD
HETATM    6  N5  UNL     1       7.203  32.151  11.066  1.00  0.00    -0.213 N 
ATOM      7  H5  UNL     1       6.490  31.754  11.678  1.00  0.00     0.210 HD
HETATM    8  N6  UNL     1       7.889  33.264  11.262  1.00  0.00    -0.115 N 
ATOM      9  H6  UNL     1       7.781  33.875  12.071  1.00  0.00     0.207 HD
ENDROOT
BRANCH   1  10
HETATM   10  N2  UNL     1       9.582  34.466  10.086  1.00  0.00    -0.223 N 
ATOM     11  H2  UNL     1      10.463  34.335   9.589  1.00  0.00     0.177 HD
BRANCH  10  12
HETATM   12  C3  UNL     1       9.218  35.738  10.631  1.00  0.00     0.140 C 
BRANCH  12  13
HETATM   13  C2  UNL     1       7.912  36.263  10.132  1.00  0.00     0.047 C 
BRANCH  13  14
HETATM   14  C1  UNL     1       7.003  36.775  11.196  1.00  0.00     0.231 C 
BRANCH  14  15
HETATM   15  N1  UNL     1       5.905  37.471  10.528  1.00  0.00    -0.079 N 
ATOM     16  H13 UNL     1       5.726  37.122   9.586  1.00  0.00     0.274 HD
ATOM     17  H12 UNL     1       4.992  37.252  10.925  1.00  0.00     0.274 HD
ATOM     18  H11 UNL     1       6.122  38.468  10.550  1.00  0.00     0.274 HD
ENDBRANCH  14  15
ENDBRANCH  13  14
ENDBRANCH  12  13
ENDBRANCH  10  12
ENDBRANCH   1  10
TORSDOF 5
ENDMDL
MODEL 5
REMARK VINA RESULT: -3.554157108      1.496      4.536
REMARK  5 active torsions:
REMARK  status: ('A' for Active; 'I' for Inactive)
REMARK    1  A    between atoms: N1_1  and  C1_5 
REMARK    2  A    between atoms: C1_5  and  C2_6 
REMARK    3  A    between atoms: C2_6  and  C3_7 
REMARK    4  A    between atoms: C3_7  and  N2_8 
REMARK    5  A    between atoms: N2_8  and  C4_10 
ROOT
HETATM    1  C4  UNL     1       7.431  36.662  10.783  1.00  0.00     0.709 A 
HETATM    2  N3  UNL     1       6.327  36.907  11.543  1.00  0.00    -0.115 N 
ATOM      3  H3  UNL     1       6.163  36.579  12.494  1.00  0.00     0.207 HD
HETATM    4  N4  UNL     1       5.507  37.650  10.817  1.00  0.00    -0.213 N 
ATOM      5  H4  UNL     1       4.597  37.985  11.135  1.00  0.00     0.210 HD
HETATM    6  N5  UNL     1       6.016  37.896   9.640  1.00  0.00    -0.213 N 
ATOM      7  H5  UNL     1       5.592  38.443   8.891  1.00  0.00     0.210 HD
HETATM    8  N6  UNL     1       7.193  37.293   9.618  1.00  0.00    -0.115 N 
ATOM      9  H6  UNL     1       7.833  37.305   8.824  1.00  0.00     0.207 HD
ENDROOT
BRANCH   1  10
HETATM   10  N2  UNL     1       8.471  35.968  11.135  1.00  0.00    -0.223 N 
ATOM     11  H2  UNL     1       8.721  35.850  12.117  1.00  0.00     0.177 HD
BRANCH  10  12
HETATM   12  C3  UNL     1       9.251  35.374  10.092  1.00  0.00     0.140 C 
BRANCH  12  13
HETATM   13  C2  UNL     1       8.991  33.917   9.891  1.00  0.00     0.047 C 
BRANCH  13  14
HETATM   14  C1  UNL     1       8.515  33.199  11.107  1.00  0.00     0.231 C 
BRANCH  14  15
HETATM   15  N1  UNL     1       7.198  32.647  10.794  1.00  0.00    -0.079 N 
ATOM     16  H13 UNL     1       7.218  31.979  10.023  1.00  0.00     0.274 HD
ATOM     17  H12 UNL     1       6.851  32.010  11.510  1.00  0.00     0.274 HD
ATOM     18  H11 UNL     1       6.574  33.436  10.622  1.00  0.00     0.274 HD
ENDBRANCH  14  15
ENDBRANCH  13  14
ENDBRANCH  12  13
ENDBRANCH  10  12
ENDBRANCH   1  10
TORSDOF 5
ENDMDL
