MODEL 1
REMARK VINA RESULT: -8.585987595      0.000      0.000
REMARK  7 active torsions:
REMARK  status: ('A' for Active; 'I' for Inactive)
REMARK    1  A    between atoms: N1_1  and  C1_4 
REMARK    2  A    between atoms: N2_8  and  C4_9 
REMARK    3  A    between atoms: C4_9  and  C5_10 
REMARK    4  A    between atoms: C5_10  and  C6_11 
REMARK       I    between atoms: C6_11  and  N3_13 
REMARK    5  A    between atoms: N3_13  and  C7_15 
REMARK    6  A    between atoms: C7_15  and  C8_16 
REMARK    7  A    between atoms: C8_16  and  C9_17 
ROOT
HETATM    1  C6  UNL     1      51.696  51.613  20.982  1.00  0.00     0.219 C 
HETATM    2  O1  UNL     1      52.746  50.944  20.872  1.00  0.00    -0.274 OA
HETATM    3  N3  UNL     1      50.543  51.311  20.180  1.00  0.00    -0.361 N 
ATOM      4  H3  UNL     1      49.680  51.848  20.259  1.00  0.00     0.162 HD
ENDROOT
BRANCH   3   5
HETATM    5  C7  UNL     1      50.666  50.216  19.262  1.00  0.00     0.123 C 
BRANCH   5   6
HETATM    6  C8  UNL     1      49.691  49.121  19.350  1.00  0.00     0.029 C 
BRANCH   6   7
HETATM    7  C9  UNL     1      48.534  49.068  18.439  1.00  0.00    -0.038 C 
HETATM    8  C10 UNL     1      48.243  50.395  17.760  1.00  0.00     0.014 C 
HETATM    9  C11 UNL     1      47.132  50.163  16.765  1.00  0.00    -0.013 C 
HETATM   10  C12 UNL     1      45.857  49.671  17.381  1.00  0.00     0.009 C 
HETATM   11  C16 UNL     1      47.622  49.202  15.675  1.00  0.00     0.009 C 
HETATM   12  C13 UNL     1      46.156  48.344  18.053  1.00  0.00    -0.013 C 
HETATM   13  C14 UNL     1      46.572  47.351  17.027  1.00  0.00     0.009 C 
HETATM   14  C18 UNL     1      47.255  48.621  19.072  1.00  0.00     0.014 C 
HETATM   15  C15 UNL     1      47.822  47.875  16.333  1.00  0.00    -0.013 C 
HETATM   16  C17 UNL     1      48.907  48.020  17.364  1.00  0.00     0.014 C 
ENDBRANCH   6   7
ENDBRANCH   5   6
ENDBRANCH   3   5
BRANCH   1  17
HETATM   17  C5  UNL     1      51.660  52.723  21.955  1.00  0.00     0.123 C 
BRANCH  17  18
HETATM   18  C4  UNL     1      50.709  53.800  21.486  1.00  0.00     0.139 C 
BRANCH  18  19
HETATM   19  N2  UNL     1      51.534  55.023  21.322  1.00  0.00    -0.337 N 
HETATM   20  C1  UNL     1      52.081  55.286  20.142  1.00  0.00     0.144 A 
HETATM   21  S1  UNL     1      52.922  56.744  20.421  1.00  0.00    -0.065 SA
HETATM   22  C2  UNL     1      52.522  56.947  22.068  1.00  0.00     0.070 A 
HETATM   23  C3  UNL     1      51.742  55.848  22.311  1.00  0.00     0.100 A 
BRANCH  20  24
HETATM   24  N1  UNL     1      52.020  54.624  19.011  1.00  0.00    -0.379 N 
ATOM     25  H12 UNL     1      52.241  53.650  18.804  1.00  0.00     0.158 HD
ATOM     26  H11 UNL     1      51.724  54.993  18.107  1.00  0.00     0.158 HD
ENDBRANCH  20  24
ENDBRANCH  18  19
ENDBRANCH  17  18
ENDBRANCH   1  17
TORSDOF 7
ENDMDL
MODEL 2
REMARK VINA RESULT: -8.585456327      0.219      1.610
REMARK  7 active torsions:
REMARK  status: ('A' for Active; 'I' for Inactive)
REMARK    1  A    between atoms: N1_1  and  C1_4 
REMARK    2  A    between atoms: N2_8  and  C4_9 
REMARK    3  A    between atoms: C4_9  and  C5_10 
REMARK    4  A    between atoms: C5_10  and  C6_11 
REMARK       I    between atoms: C6_11  and  N3_13 
REMARK    5  A    between atoms: N3_13  and  C7_15 
REMARK    6  A    between atoms: C7_15  and  C8_16 
REMARK    7  A    between atoms: C8_16  and  C9_17 
ROOT
HETATM    1  C6  UNL     1      51.720  51.488  20.933  1.00  0.00     0.219 C 
HETATM    2  O1  UNL     1      52.795  50.865  20.793  1.00  0.00    -0.274 OA
HETATM    3  N3  UNL     1      50.559  51.138  20.162  1.00  0.00    -0.361 N 
ATOM      4  H3  UNL     1      49.676  51.637  20.266  1.00  0.00     0.162 HD
ENDROOT
BRANCH   3   5
HETATM    5  C7  UNL     1      50.704  50.050  19.239  1.00  0.00     0.123 C 
BRANCH   5   6
HETATM    6  C8  UNL     1      49.711  48.969  19.274  1.00  0.00     0.029 C 
BRANCH   6   7
HETATM    7  C9  UNL     1      48.647  48.890  18.257  1.00  0.00    -0.038 C 
HETATM    8  C10 UNL     1      48.833  47.740  17.282  1.00  0.00     0.014 C 
HETATM    9  C11 UNL     1      47.614  47.697  16.392  1.00  0.00    -0.013 C 
HETATM   10  C12 UNL     1      47.399  48.948  15.595  1.00  0.00     0.009 C 
HETATM   11  C16 UNL     1      46.380  47.368  17.241  1.00  0.00     0.009 C 
HETATM   12  C13 UNL     1      47.210  50.090  16.577  1.00  0.00    -0.013 C 
HETATM   13  C14 UNL     1      45.983  49.854  17.383  1.00  0.00     0.009 C 
HETATM   14  C18 UNL     1      48.470  50.126  17.434  1.00  0.00     0.014 C 
HETATM   15  C15 UNL     1      46.151  48.542  18.137  1.00  0.00    -0.013 C 
HETATM   16  C17 UNL     1      47.338  48.674  19.052  1.00  0.00     0.014 C 
ENDBRANCH   6   7
ENDBRANCH   5   6
ENDBRANCH   3   5
BRANCH   1  17
HETATM   17  C5  UNL     1      51.663  52.594  21.910  1.00  0.00     0.123 C 
BRANCH  17  18
HETATM   18  C4  UNL     1      50.691  53.654  21.445  1.00  0.00     0.139 C 
BRANCH  18  19
HETATM   19  N2  UNL     1      51.483  54.902  21.322  1.00  0.00    -0.337 N 
HETATM   20  C1  UNL     1      52.054  55.200  20.161  1.00  0.00     0.144 A 
HETATM   21  S1  UNL     1      52.845  56.677  20.485  1.00  0.00    -0.065 SA
HETATM   22  C2  UNL     1      52.395  56.842  22.124  1.00  0.00     0.070 A 
HETATM   23  C3  UNL     1      51.641  55.717  22.329  1.00  0.00     0.100 A 
BRANCH  20  24
HETATM   24  N1  UNL     1      52.043  54.555  19.020  1.00  0.00    -0.379 N 
ATOM     25  H12 UNL     1      52.235  53.575  18.813  1.00  0.00     0.158 HD
ATOM     26  H11 UNL     1      51.827  54.948  18.103  1.00  0.00     0.158 HD
ENDBRANCH  20  24
ENDBRANCH  18  19
ENDBRANCH  17  18
ENDBRANCH   1  17
TORSDOF 7
ENDMDL
MODEL 3
REMARK VINA RESULT: -8.573862875      0.631      1.300
REMARK  7 active torsions:
REMARK  status: ('A' for Active; 'I' for Inactive)
REMARK    1  A    between atoms: N1_1  and  C1_4 
REMARK    2  A    between atoms: N2_8  and  C4_9 
REMARK    3  A    between atoms: C4_9  and  C5_10 
REMARK    4  A    between atoms: C5_10  and  C6_11 
REMARK       I    between atoms: C6_11  and  N3_13 
REMARK    5  A    between atoms: N3_13  and  C7_15 
REMARK    6  A    between atoms: C7_15  and  C8_16 
REMARK    7  A    between atoms: C8_16  and  C9_17 
ROOT
HETATM    1  C6  UNL     1      51.760  51.551  20.807  1.00  0.00     0.219 C 
HETATM    2  O1  UNL     1      52.803  50.898  20.584  1.00  0.00    -0.274 OA
HETATM    3  N3  UNL     1      50.563  51.307  20.051  1.00  0.00    -0.361 N 
ATOM      4  H3  UNL     1      49.705  51.833  20.222  1.00  0.00     0.162 HD
ENDROOT
BRANCH   3   5
HETATM    5  C7  UNL     1      50.632  50.288  19.045  1.00  0.00     0.123 C 
BRANCH   5   6
HETATM    6  C8  UNL     1      49.738  49.130  19.163  1.00  0.00     0.029 C 
BRANCH   6   7
HETATM    7  C9  UNL     1      48.523  49.029  18.334  1.00  0.00    -0.038 C 
HETATM    8  C10 UNL     1      48.193  50.313  17.593  1.00  0.00     0.014 C 
HETATM    9  C11 UNL     1      47.018  50.027  16.689  1.00  0.00    -0.013 C 
HETATM   10  C12 UNL     1      45.785  49.585  17.417  1.00  0.00     0.009 C 
HETATM   11  C16 UNL     1      47.433  48.996  15.633  1.00  0.00     0.009 C 
HETATM   12  C13 UNL     1      46.122  48.300  18.151  1.00  0.00    -0.013 C 
HETATM   13  C14 UNL     1      46.467  47.241  17.165  1.00  0.00     0.009 C 
HETATM   14  C18 UNL     1      47.287  48.633  19.076  1.00  0.00     0.014 C 
HETATM   15  C15 UNL     1      47.671  47.711  16.359  1.00  0.00    -0.013 C 
HETATM   16  C17 UNL     1      48.822  47.912  17.306  1.00  0.00     0.014 C 
ENDBRANCH   6   7
ENDBRANCH   5   6
ENDBRANCH   3   5
BRANCH   1  17
HETATM   17  C5  UNL     1      51.780  52.581  21.865  1.00  0.00     0.123 C 
BRANCH  17  18
HETATM   18  C4  UNL     1      50.706  53.614  21.611  1.00  0.00     0.139 C 
BRANCH  18  19
HETATM   19  N2  UNL     1      51.422  54.852  21.216  1.00  0.00    -0.337 N 
HETATM   20  C1  UNL     1      51.822  55.701  22.154  1.00  0.00     0.144 A 
HETATM   21  S1  UNL     1      52.568  56.946  21.257  1.00  0.00    -0.065 SA
HETATM   22  C2  UNL     1      52.326  56.303  19.694  1.00  0.00     0.070 A 
HETATM   23  C3  UNL     1      51.665  55.134  19.965  1.00  0.00     0.100 A 
BRANCH  20  24
HETATM   24  N1  UNL     1      51.701  55.644  23.458  1.00  0.00    -0.379 N 
ATOM     25  H12 UNL     1      51.669  56.392  24.152  1.00  0.00     0.158 HD
ATOM     26  H11 UNL     1      51.612  54.799  24.023  1.00  0.00     0.158 HD
ENDBRANCH  20  24
ENDBRANCH  18  19
ENDBRANCH  17  18
ENDBRANCH   1  17
TORSDOF 7
ENDMDL
MODEL 4
REMARK VINA RESULT: -8.567684282      0.632      2.054
REMARK  7 active torsions:
REMARK  status: ('A' for Active; 'I' for Inactive)
REMARK    1  A    between atoms: N1_1  and  C1_4 
REMARK    2  A    between atoms: N2_8  and  C4_9 
REMARK    3  A    between atoms: C4_9  and  C5_10 
REMARK    4  A    between atoms: C5_10  and  C6_11 
REMARK       I    between atoms: C6_11  and  N3_13 
REMARK    5  A    between atoms: N3_13  and  C7_15 
REMARK    6  A    between atoms: C7_15  and  C8_16 
REMARK    7  A    between atoms: C8_16  and  C9_17 
ROOT
HETATM    1  C6  UNL     1      51.772  51.489  20.904  1.00  0.00     0.219 C 
HETATM    2  O1  UNL     1      52.812  50.815  20.737  1.00  0.00    -0.274 OA
HETATM    3  N3  UNL     1      50.585  51.211  20.144  1.00  0.00    -0.361 N 
ATOM      4  H3  UNL     1      49.730  51.754  20.269  1.00  0.00     0.162 HD
ENDROOT
BRANCH   3   5
HETATM    5  C7  UNL     1      50.660  50.133  19.202  1.00  0.00     0.123 C 
BRANCH   5   6
HETATM    6  C8  UNL     1      49.664  49.058  19.291  1.00  0.00     0.029 C 
BRANCH   6   7
HETATM    7  C9  UNL     1      48.606  48.924  18.273  1.00  0.00    -0.038 C 
HETATM    8  C10 UNL     1      48.852  47.786  17.298  1.00  0.00     0.014 C 
HETATM    9  C11 UNL     1      47.638  47.680  16.408  1.00  0.00    -0.013 C 
HETATM   10  C12 UNL     1      47.359  48.918  15.610  1.00  0.00     0.009 C 
HETATM   11  C16 UNL     1      46.422  47.288  17.255  1.00  0.00     0.009 C 
HETATM   12  C13 UNL     1      47.112  50.049  16.592  1.00  0.00    -0.013 C 
HETATM   13  C14 UNL     1      45.898  49.750  17.397  1.00  0.00     0.009 C 
HETATM   14  C18 UNL     1      48.367  50.149  17.450  1.00  0.00     0.014 C 
HETATM   15  C15 UNL     1      46.132  48.448  18.152  1.00  0.00    -0.013 C 
HETATM   16  C17 UNL     1      47.310  48.641  19.067  1.00  0.00     0.014 C 
ENDBRANCH   6   7
ENDBRANCH   5   6
ENDBRANCH   3   5
BRANCH   1  17
HETATM   17  C5  UNL     1      51.786  52.580  21.898  1.00  0.00     0.123 C 
BRANCH  17  18
HETATM   18  C4  UNL     1      50.674  53.563  21.614  1.00  0.00     0.139 C 
BRANCH  18  19
HETATM   19  N2  UNL     1      51.336  54.782  21.088  1.00  0.00    -0.337 N 
HETATM   20  C1  UNL     1      51.766  55.707  21.936  1.00  0.00     0.144 A 
HETATM   21  S1  UNL     1      52.432  56.896  20.910  1.00  0.00    -0.065 SA
HETATM   22  C2  UNL     1      52.121  56.132  19.415  1.00  0.00     0.070 A 
HETATM   23  C3  UNL     1      51.504  54.973  19.808  1.00  0.00     0.100 A 
BRANCH  20  24
HETATM   24  N1  UNL     1      51.717  55.746  23.246  1.00  0.00    -0.379 N 
ATOM     25  H12 UNL     1      51.245  55.130  23.908  1.00  0.00     0.158 HD
ATOM     26  H11 UNL     1      52.169  56.434  23.850  1.00  0.00     0.158 HD
ENDBRANCH  20  24
ENDBRANCH  18  19
ENDBRANCH  17  18
ENDBRANCH   1  17
TORSDOF 7
ENDMDL
MODEL 5
REMARK VINA RESULT: -8.565276654      1.284      2.295
REMARK  7 active torsions:
REMARK  status: ('A' for Active; 'I' for Inactive)
REMARK    1  A    between atoms: N1_1  and  C1_4 
REMARK    2  A    between atoms: N2_8  and  C4_9 
REMARK    3  A    between atoms: C4_9  and  C5_10 
REMARK    4  A    between atoms: C5_10  and  C6_11 
REMARK       I    between atoms: C6_11  and  N3_13 
REMARK    5  A    between atoms: N3_13  and  C7_15 
REMARK    6  A    between atoms: C7_15  and  C8_16 
REMARK    7  A    between atoms: C8_16  and  C9_17 
ROOT
HETATM    1  C6  UNL     1      51.342  51.882  21.070  1.00  0.00     0.219 C 
HETATM    2  O1  UNL     1      52.334  51.149  21.272  1.00  0.00    -0.274 OA
HETATM    3  N3  UNL     1      50.364  51.540  20.074  1.00  0.00    -0.361 N 
ATOM      4  H3  UNL     1      49.550  52.129  19.898  1.00  0.00     0.162 HD
ENDROOT
BRANCH   3   5
HETATM    5  C7  UNL     1      50.589  50.329  19.340  1.00  0.00     0.123 C 
BRANCH   5   6
HETATM    6  C8  UNL     1      49.588  49.260  19.436  1.00  0.00     0.029 C 
BRANCH   6   7
HETATM    7  C9  UNL     1      48.579  49.074  18.377  1.00  0.00    -0.038 C 
HETATM    8  C10 UNL     1      48.958  48.003  17.368  1.00  0.00     0.014 C 
HETATM    9  C11 UNL     1      47.787  47.827  16.432  1.00  0.00    -0.013 C 
HETATM   10  C12 UNL     1      47.423  49.067  15.673  1.00  0.00     0.009 C 
HETATM   11  C16 UNL     1      46.585  47.293  17.221  1.00  0.00     0.009 C 
HETATM   12  C13 UNL     1      47.043  50.130  16.688  1.00  0.00    -0.013 C 
HETATM   13  C14 UNL     1      45.836  49.690  17.438  1.00  0.00     0.009 C 
HETATM   14  C18 UNL     1      48.256  50.306  17.594  1.00  0.00     0.014 C 
HETATM   15  C15 UNL     1      46.164  48.384  18.150  1.00  0.00    -0.013 C 
HETATM   16  C17 UNL     1      47.289  48.644  19.114  1.00  0.00     0.014 C 
ENDBRANCH   6   7
ENDBRANCH   5   6
ENDBRANCH   3   5
BRANCH   1  17
HETATM   17  C5  UNL     1      51.191  53.111  21.875  1.00  0.00     0.123 C 
BRANCH  17  18
HETATM   18  C4  UNL     1      51.814  54.287  21.159  1.00  0.00     0.139 C 
BRANCH  18  19
HETATM   19  N2  UNL     1      50.770  55.339  21.126  1.00  0.00    -0.337 N 
HETATM   20  C1  UNL     1      50.930  56.439  21.851  1.00  0.00     0.144 A 
HETATM   21  S1  UNL     1      49.516  57.334  21.516  1.00  0.00    -0.065 SA
HETATM   22  C2  UNL     1      48.777  56.232  20.442  1.00  0.00     0.070 A 
HETATM   23  C3  UNL     1      49.690  55.211  20.405  1.00  0.00     0.100 A 
BRANCH  20  24
HETATM   24  N1  UNL     1      51.911  56.799  22.643  1.00  0.00    -0.379 N 
ATOM     25  H12 UNL     1      52.360  56.295  23.409  1.00  0.00     0.158 HD
ATOM     26  H11 UNL     1      52.415  57.686  22.622  1.00  0.00     0.158 HD
ENDBRANCH  20  24
ENDBRANCH  18  19
ENDBRANCH  17  18
ENDBRANCH   1  17
TORSDOF 7
ENDMDL
