MODEL 1
REMARK VINA RESULT: -7.868912304      0.000      0.000
REMARK  6 active torsions:
REMARK  status: ('A' for Active; 'I' for Inactive)
REMARK    1  A    between atoms: C2_2  and  C5_5 
REMARK    2  A    between atoms: C7_7  and  C8_8 
REMARK    3  A    between atoms: C9_11  and  C10_12 
REMARK    4  A    between atoms: C10_12  and  C11_13 
REMARK    5  A    between atoms: C12_14  and  C13_15 
REMARK    6  A    between atoms: C14_18  and  C15_19 
ROOT
HETATM    1  C5  UNL     1      49.488  51.953  17.706  1.00  0.00     0.130 C 
HETATM    2  C6  UNL     1      49.628  53.395  18.016  1.00  0.00     0.048 C 
HETATM    3  C7  UNL     1      50.979  53.671  18.639  1.00  0.00     0.096 C 
HETATM    4  C9  UNL     1      51.136  52.743  19.903  1.00  0.00     0.035 C 
HETATM    5  C14 UNL     1      50.800  51.405  19.450  1.00  0.00     0.163 C 
HETATM    6  O6  UNL     1      49.486  51.309  18.934  1.00  0.00    -0.376 OA
ENDROOT
BRANCH   4   7
HETATM    7  C10 UNL     1      50.444  53.497  20.962  1.00  0.00     0.035 C 
BRANCH   7   8
HETATM    8  C11 UNL     1      51.046  53.616  22.282  1.00  0.00    -0.019 C 
HETATM    9  C12 UNL     1      51.540  54.605  22.928  1.00  0.00     0.080 C 
BRANCH   9  10
HETATM   10  C13 UNL     1      51.648  55.966  22.508  1.00  0.00     0.198 C 
HETATM   11  O3  UNL     1      52.831  56.452  22.324  1.00  0.00    -0.645 OA
HETATM   12  O4  UNL     1      50.619  56.803  22.283  1.00  0.00    -0.645 OA
ENDBRANCH   9  10
ENDBRANCH   7   8
ENDBRANCH   4   7
BRANCH   3  13
HETATM   13  C8  UNL     1      50.981  55.088  18.952  1.00  0.00     0.177 C 
HETATM   14  O1  UNL     1      52.033  55.766  19.140  1.00  0.00    -0.648 OA
HETATM   15  O2  UNL     1      49.795  55.851  19.079  1.00  0.00    -0.648 OA
ENDBRANCH   3  13
BRANCH   5  16
HETATM   16  C15 UNL     1      51.098  50.114  20.001  1.00  0.00     0.105 A 
HETATM   17  C16 UNL     1      52.645  49.844  19.805  1.00  0.00     0.051 C 
HETATM   18  C17 UNL     1      50.424  48.861  20.098  1.00  0.00     0.209 A 
HETATM   19  O5  UNL     1      50.774  49.689  21.279  1.00  0.00    -0.373 OA
ENDBRANCH   5  16
BRANCH   1  20
HETATM   20  C2  UNL     1      48.251  51.693  16.895  1.00  0.00    -0.025 C 
HETATM   21  C1  UNL     1      47.639  52.985  16.451  1.00  0.00     0.017 C 
HETATM   22  C3  UNL     1      48.716  50.972  15.623  1.00  0.00     0.017 C 
HETATM   23  C4  UNL     1      47.222  50.842  17.546  1.00  0.00     0.017 C 
ENDBRANCH   1  20
TORSDOF 6
ENDMDL
MODEL 2
REMARK VINA RESULT: -7.690188565      2.376      5.140
REMARK  6 active torsions:
REMARK  status: ('A' for Active; 'I' for Inactive)
REMARK    1  A    between atoms: C2_2  and  C5_5 
REMARK    2  A    between atoms: C7_7  and  C8_8 
REMARK    3  A    between atoms: C9_11  and  C10_12 
REMARK    4  A    between atoms: C10_12  and  C11_13 
REMARK    5  A    between atoms: C12_14  and  C13_15 
REMARK    6  A    between atoms: C14_18  and  C15_19 
ROOT
HETATM    1  C5  UNL     1      49.507  56.930  19.836  1.00  0.00     0.130 C 
HETATM    2  C6  UNL     1      50.747  57.136  20.621  1.00  0.00     0.048 C 
HETATM    3  C7  UNL     1      51.913  56.433  19.962  1.00  0.00     0.096 C 
HETATM    4  C9  UNL     1      51.533  54.914  19.783  1.00  0.00     0.035 C 
HETATM    5  C14 UNL     1      50.225  54.909  19.152  1.00  0.00     0.163 C 
HETATM    6  O6  UNL     1      49.238  55.572  19.919  1.00  0.00    -0.376 OA
ENDROOT
BRANCH   4   7
HETATM    7  C10 UNL     1      51.864  54.328  21.094  1.00  0.00     0.035 C 
BRANCH   7   8
HETATM    8  C11 UNL     1      50.956  53.372  21.713  1.00  0.00    -0.019 C 
HETATM    9  C12 UNL     1      50.854  52.098  21.643  1.00  0.00     0.080 C 
BRANCH   9  10
HETATM   10  C13 UNL     1      51.655  51.190  20.886  1.00  0.00     0.198 C 
HETATM   11  O3  UNL     1      51.051  50.331  20.133  1.00  0.00    -0.645 OA
HETATM   12  O4  UNL     1      53.000  51.143  20.882  1.00  0.00    -0.645 OA
ENDBRANCH   9  10
ENDBRANCH   7   8
ENDBRANCH   4   7
BRANCH   3  13
HETATM   13  C8  UNL     1      53.046  56.651  20.841  1.00  0.00     0.177 C 
HETATM   14  O1  UNL     1      54.240  56.762  20.435  1.00  0.00    -0.648 OA
HETATM   15  O2  UNL     1      52.922  56.762  22.246  1.00  0.00    -0.648 OA
ENDBRANCH   3  13
BRANCH   5  16
HETATM   16  C15 UNL     1      49.529  53.891  18.418  1.00  0.00     0.105 A 
HETATM   17  C16 UNL     1      48.608  54.605  17.347  1.00  0.00     0.051 C 
HETATM   18  C17 UNL     1      48.978  52.610  18.714  1.00  0.00     0.209 A 
HETATM   19  O5  UNL     1      50.118  52.809  17.785  1.00  0.00    -0.373 OA
ENDBRANCH   5  16
BRANCH   1  20
HETATM   20  C2  UNL     1      48.391  57.791  20.351  1.00  0.00    -0.025 C 
HETATM   21  C1  UNL     1      47.146  56.979  20.530  1.00  0.00     0.017 C 
HETATM   22  C3  UNL     1      48.815  58.250  21.753  1.00  0.00     0.017 C 
HETATM   23  C4  UNL     1      48.093  59.006  19.549  1.00  0.00     0.017 C 
ENDBRANCH   1  20
TORSDOF 6
ENDMDL
MODEL 3
REMARK VINA RESULT: -7.601920576      0.880      1.123
REMARK  6 active torsions:
REMARK  status: ('A' for Active; 'I' for Inactive)
REMARK    1  A    between atoms: C2_2  and  C5_5 
REMARK    2  A    between atoms: C7_7  and  C8_8 
REMARK    3  A    between atoms: C9_11  and  C10_12 
REMARK    4  A    between atoms: C10_12  and  C11_13 
REMARK    5  A    between atoms: C12_14  and  C13_15 
REMARK    6  A    between atoms: C14_18  and  C15_19 
ROOT
HETATM    1  C5  UNL     1      49.273  51.868  17.769  1.00  0.00     0.130 C 
HETATM    2  C6  UNL     1      49.084  53.284  18.164  1.00  0.00     0.048 C 
HETATM    3  C7  UNL     1      50.403  53.896  18.583  1.00  0.00     0.096 C 
HETATM    4  C9  UNL     1      51.014  53.004  19.730  1.00  0.00     0.035 C 
HETATM    5  C14 UNL     1      50.967  51.640  19.233  1.00  0.00     0.163 C 
HETATM    6  O6  UNL     1      49.654  51.209  18.928  1.00  0.00    -0.376 OA
ENDROOT
BRANCH   4   7
HETATM    7  C10 UNL     1      50.346  53.509  20.941  1.00  0.00     0.035 C 
BRANCH   7   8
HETATM    8  C11 UNL     1      51.076  53.578  22.199  1.00  0.00    -0.019 C 
HETATM    9  C12 UNL     1      51.637  54.542  22.828  1.00  0.00     0.080 C 
BRANCH   9  10
HETATM   10  C13 UNL     1      51.712  55.917  22.448  1.00  0.00     0.198 C 
HETATM   11  O3  UNL     1      52.870  56.395  22.130  1.00  0.00    -0.645 OA
HETATM   12  O4  UNL     1      50.677  56.774  22.389  1.00  0.00    -0.645 OA
ENDBRANCH   9  10
ENDBRANCH   7   8
ENDBRANCH   4   7
BRANCH   3  13
HETATM   13  C8  UNL     1      50.089  55.249  19.001  1.00  0.00     0.177 C 
HETATM   14  O1  UNL     1      50.947  56.176  19.088  1.00  0.00    -0.648 OA
HETATM   15  O2  UNL     1      48.782  55.664  19.353  1.00  0.00    -0.648 OA
ENDBRANCH   3  13
BRANCH   5  16
HETATM   16  C15 UNL     1      51.683  50.461  19.628  1.00  0.00     0.105 A 
HETATM   17  C16 UNL     1      50.630  49.298  19.839  1.00  0.00     0.051 C 
HETATM   18  C17 UNL     1      52.839  50.179  20.414  1.00  0.00     0.209 A 
HETATM   19  O5  UNL     1      52.761  49.910  18.955  1.00  0.00    -0.373 OA
ENDBRANCH   5  16
BRANCH   1  20
HETATM   20  C2  UNL     1      48.025  51.310  17.149  1.00  0.00    -0.025 C 
HETATM   21  C1  UNL     1      46.942  52.343  17.138  1.00  0.00     0.017 C 
HETATM   22  C3  UNL     1      48.367  51.023  15.680  1.00  0.00     0.017 C 
HETATM   23  C4  UNL     1      47.518  50.048  17.748  1.00  0.00     0.017 C 
ENDBRANCH   1  20
TORSDOF 6
ENDMDL
MODEL 4
REMARK VINA RESULT: -7.596244395      1.881      4.043
REMARK  6 active torsions:
REMARK  status: ('A' for Active; 'I' for Inactive)
REMARK    1  A    between atoms: C2_2  and  C5_5 
REMARK    2  A    between atoms: C7_7  and  C8_8 
REMARK    3  A    between atoms: C9_11  and  C10_12 
REMARK    4  A    between atoms: C10_12  and  C11_13 
REMARK    5  A    between atoms: C12_14  and  C13_15 
REMARK    6  A    between atoms: C14_18  and  C15_19 
ROOT
HETATM    1  C5  UNL     1      48.743  52.806  18.410  1.00  0.00     0.130 C 
HETATM    2  C6  UNL     1      49.993  52.139  18.841  1.00  0.00     0.048 C 
HETATM    3  C7  UNL     1      50.374  52.584  20.237  1.00  0.00     0.096 C 
HETATM    4  C9  UNL     1      50.472  54.156  20.241  1.00  0.00     0.035 C 
HETATM    5  C14 UNL     1      49.238  54.628  19.636  1.00  0.00     0.163 C 
HETATM    6  O6  UNL     1      49.055  54.154  18.315  1.00  0.00    -0.376 OA
ENDROOT
BRANCH   4   7
HETATM    7  C10 UNL     1      51.834  54.410  19.742  1.00  0.00     0.035 C 
BRANCH   7   8
HETATM    8  C11 UNL     1      52.254  55.771  19.437  1.00  0.00    -0.019 C 
HETATM    9  C12 UNL     1      52.551  56.776  20.172  1.00  0.00     0.080 C 
BRANCH   9  10
HETATM   10  C13 UNL     1      52.554  56.854  21.598  1.00  0.00     0.198 C 
HETATM   11  O3  UNL     1      53.680  57.085  22.190  1.00  0.00    -0.645 OA
HETATM   12  O4  UNL     1      51.481  56.707  22.396  1.00  0.00    -0.645 OA
ENDBRANCH   9  10
ENDBRANCH   7   8
ENDBRANCH   4   7
BRANCH   3  13
HETATM   13  C8  UNL     1      51.631  51.920  20.527  1.00  0.00     0.177 C 
HETATM   14  O1  UNL     1      52.161  51.887  21.676  1.00  0.00    -0.648 OA
HETATM   15  O2  UNL     1      52.391  51.243  19.543  1.00  0.00    -0.648 OA
ENDBRANCH   3  13
BRANCH   5  16
HETATM   16  C15 UNL     1      48.582  55.902  19.687  1.00  0.00     0.105 A 
HETATM   17  C16 UNL     1      48.660  56.550  18.245  1.00  0.00     0.051 C 
HETATM   18  C17 UNL     1      48.444  56.945  20.650  1.00  0.00     0.209 A 
HETATM   19  O5  UNL     1      47.301  56.131  20.162  1.00  0.00    -0.373 OA
ENDBRANCH   5  16
BRANCH   1  20
HETATM   20  C2  UNL     1      48.234  52.221  17.125  1.00  0.00    -0.025 C 
HETATM   21  C1  UNL     1      47.016  51.387  17.379  1.00  0.00     0.017 C 
HETATM   22  C3  UNL     1      47.777  53.407  16.264  1.00  0.00     0.017 C 
HETATM   23  C4  UNL     1      49.224  51.445  16.335  1.00  0.00     0.017 C 
ENDBRANCH   1  20
TORSDOF 6
ENDMDL
MODEL 5
REMARK VINA RESULT: -7.532049047      1.907      4.111
REMARK  6 active torsions:
REMARK  status: ('A' for Active; 'I' for Inactive)
REMARK    1  A    between atoms: C2_2  and  C5_5 
REMARK    2  A    between atoms: C7_7  and  C8_8 
REMARK    3  A    between atoms: C9_11  and  C10_12 
REMARK    4  A    between atoms: C10_12  and  C11_13 
REMARK    5  A    between atoms: C12_14  and  C13_15 
REMARK    6  A    between atoms: C14_18  and  C15_19 
ROOT
HETATM    1  C5  UNL     1      48.643  53.019  18.349  1.00  0.00     0.130 C 
HETATM    2  C6  UNL     1      49.889  52.320  18.740  1.00  0.00     0.048 C 
HETATM    3  C7  UNL     1      50.293  52.709  20.146  1.00  0.00     0.096 C 
HETATM    4  C9  UNL     1      50.413  54.279  20.205  1.00  0.00     0.035 C 
HETATM    5  C14 UNL     1      49.180  54.789  19.633  1.00  0.00     0.163 C 
HETATM    6  O6  UNL     1      48.974  54.365  18.298  1.00  0.00    -0.376 OA
ENDROOT
BRANCH   4   7
HETATM    7  C10 UNL     1      51.773  54.532  19.698  1.00  0.00     0.035 C 
BRANCH   7   8
HETATM    8  C11 UNL     1      52.209  55.896  19.435  1.00  0.00    -0.019 C 
HETATM    9  C12 UNL     1      52.531  56.870  20.201  1.00  0.00     0.080 C 
BRANCH   9  10
HETATM   10  C13 UNL     1      52.557  56.897  21.629  1.00  0.00     0.198 C 
HETATM   11  O3  UNL     1      53.691  57.108  22.211  1.00  0.00    -0.645 OA
HETATM   12  O4  UNL     1      51.496  56.721  22.438  1.00  0.00    -0.645 OA
ENDBRANCH   9  10
ENDBRANCH   7   8
ENDBRANCH   4   7
BRANCH   3  13
HETATM   13  C8  UNL     1      51.544  52.018  20.397  1.00  0.00     0.177 C 
HETATM   14  O1  UNL     1      52.211  51.424  19.500  1.00  0.00    -0.648 OA
HETATM   15  O2  UNL     1      52.140  51.941  21.678  1.00  0.00    -0.648 OA
ENDBRANCH   3  13
BRANCH   5  16
HETATM   16  C15 UNL     1      48.543  56.070  19.737  1.00  0.00     0.105 A 
HETATM   17  C16 UNL     1      48.577  56.751  18.309  1.00  0.00     0.051 C 
HETATM   18  C17 UNL     1      48.452  57.090  20.728  1.00  0.00     0.209 A 
HETATM   19  O5  UNL     1      47.282  56.302  20.263  1.00  0.00    -0.373 OA
ENDBRANCH   5  16
BRANCH   1  20
HETATM   20  C2  UNL     1      48.111  52.488  17.050  1.00  0.00    -0.025 C 
HETATM   21  C1  UNL     1      49.130  51.611  16.390  1.00  0.00     0.017 C 
HETATM   22  C3  UNL     1      46.926  51.581  17.410  1.00  0.00     0.017 C 
HETATM   23  C4  UNL     1      47.622  53.509  16.088  1.00  0.00     0.017 C 
ENDBRANCH   1  20
TORSDOF 6
ENDMDL
