MODEL 1
REMARK VINA RESULT: -8.164300125      0.000      0.000
REMARK  6 active torsions:
REMARK  status: ('A' for Active; 'I' for Inactive)
REMARK    1  A    between atoms: C2_2  and  C3_3 
REMARK    2  A    between atoms: C3_3  and  N1_4 
REMARK    3  A    between atoms: C6_11  and  N3_12 
REMARK       I    between atoms: N3_12  and  C7_14 
REMARK    4  A    between atoms: C7_14  and  C8_16 
REMARK    5  A    between atoms: C8_16  and  C9_17 
REMARK    6  A    between atoms: C9_17  and  C10_18 
ROOT
HETATM    1  N1  UNL     1      49.908  48.785  18.651  1.00  0.00    -0.371 N 
ATOM      2  H1  UNL     1      50.291  47.929  19.053  1.00  0.00     0.161 HD
HETATM    3  C4  UNL     1      50.465  49.909  18.861  1.00  0.00     0.142 C 
HETATM    4  N2  UNL     1      50.011  51.154  18.347  1.00  0.00    -0.306 N 
ATOM      5  H2  UNL     1      49.395  51.145  17.534  1.00  0.00     0.171 HD
HETATM    6  C5  UNL     1      50.371  52.409  18.905  1.00  0.00     0.247 C 
HETATM    7  O1  UNL     1      49.966  53.438  18.298  1.00  0.00    -0.271 OA
HETATM    8  C6  UNL     1      51.177  52.470  20.134  1.00  0.00     0.186 C 
HETATM    9  C16 UNL     1      52.465  51.660  20.004  1.00  0.00     0.117 C 
HETATM   10  S1  UNL     1      51.949  49.917  19.892  1.00  0.00    -0.092 SA
ENDROOT
BRANCH   8  11
HETATM   11  N3  UNL     1      51.605  53.851  20.369  1.00  0.00    -0.347 N 
HETATM   12  C7  UNL     1      51.623  54.421  21.674  1.00  0.00     0.218 C 
HETATM   13  O2  UNL     1      51.250  53.670  22.623  1.00  0.00    -0.274 OA
ATOM     14  H3  UNL     1      51.898  54.420  19.576  1.00  0.00     0.163 HD
BRANCH  12  15
HETATM   15  C8  UNL     1      52.052  55.800  21.885  1.00  0.00     0.103 C 
BRANCH  15  16
HETATM   16  C9  UNL     1      50.980  56.797  22.150  1.00  0.00     0.014 C 
BRANCH  16  17
HETATM   17  C10 UNL     1      49.785  56.720  21.270  1.00  0.00    -0.014 C 
HETATM   18  C11 UNL     1      50.191  57.069  19.830  1.00  0.00     0.004 C 
HETATM   19  C12 UNL     1      48.939  56.779  18.995  1.00  0.00     0.000 C 
HETATM   20  C13 UNL     1      47.858  57.743  19.351  1.00  0.00     0.000 C 
HETATM   21  C14 UNL     1      47.591  57.850  20.818  1.00  0.00     0.000 C 
HETATM   22  C15 UNL     1      48.806  57.802  21.676  1.00  0.00     0.004 C 
ENDBRANCH  16  17
ENDBRANCH  15  16
ENDBRANCH  12  15
ENDBRANCH   8  11
BRANCH   1  23
HETATM   23  C3  UNL     1      48.719  48.753  17.828  1.00  0.00     0.121 C 
BRANCH  23  24
HETATM   24  C2  UNL     1      47.454  48.824  18.680  1.00  0.00     0.015 C 
HETATM   25  C1  UNL     1      46.269  49.217  17.859  1.00  0.00     0.006 C 
ENDBRANCH  23  24
ENDBRANCH   1  23
TORSDOF 6
ENDMDL
MODEL 2
REMARK VINA RESULT: -7.909454217      2.455      7.706
REMARK  6 active torsions:
REMARK  status: ('A' for Active; 'I' for Inactive)
REMARK    1  A    between atoms: C2_2  and  C3_3 
REMARK    2  A    between atoms: C3_3  and  N1_4 
REMARK    3  A    between atoms: C6_11  and  N3_12 
REMARK       I    between atoms: N3_12  and  C7_14 
REMARK    4  A    between atoms: C7_14  and  C8_16 
REMARK    5  A    between atoms: C8_16  and  C9_17 
REMARK    6  A    between atoms: C9_17  and  C10_18 
ROOT
HETATM    1  N1  UNL     1      52.062  54.035  21.000  1.00  0.00    -0.371 N 
ATOM      2  H1  UNL     1      52.610  54.830  20.671  1.00  0.00     0.161 HD
HETATM    3  C4  UNL     1      51.893  53.011  20.266  1.00  0.00     0.142 C 
HETATM    4  N2  UNL     1      51.149  51.856  20.632  1.00  0.00    -0.306 N 
ATOM      5  H2  UNL     1      50.981  51.684  21.623  1.00  0.00     0.171 HD
HETATM    6  C5  UNL     1      50.627  50.930  19.691  1.00  0.00     0.247 C 
HETATM    7  O1  UNL     1      50.059  49.906  20.158  1.00  0.00    -0.271 OA
HETATM    8  C6  UNL     1      50.758  51.186  18.248  1.00  0.00     0.186 C 
HETATM    9  C16 UNL     1      52.210  51.447  17.852  1.00  0.00     0.117 C 
HETATM   10  S1  UNL     1      52.663  53.029  18.632  1.00  0.00    -0.092 SA
ENDROOT
BRANCH   8  11
HETATM   11  N3  UNL     1      50.356  49.992  17.502  1.00  0.00    -0.347 N 
HETATM   12  C7  UNL     1      49.524  50.069  16.349  1.00  0.00     0.218 C 
HETATM   13  O2  UNL     1      49.150  51.228  16.001  1.00  0.00    -0.274 OA
ATOM     14  H3  UNL     1      50.682  49.078  17.818  1.00  0.00     0.163 HD
BRANCH  12  15
HETATM   15  C8  UNL     1      49.136  48.865  15.621  1.00  0.00     0.103 C 
BRANCH  15  16
HETATM   16  C9  UNL     1      48.796  47.672  16.443  1.00  0.00     0.014 C 
BRANCH  16  17
HETATM   17  C10 UNL     1      47.363  47.513  16.801  1.00  0.00    -0.014 C 
HETATM   18  C11 UNL     1      46.501  48.325  15.823  1.00  0.00     0.004 C 
HETATM   19  C12 UNL     1      45.058  47.941  16.170  1.00  0.00     0.000 C 
HETATM   20  C13 UNL     1      44.711  48.450  17.529  1.00  0.00     0.000 C 
HETATM   21  C14 UNL     1      45.700  48.090  18.589  1.00  0.00     0.000 C 
HETATM   22  C15 UNL     1      47.123  48.145  18.156  1.00  0.00     0.004 C 
ENDBRANCH  16  17
ENDBRANCH  15  16
ENDBRANCH  12  15
ENDBRANCH   8  11
BRANCH   1  23
HETATM   23  C3  UNL     1      51.455  54.044  22.314  1.00  0.00     0.121 C 
BRANCH  23  24
HETATM   24  C2  UNL     1      51.647  55.394  23.003  1.00  0.00     0.015 C 
HETATM   25  C1  UNL     1      51.139  56.512  22.153  1.00  0.00     0.006 C 
ENDBRANCH  23  24
ENDBRANCH   1  23
TORSDOF 6
ENDMDL
MODEL 3
REMARK VINA RESULT: -7.814606318      1.338      1.725
REMARK  6 active torsions:
REMARK  status: ('A' for Active; 'I' for Inactive)
REMARK    1  A    between atoms: C2_2  and  C3_3 
REMARK    2  A    between atoms: C3_3  and  N1_4 
REMARK    3  A    between atoms: C6_11  and  N3_12 
REMARK       I    between atoms: N3_12  and  C7_14 
REMARK    4  A    between atoms: C7_14  and  C8_16 
REMARK    5  A    between atoms: C8_16  and  C9_17 
REMARK    6  A    between atoms: C9_17  and  C10_18 
ROOT
HETATM    1  N1  UNL     1      47.605  48.815  17.733  1.00  0.00    -0.371 N 
ATOM      2  H1  UNL     1      47.679  47.854  18.067  1.00  0.00     0.161 HD
HETATM    3  C4  UNL     1      48.492  49.677  18.026  1.00  0.00     0.142 C 
HETATM    4  N2  UNL     1      48.480  51.037  17.611  1.00  0.00    -0.306 N 
ATOM      5  H2  UNL     1      47.912  51.289  16.803  1.00  0.00     0.171 HD
HETATM    6  C5  UNL     1      49.217  52.061  18.263  1.00  0.00     0.247 C 
HETATM    7  O1  UNL     1      49.182  53.207  17.738  1.00  0.00    -0.271 OA
HETATM    8  C6  UNL     1      49.973  51.764  19.489  1.00  0.00     0.186 C 
HETATM    9  C16 UNL     1      50.929  50.590  19.292  1.00  0.00     0.117 C 
HETATM   10  S1  UNL     1      49.876  49.125  19.049  1.00  0.00    -0.092 SA
ENDROOT
BRANCH   8  11
HETATM   11  N3  UNL     1      50.821  52.909  19.828  1.00  0.00    -0.347 N 
HETATM   12  C7  UNL     1      51.018  53.327  21.175  1.00  0.00     0.218 C 
HETATM   13  O2  UNL     1      50.421  52.655  22.067  1.00  0.00    -0.274 OA
ATOM     14  H3  UNL     1      51.285  53.421  19.077  1.00  0.00     0.163 HD
BRANCH  12  15
HETATM   15  C8  UNL     1      51.868  54.471  21.490  1.00  0.00     0.103 C 
BRANCH  15  16
HETATM   16  C9  UNL     1      51.484  55.773  20.879  1.00  0.00     0.014 C 
BRANCH  16  17
HETATM   17  C10 UNL     1      50.085  56.216  21.114  1.00  0.00    -0.014 C 
HETATM   18  C11 UNL     1      49.340  56.280  19.772  1.00  0.00     0.004 C 
HETATM   19  C12 UNL     1      47.882  56.562  20.154  1.00  0.00     0.000 C 
HETATM   20  C13 UNL     1      47.768  57.929  20.742  1.00  0.00     0.000 C 
HETATM   21  C14 UNL     1      48.741  58.206  21.841  1.00  0.00     0.000 C 
HETATM   22  C15 UNL     1      50.102  57.641  21.624  1.00  0.00     0.004 C 
ENDBRANCH  16  17
ENDBRANCH  15  16
ENDBRANCH  12  15
ENDBRANCH   8  11
BRANCH   1  23
HETATM   23  C3  UNL     1      46.488  49.233  16.914  1.00  0.00     0.121 C 
BRANCH  23  24
HETATM   24  C2  UNL     1      45.156  48.866  17.566  1.00  0.00     0.015 C 
HETATM   25  C1  UNL     1      45.329  47.779  18.577  1.00  0.00     0.006 C 
ENDBRANCH  23  24
ENDBRANCH   1  23
TORSDOF 6
ENDMDL
MODEL 4
REMARK VINA RESULT: -7.788479038      1.778      2.368
REMARK  6 active torsions:
REMARK  status: ('A' for Active; 'I' for Inactive)
REMARK    1  A    between atoms: C2_2  and  C3_3 
REMARK    2  A    between atoms: C3_3  and  N1_4 
REMARK    3  A    between atoms: C6_11  and  N3_12 
REMARK       I    between atoms: N3_12  and  C7_14 
REMARK    4  A    between atoms: C7_14  and  C8_16 
REMARK    5  A    between atoms: C8_16  and  C9_17 
REMARK    6  A    between atoms: C9_17  and  C10_18 
ROOT
HETATM    1  N1  UNL     1      46.933  48.907  18.051  1.00  0.00    -0.371 N 
ATOM      2  H1  UNL     1      47.120  47.990  18.458  1.00  0.00     0.161 HD
HETATM    3  C4  UNL     1      47.861  49.768  17.932  1.00  0.00     0.142 C 
HETATM    4  N2  UNL     1      47.704  51.068  17.380  1.00  0.00    -0.306 N 
ATOM      5  H2  UNL     1      46.901  51.243  16.776  1.00  0.00     0.171 HD
HETATM    6  C5  UNL     1      48.606  52.137  17.626  1.00  0.00     0.247 C 
HETATM    7  O1  UNL     1      48.393  53.214  17.005  1.00  0.00    -0.271 OA
HETATM    8  C6  UNL     1      49.724  51.962  18.567  1.00  0.00     0.186 C 
HETATM    9  C16 UNL     1      50.571  50.742  18.214  1.00  0.00     0.117 C 
HETATM   10  S1  UNL     1      49.508  49.294  18.508  1.00  0.00    -0.092 SA
ENDROOT
BRANCH   8  11
HETATM   11  N3  UNL     1      50.628  53.110  18.468  1.00  0.00    -0.347 N 
HETATM   12  C7  UNL     1      51.271  53.662  19.613  1.00  0.00     0.218 C 
HETATM   13  O2  UNL     1      51.021  53.106  20.723  1.00  0.00    -0.274 OA
ATOM     14  H3  UNL     1      50.802  53.526  17.553  1.00  0.00     0.163 HD
BRANCH  12  15
HETATM   15  C8  UNL     1      52.169  54.807  19.491  1.00  0.00     0.103 C 
BRANCH  15  16
HETATM   16  C9  UNL     1      51.528  56.144  19.366  1.00  0.00     0.014 C 
BRANCH  16  17
HETATM   17  C10 UNL     1      50.289  56.350  20.160  1.00  0.00    -0.014 C 
HETATM   18  C11 UNL     1      49.113  56.612  19.209  1.00  0.00     0.004 C 
HETATM   19  C12 UNL     1      47.877  56.624  20.117  1.00  0.00     0.000 C 
HETATM   20  C13 UNL     1      47.928  57.805  21.026  1.00  0.00     0.000 C 
HETATM   21  C14 UNL     1      49.219  57.955  21.764  1.00  0.00     0.000 C 
HETATM   22  C15 UNL     1      50.433  57.622  20.969  1.00  0.00     0.004 C 
ENDBRANCH  16  17
ENDBRANCH  15  16
ENDBRANCH  12  15
ENDBRANCH   8  11
BRANCH   1  23
HETATM   23  C3  UNL     1      45.607  49.263  17.596  1.00  0.00     0.121 C 
BRANCH  23  24
HETATM   24  C2  UNL     1      44.611  48.135  17.860  1.00  0.00     0.015 C 
HETATM   25  C1  UNL     1      44.975  47.367  19.089  1.00  0.00     0.006 C 
ENDBRANCH  23  24
ENDBRANCH   1  23
TORSDOF 6
ENDMDL
MODEL 5
REMARK VINA RESULT: -7.703399994      2.721      7.785
REMARK  6 active torsions:
REMARK  status: ('A' for Active; 'I' for Inactive)
REMARK    1  A    between atoms: C2_2  and  C3_3 
REMARK    2  A    between atoms: C3_3  and  N1_4 
REMARK    3  A    between atoms: C6_11  and  N3_12 
REMARK       I    between atoms: N3_12  and  C7_14 
REMARK    4  A    between atoms: C7_14  and  C8_16 
REMARK    5  A    between atoms: C8_16  and  C9_17 
REMARK    6  A    between atoms: C9_17  and  C10_18 
ROOT
HETATM    1  N1  UNL     1      51.966  56.938  20.512  1.00  0.00    -0.371 N 
ATOM      2  H1  UNL     1      51.379  57.606  21.012  1.00  0.00     0.161 HD
HETATM    3  C4  UNL     1      51.453  55.947  19.904  1.00  0.00     0.142 C 
HETATM    4  N2  UNL     1      52.183  54.964  19.181  1.00  0.00    -0.306 N 
ATOM      5  H2  UNL     1      53.125  55.197  18.866  1.00  0.00     0.171 HD
HETATM    6  C5  UNL     1      51.670  53.676  18.873  1.00  0.00     0.247 C 
HETATM    7  O1  UNL     1      52.392  52.935  18.152  1.00  0.00    -0.271 OA
HETATM    8  C6  UNL     1      50.356  53.260  19.387  1.00  0.00     0.186 C 
HETATM    9  C16 UNL     1      49.265  54.266  19.029  1.00  0.00     0.117 C 
HETATM   10  S1  UNL     1      49.655  55.778  19.966  1.00  0.00    -0.092 SA
ENDROOT
BRANCH   8  11
HETATM   11  N3  UNL     1      49.958  52.004  18.747  1.00  0.00    -0.347 N 
HETATM   12  C7  UNL     1      50.146  50.743  19.381  1.00  0.00     0.218 C 
HETATM   13  O2  UNL     1      50.676  50.763  20.530  1.00  0.00    -0.274 OA
ATOM     14  H3  UNL     1      49.533  52.035  17.820  1.00  0.00     0.163 HD
BRANCH  12  15
HETATM   15  C8  UNL     1      49.741  49.504  18.723  1.00  0.00     0.103 C 
BRANCH  15  16
HETATM   16  C9  UNL     1      48.394  48.976  19.072  1.00  0.00     0.014 C 
BRANCH  16  17
HETATM   17  C10 UNL     1      47.318  49.225  18.078  1.00  0.00    -0.014 C 
HETATM   18  C11 UNL     1      46.091  48.373  18.434  1.00  0.00     0.004 C 
HETATM   19  C12 UNL     1      45.000  48.846  17.466  1.00  0.00     0.000 C 
HETATM   20  C13 UNL     1      45.362  48.465  16.069  1.00  0.00     0.000 C 
HETATM   21  C14 UNL     1      46.742  48.867  15.663  1.00  0.00     0.000 C 
HETATM   22  C15 UNL     1      47.773  48.716  16.726  1.00  0.00     0.004 C 
ENDBRANCH  16  17
ENDBRANCH  15  16
ENDBRANCH  12  15
ENDBRANCH   8  11
BRANCH   1  23
HETATM   23  C3  UNL     1      53.404  57.095  20.475  1.00  0.00     0.121 C 
BRANCH  23  24
HETATM   24  C2  UNL     1      53.902  57.906  21.670  1.00  0.00     0.015 C 
HETATM   25  C1  UNL     1      52.967  59.027  21.992  1.00  0.00     0.006 C 
ENDBRANCH  23  24
ENDBRANCH   1  23
TORSDOF 6
ENDMDL
