MODEL 1
REMARK VINA RESULT: -7.683490804      0.000      0.000
REMARK  6 active torsions:
REMARK  status: ('A' for Active; 'I' for Inactive)
REMARK    1  A    between atoms: C2_2  and  C3_3 
REMARK    2  A    between atoms: C3_3  and  C4_4 
REMARK    3  A    between atoms: C5_5  and  C6_6 
REMARK    4  A    between atoms: C6_6  and  C8_8 
REMARK    5  A    between atoms: C11_13  and  O1_14 
REMARK    6  A    between atoms: O1_14  and  S1_15 
ROOT
HETATM    1  C8  UNL     1      51.007  52.297  19.448  1.00  0.00     0.103 C 
HETATM    2  N1  UNL     1      51.561  53.229  18.456  1.00  0.00    -0.386 N 
ATOM      3  H1  UNL     1      51.732  53.229  17.450  1.00  0.00     0.160 HD
HETATM    4  C9  UNL     1      51.748  54.123  19.528  1.00  0.00     0.014 C 
HETATM    5  C10 UNL     1      52.443  55.093  20.054  1.00  0.00     0.032 C 
HETATM    6  C11 UNL     1      51.971  55.590  21.393  1.00  0.00     0.169 C 
HETATM    7  C12 UNL     1      51.572  54.456  22.294  1.00  0.00     0.039 C 
HETATM    8  C13 UNL     1      50.663  53.453  21.665  1.00  0.00     0.020 C 
HETATM    9  C14 UNL     1      50.569  53.530  20.178  1.00  0.00     0.019 C 
HETATM   10  C15 UNL     1      49.278  54.149  19.693  1.00  0.00     0.024 C 
ENDROOT
BRANCH   1  11
HETATM   11  C6  UNL     1      49.909  51.412  18.922  1.00  0.00     0.027 C 
HETATM   12  C7  UNL     1      50.340  49.983  19.306  1.00  0.00     0.016 C 
BRANCH  11  13
HETATM   13  C5  UNL     1      49.923  51.441  17.436  1.00  0.00    -0.024 C 
HETATM   14  C4  UNL     1      48.821  51.441  16.717  1.00  0.00    -0.030 C 
BRANCH  14  15
HETATM   15  C3  UNL     1      47.438  51.414  17.241  1.00  0.00     0.026 C 
BRANCH  15  16
HETATM   16  C2  UNL     1      46.775  50.068  16.926  1.00  0.00    -0.001 C 
HETATM   17  C1  UNL     1      46.910  49.189  18.159  1.00  0.00     0.005 C 
ENDBRANCH  15  16
ENDBRANCH  14  15
ENDBRANCH  11  13
ENDBRANCH   1  11
BRANCH   6  18
HETATM   18  O1  UNL     1      52.990  56.324  21.958  1.00  0.00    -0.247 OA
BRANCH  18  19
HETATM   19  S1  UNL     1      53.084  57.822  21.248  1.00  0.00     0.252 S 
HETATM   20  O2  UNL     1      53.382  58.826  22.333  1.00  0.00    -0.572 OA
HETATM   21  O3  UNL     1      51.754  58.189  20.621  1.00  0.00    -0.572 OA
HETATM   22  O4  UNL     1      54.311  57.923  20.115  1.00  0.00    -0.572 OA
ENDBRANCH  18  19
ENDBRANCH   6  18
TORSDOF 6
ENDMDL
MODEL 2
REMARK VINA RESULT: -7.437785156      1.278      2.179
REMARK  6 active torsions:
REMARK  status: ('A' for Active; 'I' for Inactive)
REMARK    1  A    between atoms: C2_2  and  C3_3 
REMARK    2  A    between atoms: C3_3  and  C4_4 
REMARK    3  A    between atoms: C5_5  and  C6_6 
REMARK    4  A    between atoms: C6_6  and  C8_8 
REMARK    5  A    between atoms: C11_13  and  O1_14 
REMARK    6  A    between atoms: O1_14  and  S1_15 
ROOT
HETATM    1  C8  UNL     1      49.786  52.970  18.215  1.00  0.00     0.103 C 
HETATM    2  N1  UNL     1      48.751  53.838  18.793  1.00  0.00    -0.386 N 
ATOM      3  H1  UNL     1      47.731  53.864  18.818  1.00  0.00     0.160 HD
HETATM    4  C9  UNL     1      49.810  54.619  19.297  1.00  0.00     0.014 C 
HETATM    5  C10 UNL     1      50.251  55.796  19.647  1.00  0.00     0.032 C 
HETATM    6  C11 UNL     1      51.664  55.843  20.158  1.00  0.00     0.169 C 
HETATM    7  C12 UNL     1      52.577  54.977  19.337  1.00  0.00     0.039 C 
HETATM    8  C13 UNL     1      52.068  53.595  19.091  1.00  0.00     0.020 C 
HETATM    9  C14 UNL     1      50.619  53.394  19.385  1.00  0.00     0.019 C 
HETATM   10  C15 UNL     1      50.370  52.636  20.669  1.00  0.00     0.024 C 
ENDROOT
BRANCH   1  11
HETATM   11  C6  UNL     1      49.412  51.513  18.158  1.00  0.00     0.027 C 
HETATM   12  C7  UNL     1      50.514  50.859  17.301  1.00  0.00     0.016 C 
BRANCH  11  13
HETATM   13  C5  UNL     1      48.159  51.357  17.374  1.00  0.00    -0.024 C 
HETATM   14  C4  UNL     1      47.348  50.333  17.532  1.00  0.00    -0.030 C 
BRANCH  14  15
HETATM   15  C3  UNL     1      47.535  49.210  18.476  1.00  0.00     0.026 C 
BRANCH  15  16
HETATM   16  C2  UNL     1      46.289  48.318  18.497  1.00  0.00    -0.001 C 
HETATM   17  C1  UNL     1      45.234  48.981  17.627  1.00  0.00     0.005 C 
ENDBRANCH  15  16
ENDBRANCH  14  15
ENDBRANCH  11  13
ENDBRANCH   1  11
BRANCH   6  18
HETATM   18  O1  UNL     1      52.084  57.154  20.129  1.00  0.00    -0.247 OA
BRANCH  18  19
HETATM   19  S1  UNL     1      53.115  57.456  21.395  1.00  0.00     0.252 S 
HETATM   20  O2  UNL     1      54.522  57.212  20.909  1.00  0.00    -0.572 OA
HETATM   21  O3  UNL     1      52.838  56.498  22.535  1.00  0.00    -0.572 OA
HETATM   22  O4  UNL     1      53.033  59.040  21.930  1.00  0.00    -0.572 OA
ENDBRANCH  18  19
ENDBRANCH   6  18
TORSDOF 6
ENDMDL
MODEL 3
REMARK VINA RESULT: -7.417126597      4.292      6.139
REMARK  6 active torsions:
REMARK  status: ('A' for Active; 'I' for Inactive)
REMARK    1  A    between atoms: C2_2  and  C3_3 
REMARK    2  A    between atoms: C3_3  and  C4_4 
REMARK    3  A    between atoms: C5_5  and  C6_6 
REMARK    4  A    between atoms: C6_6  and  C8_8 
REMARK    5  A    between atoms: C11_13  and  O1_14 
REMARK    6  A    between atoms: O1_14  and  S1_15 
ROOT
HETATM    1  C8  UNL     1      49.193  55.857  20.853  1.00  0.00     0.103 C 
HETATM    2  N1  UNL     1      48.720  55.047  19.723  1.00  0.00    -0.386 N 
ATOM      3  H1  UNL     1      47.983  55.111  19.019  1.00  0.00     0.160 HD
HETATM    4  C9  UNL     1      49.748  54.143  20.053  1.00  0.00     0.014 C 
HETATM    5  C10 UNL     1      50.174  52.910  20.080  1.00  0.00     0.032 C 
HETATM    6  C11 UNL     1      51.550  52.702  20.649  1.00  0.00     0.169 C 
HETATM    7  C12 UNL     1      51.772  53.538  21.877  1.00  0.00     0.039 C 
HETATM    8  C13 UNL     1      51.388  54.973  21.730  1.00  0.00     0.020 C 
HETATM    9  C14 UNL     1      50.540  55.282  20.541  1.00  0.00     0.019 C 
HETATM   10  C15 UNL     1      51.299  55.969  19.429  1.00  0.00     0.024 C 
ENDROOT
BRANCH   1  11
HETATM   11  C6  UNL     1      49.043  57.343  20.657  1.00  0.00     0.027 C 
HETATM   12  C7  UNL     1      49.503  57.962  21.991  1.00  0.00     0.016 C 
BRANCH  11  13
HETATM   13  C5  UNL     1      47.600  57.681  20.542  1.00  0.00    -0.024 C 
HETATM   14  C4  UNL     1      47.116  58.387  19.543  1.00  0.00    -0.030 C 
BRANCH  14  15
HETATM   15  C3  UNL     1      47.891  58.942  18.412  1.00  0.00     0.026 C 
BRANCH  15  16
HETATM   16  C2  UNL     1      47.365  58.386  17.083  1.00  0.00    -0.001 C 
HETATM   17  C1  UNL     1      48.100  57.086  16.805  1.00  0.00     0.005 C 
ENDBRANCH  15  16
ENDBRANCH  14  15
ENDBRANCH  11  13
ENDBRANCH   1  11
BRANCH   6  18
HETATM   18  O1  UNL     1      51.692  51.364  20.941  1.00  0.00    -0.247 OA
BRANCH  18  19
HETATM   19  S1  UNL     1      52.228  50.537  19.604  1.00  0.00     0.252 S 
HETATM   20  O2  UNL     1      51.076  49.715  19.082  1.00  0.00    -0.572 OA
HETATM   21  O3  UNL     1      53.345  49.589  19.988  1.00  0.00    -0.572 OA
HETATM   22  O4  UNL     1      52.722  51.554  18.370  1.00  0.00    -0.572 OA
ENDBRANCH  18  19
ENDBRANCH   6  18
TORSDOF 6
ENDMDL
MODEL 4
REMARK VINA RESULT: -7.397364171      4.611      6.602
REMARK  6 active torsions:
REMARK  status: ('A' for Active; 'I' for Inactive)
REMARK    1  A    between atoms: C2_2  and  C3_3 
REMARK    2  A    between atoms: C3_3  and  C4_4 
REMARK    3  A    between atoms: C5_5  and  C6_6 
REMARK    4  A    between atoms: C6_6  and  C8_8 
REMARK    5  A    between atoms: C11_13  and  O1_14 
REMARK    6  A    between atoms: O1_14  and  S1_15 
ROOT
HETATM    1  C8  UNL     1      49.149  55.909  20.835  1.00  0.00     0.103 C 
HETATM    2  N1  UNL     1      48.699  55.092  19.700  1.00  0.00    -0.386 N 
ATOM      3  H1  UNL     1      47.978  55.152  18.981  1.00  0.00     0.160 HD
HETATM    4  C9  UNL     1      49.720  54.189  20.057  1.00  0.00     0.014 C 
HETATM    5  C10 UNL     1      50.145  52.956  20.100  1.00  0.00     0.032 C 
HETATM    6  C11 UNL     1      51.508  52.751  20.699  1.00  0.00     0.169 C 
HETATM    7  C12 UNL     1      51.705  53.595  21.927  1.00  0.00     0.039 C 
HETATM    8  C13 UNL     1      51.325  55.029  21.763  1.00  0.00     0.020 C 
HETATM    9  C14 UNL     1      50.503  55.331  20.555  1.00  0.00     0.019 C 
HETATM   10  C15 UNL     1      51.285  56.010  19.455  1.00  0.00     0.024 C 
ENDROOT
BRANCH   1  11
HETATM   11  C6  UNL     1      49.005  57.393  20.627  1.00  0.00     0.027 C 
HETATM   12  C7  UNL     1      49.409  58.019  21.976  1.00  0.00     0.016 C 
BRANCH  11  13
HETATM   13  C5  UNL     1      47.567  57.728  20.452  1.00  0.00    -0.024 C 
HETATM   14  C4  UNL     1      47.141  58.557  19.524  1.00  0.00    -0.030 C 
BRANCH  14  15
HETATM   15  C3  UNL     1      47.982  59.267  18.537  1.00  0.00     0.026 C 
BRANCH  15  16
HETATM   16  C2  UNL     1      47.519  60.722  18.391  1.00  0.00    -0.001 C 
HETATM   17  C1  UNL     1      46.022  60.756  18.650  1.00  0.00     0.005 C 
ENDBRANCH  15  16
ENDBRANCH  14  15
ENDBRANCH  11  13
ENDBRANCH   1  11
BRANCH   6  18
HETATM   18  O1  UNL     1      51.644  51.415  21.002  1.00  0.00    -0.247 OA
BRANCH  18  19
HETATM   19  S1  UNL     1      52.145  50.569  19.663  1.00  0.00     0.252 S 
HETATM   20  O2  UNL     1      51.005  49.681  19.230  1.00  0.00    -0.572 OA
HETATM   21  O3  UNL     1      53.322  49.684  20.015  1.00  0.00    -0.572 OA
HETATM   22  O4  UNL     1      52.526  51.566  18.375  1.00  0.00    -0.572 OA
ENDBRANCH  18  19
ENDBRANCH   6  18
TORSDOF 6
ENDMDL
MODEL 5
REMARK VINA RESULT: -7.390181135      1.085      1.255
REMARK  6 active torsions:
REMARK  status: ('A' for Active; 'I' for Inactive)
REMARK    1  A    between atoms: C2_2  and  C3_3 
REMARK    2  A    between atoms: C3_3  and  C4_4 
REMARK    3  A    between atoms: C5_5  and  C6_6 
REMARK    4  A    between atoms: C6_6  and  C8_8 
REMARK    5  A    between atoms: C11_13  and  O1_14 
REMARK    6  A    between atoms: O1_14  and  S1_15 
ROOT
HETATM    1  C8  UNL     1      50.619  51.337  19.042  1.00  0.00     0.103 C 
HETATM    2  N1  UNL     1      51.249  51.909  17.844  1.00  0.00    -0.386 N 
ATOM      3  H1  UNL     1      51.387  51.632  16.872  1.00  0.00     0.160 HD
HETATM    4  C9  UNL     1      51.576  53.016  18.652  1.00  0.00     0.014 C 
HETATM    5  C10 UNL     1      52.400  53.994  18.912  1.00  0.00     0.032 C 
HETATM    6  C11 UNL     1      52.034  54.870  20.078  1.00  0.00     0.169 C 
HETATM    7  C12 UNL     1      51.530  54.060  21.240  1.00  0.00     0.039 C 
HETATM    8  C13 UNL     1      50.487  53.051  20.889  1.00  0.00     0.020 C 
HETATM    9  C14 UNL     1      50.356  52.759  19.431  1.00  0.00     0.019 C 
HETATM   10  C15 UNL     1      49.134  53.390  18.804  1.00  0.00     0.024 C 
ENDROOT
BRANCH   1  11
HETATM   11  C6  UNL     1      49.406  50.490  18.760  1.00  0.00     0.027 C 
HETATM   12  C7  UNL     1      49.731  49.120  19.386  1.00  0.00     0.016 C 
BRANCH  11  13
HETATM   13  C5  UNL     1      49.308  50.243  17.298  1.00  0.00    -0.024 C 
HETATM   14  C4  UNL     1      48.163  50.267  16.650  1.00  0.00    -0.030 C 
BRANCH  14  15
HETATM   15  C3  UNL     1      46.834  50.533  17.241  1.00  0.00     0.026 C 
BRANCH  15  16
HETATM   16  C2  UNL     1      45.949  49.285  17.147  1.00  0.00    -0.001 C 
HETATM   17  C1  UNL     1      46.169  48.469  18.410  1.00  0.00     0.005 C 
ENDBRANCH  15  16
ENDBRANCH  14  15
ENDBRANCH  11  13
ENDBRANCH   1  11
BRANCH   6  18
HETATM   18  O1  UNL     1      53.151  55.590  20.437  1.00  0.00    -0.247 OA
BRANCH  18  19
HETATM   19  S1  UNL     1      52.718  57.119  20.920  1.00  0.00     0.252 S 
HETATM   20  O2  UNL     1      52.489  57.081  22.411  1.00  0.00    -0.572 OA
HETATM   21  O3  UNL     1      51.420  57.530  20.256  1.00  0.00    -0.572 OA
HETATM   22  O4  UNL     1      53.913  58.253  20.622  1.00  0.00    -0.572 OA
ENDBRANCH  18  19
ENDBRANCH   6  18
TORSDOF 6
ENDMDL
