MODEL 1
REMARK VINA RESULT: -8.251924636      0.000      0.000
REMARK  6 active torsions:
REMARK  status: ('A' for Active; 'I' for Inactive)
REMARK    1  A    between atoms: N3_4  and  C2_6 
REMARK    2  A    between atoms: C2_6  and  C3_7 
REMARK    3  A    between atoms: C3_7  and  C4_8 
REMARK    4  A    between atoms: C4_8  and  C5_9 
REMARK    5  A    between atoms: C5_9  and  C6_10 
REMARK    6  A    between atoms: C6_10  and  C7_11 
ROOT
HETATM    1  C7  UNL     1      49.888  52.558  18.456  1.00  0.00     0.156 C 
HETATM    2  O1  UNL     1      48.563  52.595  18.001  1.00  0.00    -0.382 OA
HETATM    3  C8  UNL     1      48.517  52.155  16.676  1.00  0.00     0.173 C 
HETATM    4  C9  UNL     1      49.330  50.917  16.447  1.00  0.00     0.016 C 
HETATM    5  C10 UNL     1      48.660  49.925  15.533  1.00  0.00     0.007 C 
HETATM    6  C11 UNL     1      47.287  49.641  16.022  1.00  0.00     0.000 C 
HETATM    7  C12 UNL     1      47.041  49.682  17.472  1.00  0.00     0.001 C 
HETATM    8  C13 UNL     1      48.196  49.803  18.383  1.00  0.00     0.008 C 
HETATM    9  C14 UNL     1      49.491  50.208  17.773  1.00  0.00     0.029 C 
HETATM   10  C15 UNL     1      50.332  51.140  18.634  1.00  0.00     0.091 C 
HETATM   11  C16 UNL     1      50.423  50.671  20.050  1.00  0.00     0.043 C 
HETATM   12  C17 UNL     1      51.620  49.710  19.952  1.00  0.00     0.029 C 
HETATM   13  C18 UNL     1      52.475  50.520  18.997  1.00  0.00     0.169 C 
HETATM   14  O2  UNL     1      51.624  51.063  18.081  1.00  0.00    -0.377 OA
ENDROOT
BRANCH   1  15
HETATM   15  C6  UNL     1      50.056  53.405  19.699  1.00  0.00     0.035 C 
BRANCH  15  16
HETATM   16  C5  UNL     1      49.141  54.605  19.675  1.00  0.00     0.003 C 
BRANCH  16  17
HETATM   17  C4  UNL     1      49.873  55.912  19.794  1.00  0.00     0.002 C 
BRANCH  17  18
HETATM   18  C3  UNL     1      49.771  56.477  21.184  1.00  0.00     0.020 C 
BRANCH  18  19
HETATM   19  C2  UNL     1      51.033  56.192  21.984  1.00  0.00     0.122 C 
BRANCH  19  20
HETATM   20  N3  UNL     1      51.716  57.433  22.306  1.00  0.00    -0.367 N 
HETATM   21  C1  UNL     1      52.869  57.701  21.793  1.00  0.00     0.196 C 
HETATM   22  N1  UNL     1      53.486  56.780  20.904  1.00  0.00    -0.067 NA
HETATM   23  N2  UNL     1      53.487  58.925  22.142  1.00  0.00    -0.067 NA
ATOM     24  H3  UNL     1      51.279  58.098  22.943  1.00  0.00     0.161 HD
ENDBRANCH  19  20
ENDBRANCH  18  19
ENDBRANCH  17  18
ENDBRANCH  16  17
ENDBRANCH  15  16
ENDBRANCH   1  15
TORSDOF 6
ENDMDL
MODEL 2
REMARK VINA RESULT: -8.122585781      4.137      6.060
REMARK  6 active torsions:
REMARK  status: ('A' for Active; 'I' for Inactive)
REMARK    1  A    between atoms: N3_4  and  C2_6 
REMARK    2  A    between atoms: C2_6  and  C3_7 
REMARK    3  A    between atoms: C3_7  and  C4_8 
REMARK    4  A    between atoms: C4_8  and  C5_9 
REMARK    5  A    between atoms: C5_9  and  C6_10 
REMARK    6  A    between atoms: C6_10  and  C7_11 
ROOT
HETATM    1  C7  UNL     1      49.835  55.852  20.368  1.00  0.00     0.156 C 
HETATM    2  O1  UNL     1      49.353  54.541  20.485  1.00  0.00    -0.382 OA
HETATM    3  C8  UNL     1      50.015  53.722  19.566  1.00  0.00     0.173 C 
HETATM    4  C9  UNL     1      51.496  53.952  19.544  1.00  0.00     0.016 C 
HETATM    5  C10 UNL     1      52.295  52.682  19.426  1.00  0.00     0.007 C 
HETATM    6  C11 UNL     1      51.869  51.722  20.474  1.00  0.00     0.000 C 
HETATM    7  C12 UNL     1      51.410  52.258  21.765  1.00  0.00     0.001 C 
HETATM    8  C13 UNL     1      51.581  53.699  22.035  1.00  0.00     0.008 C 
HETATM    9  C14 UNL     1      51.896  54.566  20.868  1.00  0.00     0.029 C 
HETATM   10  C15 UNL     1      51.232  55.936  20.899  1.00  0.00     0.091 C 
HETATM   11  C16 UNL     1      51.370  56.599  22.231  1.00  0.00     0.043 C 
HETATM   12  C17 UNL     1      52.737  57.285  22.062  1.00  0.00     0.029 C 
HETATM   13  C18 UNL     1      52.587  57.722  20.619  1.00  0.00     0.169 C 
HETATM   14  O2  UNL     1      51.957  56.703  19.969  1.00  0.00    -0.377 OA
ENDROOT
BRANCH   1  15
HETATM   15  C6  UNL     1      48.882  56.836  21.012  1.00  0.00     0.035 C 
BRANCH  15  16
HETATM   16  C5  UNL     1      47.742  57.184  20.087  1.00  0.00     0.003 C 
BRANCH  16  17
HETATM   17  C4  UNL     1      47.679  58.648  19.749  1.00  0.00     0.002 C 
BRANCH  17  18
HETATM   18  C3  UNL     1      47.646  58.870  18.263  1.00  0.00     0.020 C 
BRANCH  18  19
HETATM   19  C2  UNL     1      47.716  57.548  17.511  1.00  0.00     0.122 C 
BRANCH  19  20
HETATM   20  N3  UNL     1      48.093  57.776  16.127  1.00  0.00    -0.367 N 
HETATM   21  C1  UNL     1      48.137  56.799  15.287  1.00  0.00     0.196 C 
HETATM   22  N1  UNL     1      47.814  55.480  15.710  1.00  0.00    -0.067 NA
HETATM   23  N2  UNL     1      48.510  57.080  13.953  1.00  0.00    -0.067 NA
ATOM     24  H3  UNL     1      48.326  58.719  15.817  1.00  0.00     0.161 HD
ENDBRANCH  19  20
ENDBRANCH  18  19
ENDBRANCH  17  18
ENDBRANCH  16  17
ENDBRANCH  15  16
ENDBRANCH   1  15
TORSDOF 6
ENDMDL
MODEL 3
REMARK VINA RESULT: -8.073177481      3.075      7.033
REMARK  6 active torsions:
REMARK  status: ('A' for Active; 'I' for Inactive)
REMARK    1  A    between atoms: N3_4  and  C2_6 
REMARK    2  A    between atoms: C2_6  and  C3_7 
REMARK    3  A    between atoms: C3_7  and  C4_8 
REMARK    4  A    between atoms: C4_8  and  C5_9 
REMARK    5  A    between atoms: C5_9  and  C6_10 
REMARK    6  A    between atoms: C6_10  and  C7_11 
ROOT
HETATM    1  C7  UNL     1      50.080  54.768  18.941  1.00  0.00     0.156 C 
HETATM    2  O1  UNL     1      51.086  54.289  19.791  1.00  0.00    -0.382 OA
HETATM    3  C8  UNL     1      52.204  55.121  19.700  1.00  0.00     0.173 C 
HETATM    4  C9  UNL     1      51.849  56.577  19.743  1.00  0.00     0.016 C 
HETATM    5  C10 UNL     1      52.804  57.399  20.566  1.00  0.00     0.007 C 
HETATM    6  C11 UNL     1      52.955  56.794  21.913  1.00  0.00     0.000 C 
HETATM    7  C12 UNL     1      51.799  56.094  22.495  1.00  0.00     0.001 C 
HETATM    8  C13 UNL     1      50.493  56.195  21.815  1.00  0.00     0.008 C 
HETATM    9  C14 UNL     1      50.503  56.713  20.420  1.00  0.00     0.029 C 
HETATM   10  C15 UNL     1      49.507  56.039  19.486  1.00  0.00     0.091 C 
HETATM   11  C16 UNL     1      48.152  55.916  20.103  1.00  0.00     0.043 C 
HETATM   12  C17 UNL     1      47.549  57.281  19.730  1.00  0.00     0.029 C 
HETATM   13  C18 UNL     1      48.123  57.402  18.332  1.00  0.00     0.169 C 
HETATM   14  O2  UNL     1      49.395  56.917  18.394  1.00  0.00    -0.377 OA
ENDROOT
BRANCH   1  15
HETATM   15  C6  UNL     1      49.041  53.700  18.678  1.00  0.00     0.035 C 
BRANCH  15  16
HETATM   16  C5  UNL     1      49.669  52.446  18.122  1.00  0.00     0.003 C 
BRANCH  16  17
HETATM   17  C4  UNL     1      48.686  51.325  17.928  1.00  0.00     0.002 C 
BRANCH  17  18
HETATM   18  C3  UNL     1      49.270  50.002  18.339  1.00  0.00     0.020 C 
BRANCH  18  19
HETATM   19  C2  UNL     1      50.101  50.141  19.606  1.00  0.00     0.122 C 
BRANCH  19  20
HETATM   20  N3  UNL     1      51.424  49.577  19.404  1.00  0.00    -0.367 N 
HETATM   21  C1  UNL     1      52.453  50.086  19.992  1.00  0.00     0.196 C 
HETATM   22  N1  UNL     1      52.302  51.210  20.849  1.00  0.00    -0.067 NA
HETATM   23  N2  UNL     1      53.717  49.495  19.758  1.00  0.00    -0.067 NA
ATOM     24  H3  UNL     1      51.540  48.771  18.790  1.00  0.00     0.161 HD
ENDBRANCH  19  20
ENDBRANCH  18  19
ENDBRANCH  17  18
ENDBRANCH  16  17
ENDBRANCH  15  16
ENDBRANCH   1  15
TORSDOF 6
ENDMDL
MODEL 4
REMARK VINA RESULT: -7.771849976      1.195      1.555
REMARK  6 active torsions:
REMARK  status: ('A' for Active; 'I' for Inactive)
REMARK    1  A    between atoms: N3_4  and  C2_6 
REMARK    2  A    between atoms: C2_6  and  C3_7 
REMARK    3  A    between atoms: C3_7  and  C4_8 
REMARK    4  A    between atoms: C4_8  and  C5_9 
REMARK    5  A    between atoms: C5_9  and  C6_10 
REMARK    6  A    between atoms: C6_10  and  C7_11 
ROOT
HETATM    1  C7  UNL     1      49.630  52.668  18.205  1.00  0.00     0.156 C 
HETATM    2  O1  UNL     1      48.292  52.592  17.796  1.00  0.00    -0.382 OA
HETATM    3  C8  UNL     1      48.236  52.105  16.488  1.00  0.00     0.173 C 
HETATM    4  C9  UNL     1      49.129  50.922  16.270  1.00  0.00     0.016 C 
HETATM    5  C10 UNL     1      48.505  49.853  15.413  1.00  0.00     0.007 C 
HETATM    6  C11 UNL     1      47.174  49.487  15.957  1.00  0.00     0.000 C 
HETATM    7  C12 UNL     1      46.972  49.561  17.413  1.00  0.00     0.001 C 
HETATM    8  C13 UNL     1      48.144  49.796  18.279  1.00  0.00     0.008 C 
HETATM    9  C14 UNL     1      49.386  50.272  17.612  1.00  0.00     0.029 C 
HETATM   10  C15 UNL     1      50.183  51.292  18.412  1.00  0.00     0.091 C 
HETATM   11  C16 UNL     1      50.354  50.881  19.839  1.00  0.00     0.043 C 
HETATM   12  C17 UNL     1      51.615  50.006  19.730  1.00  0.00     0.029 C 
HETATM   13  C18 UNL     1      52.376  50.842  18.721  1.00  0.00     0.169 C 
HETATM   14  O2  UNL     1      51.458  51.290  17.818  1.00  0.00    -0.377 OA
ENDROOT
BRANCH   1  15
HETATM   15  C6  UNL     1      49.775  53.567  19.414  1.00  0.00     0.035 C 
BRANCH  15  16
HETATM   16  C5  UNL     1      50.931  54.523  19.253  1.00  0.00     0.003 C 
BRANCH  16  17
HETATM   17  C4  UNL     1      52.028  54.302  20.258  1.00  0.00     0.002 C 
BRANCH  17  18
HETATM   18  C3  UNL     1      51.544  54.533  21.662  1.00  0.00     0.020 C 
BRANCH  18  19
HETATM   19  C2  UNL     1      51.933  55.919  22.154  1.00  0.00     0.122 C 
BRANCH  19  20
HETATM   20  N3  UNL     1      50.747  56.683  22.496  1.00  0.00    -0.367 N 
HETATM   21  C1  UNL     1      50.295  57.590  21.697  1.00  0.00     0.196 C 
HETATM   22  N1  UNL     1      50.959  57.851  20.467  1.00  0.00    -0.067 NA
HETATM   23  N2  UNL     1      49.136  58.303  22.081  1.00  0.00    -0.067 NA
ATOM     24  H3  UNL     1      50.266  56.501  23.376  1.00  0.00     0.161 HD
ENDBRANCH  19  20
ENDBRANCH  18  19
ENDBRANCH  17  18
ENDBRANCH  16  17
ENDBRANCH  15  16
ENDBRANCH   1  15
TORSDOF 6
ENDMDL
MODEL 5
REMARK VINA RESULT: -7.770219186      3.204      7.093
REMARK  6 active torsions:
REMARK  status: ('A' for Active; 'I' for Inactive)
REMARK    1  A    between atoms: N3_4  and  C2_6 
REMARK    2  A    between atoms: C2_6  and  C3_7 
REMARK    3  A    between atoms: C3_7  and  C4_8 
REMARK    4  A    between atoms: C4_8  and  C5_9 
REMARK    5  A    between atoms: C5_9  and  C6_10 
REMARK    6  A    between atoms: C6_10  and  C7_11 
ROOT
HETATM    1  C7  UNL     1      49.871  54.738  18.984  1.00  0.00     0.156 C 
HETATM    2  O1  UNL     1      50.857  54.237  19.846  1.00  0.00    -0.382 OA
HETATM    3  C8  UNL     1      52.031  54.977  19.684  1.00  0.00     0.173 C 
HETATM    4  C9  UNL     1      51.786  56.455  19.643  1.00  0.00     0.016 C 
HETATM    5  C10 UNL     1      52.816  57.251  20.398  1.00  0.00     0.007 C 
HETATM    6  C11 UNL     1      52.950  56.719  21.777  1.00  0.00     0.000 C 
HETATM    7  C12 UNL     1      51.759  56.144  22.421  1.00  0.00     0.001 C 
HETATM    8  C13 UNL     1      50.450  56.301  21.757  1.00  0.00     0.008 C 
HETATM    9  C14 UNL     1      50.468  56.732  20.333  1.00  0.00     0.029 C 
HETATM   10  C15 UNL     1      49.406  56.079  19.460  1.00  0.00     0.091 C 
HETATM   11  C16 UNL     1      48.058  56.096  20.105  1.00  0.00     0.043 C 
HETATM   12  C17 UNL     1      47.550  57.478  19.659  1.00  0.00     0.029 C 
HETATM   13  C18 UNL     1      48.102  57.470  18.247  1.00  0.00     0.169 C 
HETATM   14  O2  UNL     1      49.336  56.896  18.317  1.00  0.00    -0.377 OA
ENDROOT
BRANCH   1  15
HETATM   15  C6  UNL     1      48.751  53.737  18.806  1.00  0.00     0.035 C 
BRANCH  15  16
HETATM   16  C5  UNL     1      48.414  53.542  17.348  1.00  0.00     0.003 C 
BRANCH  16  17
HETATM   17  C4  UNL     1      47.710  52.243  17.070  1.00  0.00     0.002 C 
BRANCH  17  18
HETATM   18  C3  UNL     1      48.462  51.410  16.071  1.00  0.00     0.020 C 
BRANCH  18  19
HETATM   19  C2  UNL     1      49.319  50.362  16.766  1.00  0.00     0.122 C 
BRANCH  19  20
HETATM   20  N3  UNL     1      50.701  50.804  16.829  1.00  0.00    -0.367 N 
HETATM   21  C1  UNL     1      51.281  50.992  17.966  1.00  0.00     0.196 C 
HETATM   22  N1  UNL     1      50.569  50.768  19.176  1.00  0.00    -0.067 NA
HETATM   23  N2  UNL     1      52.628  51.422  17.966  1.00  0.00    -0.067 NA
ATOM     24  H3  UNL     1      51.218  50.967  15.965  1.00  0.00     0.161 HD
ENDBRANCH  19  20
ENDBRANCH  18  19
ENDBRANCH  17  18
ENDBRANCH  16  17
ENDBRANCH  15  16
ENDBRANCH   1  15
TORSDOF 6
ENDMDL
