MODEL 1
REMARK VINA RESULT: -5.664594021      0.000      0.000
REMARK  5 active torsions:
REMARK  status: ('A' for Active; 'I' for Inactive)
REMARK    1  A    between atoms: N1_1  and  C1_4 
REMARK    2  A    between atoms: C2_7  and  N3_8 
REMARK    3  A    between atoms: N3_8  and  N4_10 
REMARK    4  A    between atoms: C3_17  and  C4_18 
REMARK       I    between atoms: C4_18  and  N7_20 
REMARK    5  A    between atoms: N7_20  and  N8_22 
ROOT
HETATM    1  C1  UNL     1      17.608  56.420  11.567  1.00  0.00     0.148 A 
HETATM    2  N2  UNL     1      17.505  57.317  10.570  1.00  0.00    -0.172 N 
ATOM      3  H2  UNL     1      18.008  58.201  10.651  1.00  0.00     0.186 HD
HETATM    4  C2  UNL     1      16.766  57.092   9.470  1.00  0.00     0.712 A 
HETATM    5  N5  UNL     1      16.116  55.919   9.391  1.00  0.00    -0.130 N 
ATOM      6  H5  UNL     1      15.548  55.720   8.568  1.00  0.00     0.205 HD
HETATM    7  N6  UNL     1      16.195  55.005  10.363  1.00  0.00    -0.278 N 
ATOM      8  H6  UNL     1      15.686  54.127  10.266  1.00  0.00     0.188 HD
HETATM    9  C3  UNL     1      16.926  55.219  11.458  1.00  0.00     0.162 A 
ENDROOT
BRANCH   9  10
HETATM   10  C4  UNL     1      17.031  54.242  12.532  1.00  0.00     0.291 C 
HETATM   11  O1  UNL     1      18.083  53.583  12.695  1.00  0.00    -0.264 OA
HETATM   12  N7  UNL     1      15.960  54.003  13.425  1.00  0.00    -0.271 N 
ATOM     13  H7  UNL     1      15.100  54.537  13.298  1.00  0.00     0.189 HD
BRANCH  12  14
HETATM   14  N8  UNL     1      16.013  53.080  14.464  1.00  0.00    -0.342 N 
ATOM     15  H82 UNL     1      16.494  53.368  15.317  1.00  0.00     0.176 HD
ATOM     16  H81 UNL     1      15.602  52.148  14.415  1.00  0.00     0.176 HD
ENDBRANCH  12  14
ENDBRANCH   9  10
BRANCH   1  17
HETATM   17  N1  UNL     1      18.312  56.613  12.632  1.00  0.00    -0.383 N 
ATOM     18  H12 UNL     1      19.322  56.704  12.522  1.00  0.00     0.157 HD
ATOM     19  H11 UNL     1      17.912  56.677  13.569  1.00  0.00     0.157 HD
ENDBRANCH   1  17
BRANCH   4  20
HETATM   20  N3  UNL     1      16.705  57.985   8.547  1.00  0.00    -0.137 N 
ATOM     21  H3  UNL     1      15.807  58.442   8.386  1.00  0.00     0.205 HD
BRANCH  20  22
HETATM   22  N4  UNL     1      17.771  58.363   7.761  1.00  0.00    -0.331 N 
ATOM     23  H42 UNL     1      18.210  59.257   7.983  1.00  0.00     0.177 HD
ATOM     24  H41 UNL     1      18.138  57.811   6.987  1.00  0.00     0.177 HD
ENDBRANCH  20  22
ENDBRANCH   4  20
TORSDOF 5
ENDMDL
MODEL 2
REMARK VINA RESULT: -5.659017998      5.240      6.717
REMARK  5 active torsions:
REMARK  status: ('A' for Active; 'I' for Inactive)
REMARK    1  A    between atoms: N1_1  and  C1_4 
REMARK    2  A    between atoms: C2_7  and  N3_8 
REMARK    3  A    between atoms: N3_8  and  N4_10 
REMARK    4  A    between atoms: C3_17  and  C4_18 
REMARK       I    between atoms: C4_18  and  N7_20 
REMARK    5  A    between atoms: N7_20  and  N8_22 
ROOT
HETATM    1  C1  UNL     1      19.837  59.433   7.109  1.00  0.00     0.148 A 
HETATM    2  N2  UNL     1      20.788  58.481   7.084  1.00  0.00    -0.172 N 
ATOM      3  H2  UNL     1      21.638  58.651   6.547  1.00  0.00     0.186 HD
HETATM    4  C2  UNL     1      20.658  57.314   7.739  1.00  0.00     0.712 A 
HETATM    5  N5  UNL     1      19.527  57.119   8.437  1.00  0.00    -0.130 N 
ATOM      6  H5  UNL     1      19.402  56.244   8.945  1.00  0.00     0.205 HD
HETATM    7  N6  UNL     1      18.562  58.043   8.483  1.00  0.00    -0.278 N 
ATOM      8  H6  UNL     1      17.718  57.856   9.024  1.00  0.00     0.188 HD
HETATM    9  C3  UNL     1      18.682  59.203   7.837  1.00  0.00     0.162 A 
ENDROOT
BRANCH   9  10
HETATM   10  C4  UNL     1      17.647  60.227   7.870  1.00  0.00     0.291 C 
HETATM   11  O1  UNL     1      17.709  61.170   8.692  1.00  0.00    -0.264 OA
HETATM   12  N7  UNL     1      16.545  60.197   6.984  1.00  0.00    -0.271 N 
ATOM     13  H7  UNL     1      16.489  59.432   6.312  1.00  0.00     0.189 HD
BRANCH  12  14
HETATM   14  N8  UNL     1      15.534  61.152   6.979  1.00  0.00    -0.342 N 
ATOM     15  H82 UNL     1      15.439  61.733   7.812  1.00  0.00     0.176 HD
ATOM     16  H81 UNL     1      14.895  61.295   6.196  1.00  0.00     0.176 HD
ENDBRANCH  12  14
ENDBRANCH   9  10
BRANCH   1  17
HETATM   17  N1  UNL     1      19.939  60.560   6.488  1.00  0.00    -0.383 N 
ATOM     18  H12 UNL     1      20.759  60.704   5.900  1.00  0.00     0.157 HD
ATOM     19  H11 UNL     1      19.247  61.307   6.558  1.00  0.00     0.157 HD
ENDBRANCH   1  17
BRANCH   4  20
HETATM   20  N3  UNL     1      21.599  56.440   7.681  1.00  0.00    -0.137 N 
ATOM     21  H3  UNL     1      21.334  55.460   7.580  1.00  0.00     0.205 HD
BRANCH  20  22
HETATM   22  N4  UNL     1      22.942  56.740   7.746  1.00  0.00    -0.331 N 
ATOM     23  H42 UNL     1      23.197  57.605   8.223  1.00  0.00     0.177 HD
ATOM     24  H41 UNL     1      23.680  56.157   7.352  1.00  0.00     0.177 HD
ENDBRANCH  20  22
ENDBRANCH   4  20
TORSDOF 5
ENDMDL
MODEL 3
REMARK VINA RESULT: -5.608894038      2.047      4.874
REMARK  5 active torsions:
REMARK  status: ('A' for Active; 'I' for Inactive)
REMARK    1  A    between atoms: N1_1  and  C1_4 
REMARK    2  A    between atoms: C2_7  and  N3_8 
REMARK    3  A    between atoms: N3_8  and  N4_10 
REMARK    4  A    between atoms: C3_17  and  C4_18 
REMARK       I    between atoms: C4_18  and  N7_20 
REMARK    5  A    between atoms: N7_20  and  N8_22 
ROOT
HETATM    1  C1  UNL     1      17.587  56.160  12.051  1.00  0.00     0.148 A 
HETATM    2  N2  UNL     1      16.993  55.192  12.771  1.00  0.00    -0.172 N 
ATOM      3  H2  UNL     1      17.220  55.108  13.762  1.00  0.00     0.186 HD
HETATM    4  C2  UNL     1      16.110  54.332  12.234  1.00  0.00     0.712 A 
HETATM    5  N5  UNL     1      15.832  54.468  10.927  1.00  0.00    -0.130 N 
ATOM      6  H5  UNL     1      15.165  53.830  10.493  1.00  0.00     0.205 HD
HETATM    7  N6  UNL     1      16.404  55.418  10.182  1.00  0.00    -0.278 N 
ATOM      8  H6  UNL     1      16.167  55.488   9.193  1.00  0.00     0.188 HD
HETATM    9  C3  UNL     1      17.280  56.275  10.706  1.00  0.00     0.162 A 
ENDROOT
BRANCH   9  10
HETATM   10  C4  UNL     1      17.919  57.320   9.918  1.00  0.00     0.291 C 
HETATM   11  O1  UNL     1      17.459  58.484   9.909  1.00  0.00    -0.264 OA
HETATM   12  N7  UNL     1      19.074  57.063   9.142  1.00  0.00    -0.271 N 
ATOM     13  H7  UNL     1      19.455  56.117   9.146  1.00  0.00     0.189 HD
BRANCH  12  14
HETATM   14  N8  UNL     1      19.718  58.028   8.374  1.00  0.00    -0.342 N 
ATOM     15  H82 UNL     1      19.150  58.803   8.031  1.00  0.00     0.176 HD
ATOM     16  H81 UNL     1      20.711  57.997   8.143  1.00  0.00     0.176 HD
ENDBRANCH  12  14
ENDBRANCH   9  10
BRANCH   1  17
HETATM   17  N1  UNL     1      18.437  56.998  12.544  1.00  0.00    -0.383 N 
ATOM     18  H12 UNL     1      18.185  57.472  13.411  1.00  0.00     0.157 HD
ATOM     19  H11 UNL     1      19.339  57.207  12.114  1.00  0.00     0.157 HD
ENDBRANCH   1  17
BRANCH   4  20
HETATM   20  N3  UNL     1      15.571  53.426  12.970  1.00  0.00    -0.137 N 
ATOM     21  H3  UNL     1      14.801  52.887  12.574  1.00  0.00     0.205 HD
BRANCH  20  22
HETATM   22  N4  UNL     1      15.965  53.136  14.258  1.00  0.00    -0.331 N 
ATOM     23  H42 UNL     1      16.049  53.923  14.901  1.00  0.00     0.177 HD
ATOM     24  H41 UNL     1      16.173  52.197  14.597  1.00  0.00     0.177 HD
ENDBRANCH  20  22
ENDBRANCH   4  20
TORSDOF 5
ENDMDL
MODEL 4
REMARK VINA RESULT: -5.562057279      4.247      6.167
REMARK  5 active torsions:
REMARK  status: ('A' for Active; 'I' for Inactive)
REMARK    1  A    between atoms: N1_1  and  C1_4 
REMARK    2  A    between atoms: C2_7  and  N3_8 
REMARK    3  A    between atoms: N3_8  and  N4_10 
REMARK    4  A    between atoms: C3_17  and  C4_18 
REMARK       I    between atoms: C4_18  and  N7_20 
REMARK    5  A    between atoms: N7_20  and  N8_22 
ROOT
HETATM    1  C1  UNL     1      13.470  53.081  14.515  1.00  0.00     0.148 A 
HETATM    2  N2  UNL     1      14.272  53.658  13.602  1.00  0.00    -0.172 N 
ATOM      3  H2  UNL     1      13.846  54.162  12.824  1.00  0.00     0.186 HD
HETATM    4  C2  UNL     1      15.612  53.595  13.677  1.00  0.00     0.712 A 
HETATM    5  N5  UNL     1      16.143  52.924  14.712  1.00  0.00    -0.130 N 
ATOM      6  H5  UNL     1      17.158  52.861  14.795  1.00  0.00     0.205 HD
HETATM    7  N6  UNL     1      15.377  52.338  15.637  1.00  0.00    -0.278 N 
ATOM      8  H6  UNL     1      15.818  51.838  16.408  1.00  0.00     0.188 HD
HETATM    9  C3  UNL     1      14.046  52.396  15.571  1.00  0.00     0.162 A 
ENDROOT
BRANCH   9  10
HETATM   10  C4  UNL     1      13.186  51.767  16.565  1.00  0.00     0.291 C 
HETATM   11  O1  UNL     1      12.329  52.438  17.182  1.00  0.00    -0.264 OA
HETATM   12  N7  UNL     1      13.285  50.389  16.866  1.00  0.00    -0.271 N 
ATOM     13  H7  UNL     1      13.981  49.836  16.366  1.00  0.00     0.189 HD
BRANCH  12  14
HETATM   14  N8  UNL     1      12.487  49.745  17.806  1.00  0.00    -0.342 N 
ATOM     15  H82 UNL     1      11.501  49.623  17.573  1.00  0.00     0.176 HD
ATOM     16  H81 UNL     1      12.835  49.397  18.700  1.00  0.00     0.176 HD
ENDBRANCH  12  14
ENDBRANCH   9  10
BRANCH   1  17
HETATM   17  N1  UNL     1      12.181  53.128  14.465  1.00  0.00    -0.383 N 
ATOM     18  H12 UNL     1      11.696  52.346  14.025  1.00  0.00     0.157 HD
ATOM     19  H11 UNL     1      11.629  53.900  14.840  1.00  0.00     0.157 HD
ENDBRANCH   1  17
BRANCH   4  20
HETATM   20  N3  UNL     1      16.331  54.166  12.776  1.00  0.00    -0.137 N 
ATOM     21  H3  UNL     1      15.854  54.732  12.074  1.00  0.00     0.205 HD
BRANCH  20  22
HETATM   22  N4  UNL     1      17.702  54.064  12.697  1.00  0.00    -0.331 N 
ATOM     23  H42 UNL     1      18.133  53.278  13.184  1.00  0.00     0.177 HD
ATOM     24  H41 UNL     1      18.298  54.717  12.190  1.00  0.00     0.177 HD
ENDBRANCH  20  22
ENDBRANCH   4  20
TORSDOF 5
ENDMDL
MODEL 5
REMARK VINA RESULT: -5.530996406      5.423      7.884
REMARK  5 active torsions:
REMARK  status: ('A' for Active; 'I' for Inactive)
REMARK    1  A    between atoms: N1_1  and  C1_4 
REMARK    2  A    between atoms: C2_7  and  N3_8 
REMARK    3  A    between atoms: N3_8  and  N4_10 
REMARK    4  A    between atoms: C3_17  and  C4_18 
REMARK       I    between atoms: C4_18  and  N7_20 
REMARK    5  A    between atoms: N7_20  and  N8_22 
ROOT
HETATM    1  C1  UNL     1      13.672  50.565  15.205  1.00  0.00     0.148 A 
HETATM    2  N2  UNL     1      14.681  51.244  14.629  1.00  0.00    -0.172 N 
ATOM      3  H2  UNL     1      15.020  50.939  13.717  1.00  0.00     0.186 HD
HETATM    4  C2  UNL     1      15.257  52.310  15.211  1.00  0.00     0.712 A 
HETATM    5  N5  UNL     1      14.789  52.688  16.411  1.00  0.00    -0.130 N 
ATOM      6  H5  UNL     1      15.207  53.494  16.876  1.00  0.00     0.205 HD
HETATM    7  N6  UNL     1      13.790  52.036  17.013  1.00  0.00    -0.278 N 
ATOM      8  H6  UNL     1      13.463  52.354  17.925  1.00  0.00     0.188 HD
HETATM    9  C3  UNL     1      13.211  50.978  16.444  1.00  0.00     0.162 A 
ENDROOT
BRANCH   9  10
HETATM   10  C4  UNL     1      12.120  50.249  17.076  1.00  0.00     0.291 C 
HETATM   11  O1  UNL     1      12.329  49.151  17.640  1.00  0.00    -0.264 OA
HETATM   12  N7  UNL     1      10.797  50.749  17.077  1.00  0.00    -0.271 N 
ATOM     13  H7  UNL     1      10.620  51.643  16.619  1.00  0.00     0.189 HD
BRANCH  12  14
HETATM   14  N8  UNL     1       9.724  50.089  17.666  1.00  0.00    -0.342 N 
ATOM     15  H82 UNL     1       9.824  49.822  18.645  1.00  0.00     0.176 HD
ATOM     16  H81 UNL     1       8.859  49.863  17.174  1.00  0.00     0.176 HD
ENDBRANCH  12  14
ENDBRANCH   9  10
BRANCH   1  17
HETATM   17  N1  UNL     1      13.103  49.539  14.667  1.00  0.00    -0.383 N 
ATOM     18  H12 UNL     1      13.431  48.615  14.947  1.00  0.00     0.157 HD
ATOM     19  H11 UNL     1      12.349  49.607  13.983  1.00  0.00     0.157 HD
ENDBRANCH   1  17
BRANCH   4  20
HETATM   20  N3  UNL     1      16.218  52.923  14.614  1.00  0.00    -0.137 N 
ATOM     21  H3  UNL     1      17.160  52.813  14.990  1.00  0.00     0.205 HD
BRANCH  20  22
HETATM   22  N4  UNL     1      16.058  53.717  13.500  1.00  0.00    -0.331 N 
ATOM     23  H42 UNL     1      15.135  54.130  13.358  1.00  0.00     0.177 HD
ATOM     24  H41 UNL     1      16.795  53.912  12.823  1.00  0.00     0.177 HD
ENDBRANCH  20  22
ENDBRANCH   4  20
TORSDOF 5
ENDMDL
