MODEL 1
REMARK VINA RESULT: -6.038135516      0.000      0.000
REMARK  4 active torsions:
REMARK  status: ('A' for Active; 'I' for Inactive)
REMARK    1  A    between atoms: N1_1  and  C1_4 
REMARK    2  A    between atoms: C4_13  and  N4_14 
REMARK    3  A    between atoms: N4_14  and  N5_16 
REMARK    4  A    between atoms: N5_16  and  O3_18 
ROOT
HETATM    1  C1  UNL     1      19.641  57.259   8.219  1.00  0.00     0.681 C 
HETATM    2  N2  UNL     1      20.944  56.881   8.184  1.00  0.00    -0.141 N 
ATOM      3  H2  UNL     1      21.241  56.154   8.835  1.00  0.00     0.189 HD
HETATM    4  C2  UNL     1      21.874  57.392   7.355  1.00  0.00     0.341 C 
HETATM    5  O1  UNL     1      22.987  56.808   7.421  1.00  0.00    -0.246 OA
HETATM    6  N3  UNL     1      21.763  58.420   6.487  1.00  0.00    -0.272 N 
ATOM      7  H3  UNL     1      22.552  58.543   5.852  1.00  0.00     0.174 HD
HETATM    8  C3  UNL     1      20.753  59.313   6.340  1.00  0.00     0.295 C 
HETATM    9  O2  UNL     1      20.868  60.210   5.470  1.00  0.00    -0.264 OA
HETATM   10  C4  UNL     1      19.564  59.387   7.036  1.00  0.00     0.205 C 
HETATM   11  N6  UNL     1      19.056  58.411   7.814  1.00  0.00    -0.170 N 
ATOM     12  H6  UNL     1      18.101  58.560   8.142  1.00  0.00     0.186 HD
ENDROOT
BRANCH  10  13
HETATM   13  N4  UNL     1      18.895  60.483   6.925  1.00  0.00    -0.261 N 
ATOM     14  H4  UNL     1      19.274  61.212   6.320  1.00  0.00     0.190 HD
BRANCH  13  15
HETATM   15  N5  UNL     1      17.704  60.738   7.566  1.00  0.00    -0.208 N 
ATOM     16  H5  UNL     1      16.850  60.671   7.012  1.00  0.00     0.215 HD
BRANCH  15  17
HETATM   17  O3  UNL     1      17.584  61.044   8.767  1.00  0.00    -0.274 OA
ATOM     18  H3  UNL     1      18.175  61.607   9.252  1.00  0.00     0.246 HD
ENDBRANCH  15  17
ENDBRANCH  13  15
ENDBRANCH  10  13
BRANCH   1  19
HETATM   19  N1  UNL     1      18.847  56.361   8.725  1.00  0.00    -0.234 N 
ATOM     20  H12 UNL     1      18.525  56.532   9.678  1.00  0.00     0.174 HD
ATOM     21  H11 UNL     1      18.644  55.586   8.093  1.00  0.00     0.174 HD
ENDBRANCH   1  19
TORSDOF 4
ENDMDL
MODEL 2
REMARK VINA RESULT: -5.954315480      1.704      2.903
REMARK  4 active torsions:
REMARK  status: ('A' for Active; 'I' for Inactive)
REMARK    1  A    between atoms: N1_1  and  C1_4 
REMARK    2  A    between atoms: C4_13  and  N4_14 
REMARK    3  A    between atoms: N4_14  and  N5_16 
REMARK    4  A    between atoms: N5_16  and  O3_18 
ROOT
HETATM    1  C1  UNL     1      21.182  60.218   6.335  1.00  0.00     0.681 C 
HETATM    2  N2  UNL     1      22.056  59.267   6.753  1.00  0.00    -0.141 N 
ATOM      3  H2  UNL     1      22.975  59.247   6.313  1.00  0.00     0.189 HD
HETATM    4  C2  UNL     1      21.801  58.350   7.705  1.00  0.00     0.341 C 
HETATM    5  O1  UNL     1      22.798  57.644   8.009  1.00  0.00    -0.246 OA
HETATM    6  N3  UNL     1      20.643  58.101   8.355  1.00  0.00    -0.272 N 
ATOM      7  H3  UNL     1      20.714  57.457   9.143  1.00  0.00     0.174 HD
HETATM    8  C3  UNL     1      19.400  58.585   8.109  1.00  0.00     0.295 C 
HETATM    9  O2  UNL     1      18.454  58.202   8.837  1.00  0.00    -0.264 OA
HETATM   10  C4  UNL     1      19.003  59.475   7.133  1.00  0.00     0.205 C 
HETATM   11  N6  UNL     1      19.830  60.252   6.405  1.00  0.00    -0.170 N 
ATOM     12  H6  UNL     1      19.376  60.961   5.829  1.00  0.00     0.186 HD
ENDROOT
BRANCH  10  13
HETATM   13  N4  UNL     1      17.737  59.561   6.909  1.00  0.00    -0.261 N 
ATOM     14  H4  UNL     1      17.302  58.827   6.350  1.00  0.00     0.190 HD
BRANCH  13  15
HETATM   15  N5  UNL     1      16.931  60.577   7.371  1.00  0.00    -0.208 N 
ATOM     16  H5  UNL     1      15.962  60.344   7.587  1.00  0.00     0.215 HD
BRANCH  15  17
HETATM   17  O3  UNL     1      17.289  61.757   7.546  1.00  0.00    -0.274 OA
ATOM     18  H3  UNL     1      18.155  62.101   7.366  1.00  0.00     0.246 HD
ENDBRANCH  15  17
ENDBRANCH  13  15
ENDBRANCH  10  13
BRANCH   1  19
HETATM   19  N1  UNL     1      21.753  61.250   5.784  1.00  0.00    -0.234 N 
ATOM     20  H12 UNL     1      22.018  61.146   4.805  1.00  0.00     0.174 HD
ATOM     21  H11 UNL     1      21.864  62.044   6.413  1.00  0.00     0.174 HD
ENDBRANCH   1  19
TORSDOF 4
ENDMDL
MODEL 3
REMARK VINA RESULT: -5.904943993      2.150      4.012
REMARK  4 active torsions:
REMARK  status: ('A' for Active; 'I' for Inactive)
REMARK    1  A    between atoms: N1_1  and  C1_4 
REMARK    2  A    between atoms: C4_13  and  N4_14 
REMARK    3  A    between atoms: N4_14  and  N5_16 
REMARK    4  A    between atoms: N5_16  and  O3_18 
ROOT
HETATM    1  C1  UNL     1      17.082  59.251   7.198  1.00  0.00     0.681 C 
HETATM    2  N2  UNL     1      16.548  58.279   7.981  1.00  0.00    -0.141 N 
ATOM      3  H2  UNL     1      15.547  58.326   8.172  1.00  0.00     0.189 HD
HETATM    4  C2  UNL     1      17.238  57.258   8.523  1.00  0.00     0.341 C 
HETATM    5  O1  UNL     1      16.515  56.415   9.115  1.00  0.00    -0.246 OA
HETATM    6  N3  UNL     1      18.570  57.032   8.509  1.00  0.00    -0.272 N 
ATOM      7  H3  UNL     1      18.862  56.119   8.857  1.00  0.00     0.174 HD
HETATM    8  C3  UNL     1      19.574  57.847   8.100  1.00  0.00     0.295 C 
HETATM    9  O2  UNL     1      20.755  57.435   8.193  1.00  0.00    -0.264 OA
HETATM   10  C4  UNL     1      19.486  59.119   7.573  1.00  0.00     0.205 C 
HETATM   11  N6  UNL     1      18.359  59.692   7.106  1.00  0.00    -0.170 N 
ATOM     12  H6  UNL     1      18.485  60.578   6.616  1.00  0.00     0.186 HD
ENDROOT
BRANCH  10  13
HETATM   13  N4  UNL     1      20.577  59.804   7.531  1.00  0.00    -0.261 N 
ATOM     14  H4  UNL     1      20.902  60.234   8.396  1.00  0.00     0.190 HD
BRANCH  13  15
HETATM   15  N5  UNL     1      21.334  59.996   6.397  1.00  0.00    -0.208 N 
ATOM     16  H5  UNL     1      22.334  60.153   6.522  1.00  0.00     0.215 HD
BRANCH  15  17
HETATM   17  O3  UNL     1      20.897  59.993   5.231  1.00  0.00    -0.274 OA
ATOM     18  H3  UNL     1      21.428  59.933   4.445  1.00  0.00     0.246 HD
ENDBRANCH  15  17
ENDBRANCH  13  15
ENDBRANCH  10  13
BRANCH   1  19
HETATM   19  N1  UNL     1      16.216  59.838   6.425  1.00  0.00    -0.234 N 
ATOM     20  H12 UNL     1      16.212  59.540   5.449  1.00  0.00     0.174 HD
ATOM     21  H11 UNL     1      15.643  60.534   6.901  1.00  0.00     0.174 HD
ENDBRANCH   1  19
TORSDOF 4
ENDMDL
MODEL 4
REMARK VINA RESULT: -5.816810448      1.950      4.202
REMARK  4 active torsions:
REMARK  status: ('A' for Active; 'I' for Inactive)
REMARK    1  A    between atoms: N1_1  and  C1_4 
REMARK    2  A    between atoms: C4_13  and  N4_14 
REMARK    3  A    between atoms: N4_14  and  N5_16 
REMARK    4  A    between atoms: N5_16  and  O3_18 
ROOT
HETATM    1  C1  UNL     1      19.283  59.438   7.279  1.00  0.00     0.681 C 
HETATM    2  N2  UNL     1      19.568  60.606   6.649  1.00  0.00    -0.141 N 
ATOM      3  H2  UNL     1      18.784  61.207   6.395  1.00  0.00     0.189 HD
HETATM    4  C2  UNL     1      20.806  61.031   6.335  1.00  0.00     0.341 C 
HETATM    5  O1  UNL     1      20.837  62.196   5.859  1.00  0.00    -0.246 OA
HETATM    6  N3  UNL     1      21.984  60.383   6.465  1.00  0.00    -0.272 N 
ATOM      7  H3  UNL     1      22.815  60.951   6.300  1.00  0.00     0.174 HD
HETATM    8  C3  UNL     1      22.219  59.086   6.783  1.00  0.00     0.295 C 
HETATM    9  O2  UNL     1      23.407  58.687   6.832  1.00  0.00    -0.264 OA
HETATM   10  C4  UNL     1      21.305  58.094   7.072  1.00  0.00     0.205 C 
HETATM   11  N6  UNL     1      20.004  58.296   7.366  1.00  0.00    -0.170 N 
ATOM     12  H6  UNL     1      19.495  57.477   7.700  1.00  0.00     0.186 HD
ENDROOT
BRANCH  10  13
HETATM   13  N4  UNL     1      21.741  56.882   7.057  1.00  0.00    -0.261 N 
ATOM     14  H4  UNL     1      21.690  56.369   6.177  1.00  0.00     0.190 HD
BRANCH  13  15
HETATM   15  N5  UNL     1      22.273  56.231   8.148  1.00  0.00    -0.208 N 
ATOM     16  H5  UNL     1      21.627  55.718   8.748  1.00  0.00     0.215 HD
BRANCH  15  17
HETATM   17  O3  UNL     1      23.478  56.218   8.461  1.00  0.00    -0.274 OA
ATOM     18  H3  UNL     1      24.032  56.985   8.547  1.00  0.00     0.246 HD
ENDBRANCH  15  17
ENDBRANCH  13  15
ENDBRANCH  10  13
BRANCH   1  19
HETATM   19  N1  UNL     1      18.132  59.436   7.886  1.00  0.00    -0.234 N 
ATOM     20  H12 UNL     1      17.939  60.239   8.485  1.00  0.00     0.174 HD
ATOM     21  H11 UNL     1      17.560  58.617   7.682  1.00  0.00     0.174 HD
ENDBRANCH   1  19
TORSDOF 4
ENDMDL
MODEL 5
REMARK VINA RESULT: -5.808881763      4.742      6.727
REMARK  4 active torsions:
REMARK  status: ('A' for Active; 'I' for Inactive)
REMARK    1  A    between atoms: N1_1  and  C1_4 
REMARK    2  A    between atoms: C4_13  and  N4_14 
REMARK    3  A    between atoms: N4_14  and  N5_16 
REMARK    4  A    between atoms: N5_16  and  O3_18 
ROOT
HETATM    1  C1  UNL     1      15.598  55.122  10.037  1.00  0.00     0.681 C 
HETATM    2  N2  UNL     1      15.846  56.027   9.057  1.00  0.00    -0.141 N 
ATOM      3  H2  UNL     1      15.414  55.865   8.147  1.00  0.00     0.189 HD
HETATM    4  C2  UNL     1      16.617  57.122   9.194  1.00  0.00     0.341 C 
HETATM    5  O1  UNL     1      16.609  57.877   8.187  1.00  0.00    -0.246 OA
HETATM    6  N3  UNL     1      17.373  57.500  10.247  1.00  0.00    -0.272 N 
ATOM      7  H3  UNL     1      17.761  58.442  10.191  1.00  0.00     0.174 HD
HETATM    8  C3  UNL     1      17.691  56.806  11.368  1.00  0.00     0.295 C 
HETATM    9  O2  UNL     1      18.432  57.352  12.220  1.00  0.00    -0.264 OA
HETATM   10  C4  UNL     1      17.305  55.532  11.727  1.00  0.00     0.205 C 
HETATM   11  N6  UNL     1      16.305  54.831  11.154  1.00  0.00    -0.170 N 
ATOM     12  H6  UNL     1      16.047  53.965  11.627  1.00  0.00     0.186 HD
ENDROOT
BRANCH  10  13
HETATM   13  N4  UNL     1      17.960  54.977  12.688  1.00  0.00    -0.261 N 
ATOM     14  H4  UNL     1      18.723  55.506  13.110  1.00  0.00     0.190 HD
BRANCH  13  15
HETATM   15  N5  UNL     1      17.700  53.720  13.185  1.00  0.00    -0.208 N 
ATOM     16  H5  UNL     1      18.314  52.962  12.886  1.00  0.00     0.215 HD
BRANCH  15  17
HETATM   17  O3  UNL     1      16.777  53.433  13.970  1.00  0.00    -0.274 OA
ATOM     18  H3  UNL     1      16.527  53.941  14.732  1.00  0.00     0.246 HD
ENDBRANCH  15  17
ENDBRANCH  13  15
ENDBRANCH  10  13
BRANCH   1  19
HETATM   19  N1  UNL     1      14.506  54.437   9.856  1.00  0.00    -0.234 N 
ATOM     20  H12 UNL     1      14.524  53.758   9.096  1.00  0.00     0.174 HD
ATOM     21  H11 UNL     1      13.760  54.671  10.510  1.00  0.00     0.174 HD
ENDBRANCH   1  19
TORSDOF 4
ENDMDL
