MODEL 1
REMARK VINA RESULT: -5.826575221      0.000      0.000
REMARK  5 active torsions:
REMARK  status: ('A' for Active; 'I' for Inactive)
REMARK    1  A    between atoms: C1_4  and  C2_6 
REMARK    2  A    between atoms: N4_12  and  C5_13 
REMARK    3  A    between atoms: C5_13  and  O2_14 
REMARK    4  A    between atoms: C5_13  and  N5_16 
REMARK    5  A    between atoms: N5_16  and  N6_18 
ROOT
HETATM    1  C2  UNL     1      17.638  58.291   8.092  1.00  0.00     0.106 A 
HETATM    2  C3  UNL     1      16.596  57.444   8.585  1.00  0.00     0.111 A 
HETATM    3  C4  UNL     1      17.168  56.315   9.078  1.00  0.00     0.262 A 
HETATM    4  O1  UNL     1      16.566  55.319   9.606  1.00  0.00    -0.267 OA
HETATM    5  N3  UNL     1      18.473  56.460   8.899  1.00  0.00    -0.256 N 
ATOM      6  H3  UNL     1      19.166  55.765   9.174  1.00  0.00     0.191 HD
HETATM    7  N4  UNL     1      18.781  57.648   8.303  1.00  0.00    -0.212 N 
ENDROOT
BRANCH   7   8
HETATM    8  C5  UNL     1      20.120  57.967   8.038  1.00  0.00     0.258 C 
BRANCH   8   9
HETATM    9  O2  UNL     1      20.544  59.076   8.665  1.00  0.00    -0.330 OA
ATOM     10  H2  UNL     1      20.737  59.797   8.077  1.00  0.00     0.221 HD
ENDBRANCH   8   9
BRANCH   8  11
HETATM   11  N5  UNL     1      21.146  57.445   7.294  1.00  0.00    -0.270 N 
ATOM     12  H5  UNL     1      21.217  57.647   6.297  1.00  0.00     0.190 HD
BRANCH  11  13
HETATM   13  N6  UNL     1      22.132  56.597   7.949  1.00  0.00    -0.342 N 
ATOM     14  H62 UNL     1      21.988  55.587   7.977  1.00  0.00     0.176 HD
ATOM     15  H61 UNL     1      22.954  57.029   8.370  1.00  0.00     0.176 HD
ENDBRANCH  11  13
ENDBRANCH   8  11
ENDBRANCH   7   8
BRANCH   1  16
HETATM   16  C1  UNL     1      17.302  59.558   7.513  1.00  0.00     0.139 C 
HETATM   17  N1  UNL     1      16.555  59.779   6.535  1.00  0.00    -0.386 N 
ATOM     18  H12 UNL     1      16.315  60.681   6.123  1.00  0.00     0.157 HD
ATOM     19  H11 UNL     1      16.157  58.933   6.128  1.00  0.00     0.157 HD
HETATM   20  N2  UNL     1      17.871  60.771   8.097  1.00  0.00    -0.081 NA
ENDBRANCH   1  16
TORSDOF 5
ENDMDL
MODEL 2
REMARK VINA RESULT: -5.784619504      1.208      1.300
REMARK  5 active torsions:
REMARK  status: ('A' for Active; 'I' for Inactive)
REMARK    1  A    between atoms: C1_4  and  C2_6 
REMARK    2  A    between atoms: N4_12  and  C5_13 
REMARK    3  A    between atoms: C5_13  and  O2_14 
REMARK    4  A    between atoms: C5_13  and  N5_16 
REMARK    5  A    between atoms: N5_16  and  N6_18 
ROOT
HETATM    1  C2  UNL     1      18.029  58.110   8.084  1.00  0.00     0.106 A 
HETATM    2  C3  UNL     1      16.893  57.442   8.639  1.00  0.00     0.111 A 
HETATM    3  C4  UNL     1      17.310  56.256   9.154  1.00  0.00     0.262 A 
HETATM    4  O1  UNL     1      16.588  55.376   9.736  1.00  0.00    -0.267 OA
HETATM    5  N3  UNL     1      18.615  56.201   8.929  1.00  0.00    -0.256 N 
ATOM      6  H3  UNL     1      19.208  55.419   9.207  1.00  0.00     0.191 HD
HETATM    7  N4  UNL     1      19.073  57.311   8.283  1.00  0.00    -0.212 N 
ENDROOT
BRANCH   7   8
HETATM    8  C5  UNL     1      20.433  57.420   7.965  1.00  0.00     0.258 C 
BRANCH   8   9
HETATM    9  O2  UNL     1      21.055  56.237   7.844  1.00  0.00    -0.330 OA
ATOM     10  H2  UNL     1      21.462  56.104   6.996  1.00  0.00     0.221 HD
ENDBRANCH   8   9
BRANCH   8  11
HETATM   11  N5  UNL     1      21.331  58.431   7.736  1.00  0.00    -0.270 N 
ATOM     12  H5  UNL     1      21.882  58.450   6.878  1.00  0.00     0.190 HD
BRANCH  11  13
HETATM   13  N6  UNL     1      21.485  59.478   8.737  1.00  0.00    -0.342 N 
ATOM     14  H62 UNL     1      20.718  59.676   9.380  1.00  0.00     0.176 HD
ATOM     15  H61 UNL     1      22.361  59.998   8.778  1.00  0.00     0.176 HD
ENDBRANCH  11  13
ENDBRANCH   8  11
ENDBRANCH   7   8
BRANCH   1  16
HETATM   16  C1  UNL     1      17.862  59.394   7.473  1.00  0.00     0.139 C 
HETATM   17  N1  UNL     1      17.054  59.715   6.574  1.00  0.00    -0.386 N 
ATOM     18  H12 UNL     1      16.935  60.630   6.138  1.00  0.00     0.157 HD
ATOM     19  H11 UNL     1      16.461  58.945   6.266  1.00  0.00     0.157 HD
HETATM   20  N2  UNL     1      18.711  60.499   7.914  1.00  0.00    -0.081 NA
ENDBRANCH   1  16
TORSDOF 5
ENDMDL
MODEL 3
REMARK VINA RESULT: -5.750153395      2.546      4.807
REMARK  5 active torsions:
REMARK  status: ('A' for Active; 'I' for Inactive)
REMARK    1  A    between atoms: C1_4  and  C2_6 
REMARK    2  A    between atoms: N4_12  and  C5_13 
REMARK    3  A    between atoms: C5_13  and  O2_14 
REMARK    4  A    between atoms: C5_13  and  N5_16 
REMARK    5  A    between atoms: N5_16  and  N6_18 
ROOT
HETATM    1  C2  UNL     1      18.905  58.584   8.005  1.00  0.00     0.106 A 
HETATM    2  C3  UNL     1      20.153  58.330   7.355  1.00  0.00     0.111 A 
HETATM    3  C4  UNL     1      20.439  59.392   6.558  1.00  0.00     0.262 A 
HETATM    4  O1  UNL     1      21.469  59.539   5.816  1.00  0.00    -0.267 OA
HETATM    5  N3  UNL     1      19.433  60.241   6.710  1.00  0.00    -0.256 N 
ATOM      6  H3  UNL     1      19.369  61.140   6.232  1.00  0.00     0.191 HD
HETATM    7  N4  UNL     1      18.492  59.774   7.581  1.00  0.00    -0.212 N 
ENDROOT
BRANCH   7   8
HETATM    8  C5  UNL     1      17.357  60.547   7.859  1.00  0.00     0.258 C 
BRANCH   8   9
HETATM    9  O2  UNL     1      17.377  61.116   9.075  1.00  0.00    -0.330 OA
ATOM     10  H2  UNL     1      16.584  61.595   9.285  1.00  0.00     0.221 HD
ENDBRANCH   8   9
BRANCH   8  11
HETATM   11  N5  UNL     1      16.197  60.892   7.215  1.00  0.00    -0.270 N 
ATOM     12  H5  UNL     1      15.544  60.173   6.904  1.00  0.00     0.190 HD
BRANCH  11  13
HETATM   13  N6  UNL     1      15.912  62.301   6.981  1.00  0.00    -0.342 N 
ATOM     14  H62 UNL     1      16.604  62.882   6.506  1.00  0.00     0.176 HD
ATOM     15  H61 UNL     1      15.022  62.684   7.298  1.00  0.00     0.176 HD
ENDBRANCH  11  13
ENDBRANCH   8  11
ENDBRANCH   7   8
BRANCH   1  16
HETATM   16  C1  UNL     1      18.371  57.612   8.910  1.00  0.00     0.139 C 
HETATM   17  N1  UNL     1      18.446  56.366   8.828  1.00  0.00    -0.386 N 
ATOM     18  H12 UNL     1      18.065  55.673   9.472  1.00  0.00     0.157 HD
ATOM     19  H11 UNL     1      18.956  56.043   8.006  1.00  0.00     0.157 HD
HETATM   20  N2  UNL     1      17.640  58.074  10.089  1.00  0.00    -0.081 NA
ENDBRANCH   1  16
TORSDOF 5
ENDMDL
MODEL 4
REMARK VINA RESULT: -5.741555508      1.756      3.285
REMARK  5 active torsions:
REMARK  status: ('A' for Active; 'I' for Inactive)
REMARK    1  A    between atoms: C1_4  and  C2_6 
REMARK    2  A    between atoms: N4_12  and  C5_13 
REMARK    3  A    between atoms: C5_13  and  O2_14 
REMARK    4  A    between atoms: C5_13  and  N5_16 
REMARK    5  A    between atoms: N5_16  and  N6_18 
ROOT
HETATM    1  C2  UNL     1      19.042  57.334   8.280  1.00  0.00     0.106 A 
HETATM    2  C3  UNL     1      18.454  56.240   8.989  1.00  0.00     0.111 A 
HETATM    3  C4  UNL     1      17.113  56.449   9.050  1.00  0.00     0.262 A 
HETATM    4  O1  UNL     1      16.243  55.692   9.602  1.00  0.00    -0.267 OA
HETATM    5  N3  UNL     1      16.894  57.594   8.420  1.00  0.00    -0.256 N 
ATOM      6  H3  UNL     1      15.972  58.013   8.303  1.00  0.00     0.191 HD
HETATM    7  N4  UNL     1      18.047  58.149   7.946  1.00  0.00    -0.212 N 
ENDROOT
BRANCH   7   8
HETATM    8  C5  UNL     1      18.000  59.365   7.252  1.00  0.00     0.258 C 
BRANCH   8   9
HETATM    9  O2  UNL     1      16.922  59.494   6.462  1.00  0.00    -0.330 OA
ATOM     10  H2  UNL     1      16.098  59.398   6.924  1.00  0.00     0.221 HD
ENDBRANCH   8   9
BRANCH   8  11
HETATM   11  N5  UNL     1      18.774  60.493   7.153  1.00  0.00    -0.270 N 
ATOM     12  H5  UNL     1      18.503  61.350   7.635  1.00  0.00     0.190 HD
BRANCH  11  13
HETATM   13  N6  UNL     1      19.988  60.448   6.351  1.00  0.00    -0.342 N 
ATOM     14  H62 UNL     1      19.969  60.789   5.390  1.00  0.00     0.176 HD
ATOM     15  H61 UNL     1      20.841  60.074   6.766  1.00  0.00     0.176 HD
ENDBRANCH  11  13
ENDBRANCH   8  11
ENDBRANCH   7   8
BRANCH   1  16
HETATM   16  C1  UNL     1      20.459  57.359   8.074  1.00  0.00     0.139 C 
HETATM   17  N1  UNL     1      21.194  56.424   7.687  1.00  0.00    -0.386 N 
ATOM     18  H12 UNL     1      22.204  56.442   7.540  1.00  0.00     0.157 HD
ATOM     19  H11 UNL     1      20.688  55.557   7.508  1.00  0.00     0.157 HD
HETATM   20  N2  UNL     1      21.186  58.601   8.331  1.00  0.00    -0.081 NA
ENDBRANCH   1  16
TORSDOF 5
ENDMDL
MODEL 5
REMARK VINA RESULT: -5.734197939      2.180      3.825
REMARK  5 active torsions:
REMARK  status: ('A' for Active; 'I' for Inactive)
REMARK    1  A    between atoms: C1_4  and  C2_6 
REMARK    2  A    between atoms: N4_12  and  C5_13 
REMARK    3  A    between atoms: C5_13  and  O2_14 
REMARK    4  A    between atoms: C5_13  and  N5_16 
REMARK    5  A    between atoms: N5_16  and  N6_18 
ROOT
HETATM    1  C2  UNL     1      17.854  58.182   8.103  1.00  0.00     0.106 A 
HETATM    2  C3  UNL     1      17.985  56.954   8.824  1.00  0.00     0.111 A 
HETATM    3  C4  UNL     1      16.739  56.469   9.061  1.00  0.00     0.262 A 
HETATM    4  O1  UNL     1      16.442  55.390   9.678  1.00  0.00    -0.267 OA
HETATM    5  N3  UNL     1      15.900  57.341   8.521  1.00  0.00    -0.256 N 
ATOM      6  H3  UNL     1      14.885  57.242   8.541  1.00  0.00     0.191 HD
HETATM    7  N4  UNL     1      16.551  58.387   7.936  1.00  0.00    -0.212 N 
ENDROOT
BRANCH   7   8
HETATM    8  C5  UNL     1      15.815  59.405   7.315  1.00  0.00     0.258 C 
BRANCH   8   9
HETATM    9  O2  UNL     1      14.491  59.184   7.305  1.00  0.00    -0.330 OA
ATOM     10  H2  UNL     1      14.112  59.099   8.172  1.00  0.00     0.221 HD
ENDBRANCH   8   9
BRANCH   8  11
HETATM   11  N5  UNL     1      16.082  60.599   6.696  1.00  0.00    -0.270 N 
ATOM     12  H5  UNL     1      16.040  60.676   5.681  1.00  0.00     0.190 HD
BRANCH  11  13
HETATM   13  N6  UNL     1      16.425  61.755   7.512  1.00  0.00    -0.342 N 
ATOM     14  H62 UNL     1      15.873  61.967   8.344  1.00  0.00     0.176 HD
ATOM     15  H61 UNL     1      17.216  62.337   7.237  1.00  0.00     0.176 HD
ENDBRANCH  11  13
ENDBRANCH   8  11
ENDBRANCH   7   8
BRANCH   1  16
HETATM   16  C1  UNL     1      19.030  58.906   7.724  1.00  0.00     0.139 C 
HETATM   17  N1  UNL     1      20.054  58.463   7.159  1.00  0.00    -0.386 N 
ATOM     18  H12 UNL     1      20.891  58.979   6.888  1.00  0.00     0.157 HD
ATOM     19  H11 UNL     1      20.008  57.464   6.961  1.00  0.00     0.157 HD
HETATM   20  N2  UNL     1      19.096  60.339   8.006  1.00  0.00    -0.081 NA
ENDBRANCH   1  16
TORSDOF 5
ENDMDL
