MODEL 1
REMARK VINA RESULT: -5.521968297      0.000      0.000
REMARK  5 active torsions:
REMARK  status: ('A' for Active; 'I' for Inactive)
REMARK    1  A    between atoms: N1_1  and  C1_4 
REMARK    2  A    between atoms: C2_9  and  C3_10 
REMARK    3  A    between atoms: C3_10  and  O2_12 
REMARK    4  A    between atoms: O2_12  and  N4_13 
REMARK    5  A    between atoms: N4_13  and  N5_14 
ROOT
HETATM    1  C1  UNL     1      15.193  64.126   6.542  1.00  0.00     0.693 A 
HETATM    2  N2  UNL     1      16.437  63.689   6.708  1.00  0.00    -0.132 N 
ATOM      3  H2  UNL     1      17.229  64.295   6.495  1.00  0.00     0.205 HD
HETATM    4  N3  UNL     1      16.637  62.462   7.151  1.00  0.00    -0.276 N 
ATOM      5  H3  UNL     1      17.597  62.139   7.273  1.00  0.00     0.188 HD
HETATM    6  C2  UNL     1      15.629  61.616   7.450  1.00  0.00     0.194 A 
HETATM    7  C4  UNL     1      14.350  62.078   7.274  1.00  0.00     0.294 A 
HETATM    8  O3  UNL     1      13.374  61.343   7.532  1.00  0.00    -0.265 OA
HETATM    9  N6  UNL     1      14.123  63.322   6.825  1.00  0.00    -0.153 N 
ATOM     10  H6  UNL     1      13.170  63.662   6.697  1.00  0.00     0.187 HD
ENDROOT
BRANCH   6  11
HETATM   11  C3  UNL     1      15.897  60.262   7.938  1.00  0.00     0.336 C 
HETATM   12  O1  UNL     1      16.209  59.320   7.166  1.00  0.00    -0.256 OA
BRANCH  11  13
HETATM   13  O2  UNL     1      15.820  59.963   9.286  1.00  0.00    -0.180 OA
BRANCH  13  14
HETATM   14  N4  UNL     1      14.806  59.248   9.842  1.00  0.00     0.022 NA
BRANCH  14  15
HETATM   15  N5  UNL     1      13.915  58.718   8.932  1.00  0.00    -0.322 N 
ATOM     16  H52 UNL     1      14.119  57.864   8.412  1.00  0.00     0.174 HD
ATOM     17  H51 UNL     1      13.050  59.249   8.829  1.00  0.00     0.174 HD
ENDBRANCH  14  15
ENDBRANCH  13  14
ENDBRANCH  11  13
ENDBRANCH   6  11
BRANCH   1  18
HETATM   18  N1  UNL     1      14.911  65.315   6.112  1.00  0.00    -0.233 N 
ATOM     19  H12 UNL     1      14.866  65.425   5.099  1.00  0.00     0.174 HD
ATOM     20  H11 UNL     1      14.740  66.107   6.731  1.00  0.00     0.174 HD
ENDBRANCH   1  18
TORSDOF 5
ENDMDL
MODEL 2
REMARK VINA RESULT: -5.487582823      4.635      6.056
REMARK  5 active torsions:
REMARK  status: ('A' for Active; 'I' for Inactive)
REMARK    1  A    between atoms: N1_1  and  C1_4 
REMARK    2  A    between atoms: C2_9  and  C3_10 
REMARK    3  A    between atoms: C3_10  and  O2_12 
REMARK    4  A    between atoms: O2_12  and  N4_13 
REMARK    5  A    between atoms: N4_13  and  N5_14 
ROOT
HETATM    1  C1  UNL     1      16.598  59.067   7.898  1.00  0.00     0.693 A 
HETATM    2  N2  UNL     1      17.236  60.090   7.336  1.00  0.00    -0.132 N 
ATOM      3  H2  UNL     1      16.729  60.940   7.091  1.00  0.00     0.205 HD
HETATM    4  N3  UNL     1      18.529  59.993   7.097  1.00  0.00    -0.276 N 
ATOM      5  H3  UNL     1      19.005  60.784   6.665  1.00  0.00     0.188 HD
HETATM    6  C2  UNL     1      19.251  58.892   7.400  1.00  0.00     0.194 A 
HETATM    7  C4  UNL     1      18.583  57.844   7.979  1.00  0.00     0.294 A 
HETATM    8  O3  UNL     1      19.194  56.799   8.282  1.00  0.00    -0.265 OA
HETATM    9  N6  UNL     1      17.268  57.922   8.231  1.00  0.00    -0.153 N 
ATOM     10  H6  UNL     1      16.775  57.140   8.663  1.00  0.00     0.187 HD
ENDROOT
BRANCH   6  11
HETATM   11  C3  UNL     1      20.686  58.829   7.117  1.00  0.00     0.336 C 
HETATM   12  O1  UNL     1      21.138  58.805   5.945  1.00  0.00    -0.256 OA
BRANCH  11  13
HETATM   13  O2  UNL     1      21.613  58.793   8.143  1.00  0.00    -0.180 OA
BRANCH  13  14
HETATM   14  N4  UNL     1      22.600  57.863   8.234  1.00  0.00     0.022 NA
BRANCH  14  15
HETATM   15  N5  UNL     1      22.204  56.578   7.925  1.00  0.00    -0.322 N 
ATOM     16  H52 UNL     1      21.740  56.354   7.045  1.00  0.00     0.174 HD
ATOM     17  H51 UNL     1      22.416  55.886   8.644  1.00  0.00     0.174 HD
ENDBRANCH  14  15
ENDBRANCH  13  14
ENDBRANCH  11  13
ENDBRANCH   6  11
BRANCH   1  18
HETATM   18  N1  UNL     1      15.330  59.082   8.164  1.00  0.00    -0.233 N 
ATOM     19  H12 UNL     1      14.823  59.917   7.875  1.00  0.00     0.174 HD
ATOM     20  H11 UNL     1      14.850  58.315   8.634  1.00  0.00     0.174 HD
ENDBRANCH   1  18
TORSDOF 5
ENDMDL
MODEL 3
REMARK VINA RESULT: -5.463500452      4.630      5.451
REMARK  5 active torsions:
REMARK  status: ('A' for Active; 'I' for Inactive)
REMARK    1  A    between atoms: N1_1  and  C1_4 
REMARK    2  A    between atoms: C2_9  and  C3_10 
REMARK    3  A    between atoms: C3_10  and  O2_12 
REMARK    4  A    between atoms: O2_12  and  N4_13 
REMARK    5  A    between atoms: N4_13  and  N5_14 
ROOT
HETATM    1  C1  UNL     1      20.230  59.536   6.925  1.00  0.00     0.693 A 
HETATM    2  N2  UNL     1      20.813  58.769   7.841  1.00  0.00    -0.132 N 
ATOM      3  H2  UNL     1      21.829  58.751   7.925  1.00  0.00     0.205 HD
HETATM    4  N3  UNL     1      20.065  58.033   8.640  1.00  0.00    -0.276 N 
ATOM      5  H3  UNL     1      20.526  57.450   9.338  1.00  0.00     0.188 HD
HETATM    6  C2  UNL     1      18.716  58.018   8.575  1.00  0.00     0.194 A 
HETATM    7  C4  UNL     1      18.126  58.812   7.625  1.00  0.00     0.294 A 
HETATM    8  O3  UNL     1      16.883  58.842   7.514  1.00  0.00    -0.265 OA
HETATM    9  N6  UNL     1      18.868  59.569   6.803  1.00  0.00    -0.153 N 
ATOM     10  H6  UNL     1      18.425  60.159   6.099  1.00  0.00     0.187 HD
ENDROOT
BRANCH   6  11
HETATM   11  C3  UNL     1      17.924  57.185   9.482  1.00  0.00     0.336 C 
HETATM   12  O1  UNL     1      17.585  56.011   9.189  1.00  0.00    -0.256 OA
BRANCH  11  13
HETATM   13  O2  UNL     1      17.516  57.664  10.713  1.00  0.00    -0.180 OA
BRANCH  13  14
HETATM   14  N4  UNL     1      18.147  57.373  11.881  1.00  0.00     0.022 NA
BRANCH  14  15
HETATM   15  N5  UNL     1      17.894  56.107  12.368  1.00  0.00    -0.322 N 
ATOM     16  H52 UNL     1      18.147  55.268  11.845  1.00  0.00     0.174 HD
ATOM     17  H51 UNL     1      17.441  56.089  13.281  1.00  0.00     0.174 HD
ENDBRANCH  14  15
ENDBRANCH  13  14
ENDBRANCH  11  13
ENDBRANCH   6  11
BRANCH   1  18
HETATM   18  N1  UNL     1      20.892  60.287   6.102  1.00  0.00    -0.233 N 
ATOM     19  H12 UNL     1      21.740  60.715   6.473  1.00  0.00     0.174 HD
ATOM     20  H11 UNL     1      20.601  60.453   5.140  1.00  0.00     0.174 HD
ENDBRANCH   1  18
TORSDOF 5
ENDMDL
MODEL 4
REMARK VINA RESULT: -5.441944808      3.129      4.561
REMARK  5 active torsions:
REMARK  status: ('A' for Active; 'I' for Inactive)
REMARK    1  A    between atoms: N1_1  and  C1_4 
REMARK    2  A    between atoms: C2_9  and  C3_10 
REMARK    3  A    between atoms: C3_10  and  O2_12 
REMARK    4  A    between atoms: O2_12  and  N4_13 
REMARK    5  A    between atoms: N4_13  and  N5_14 
ROOT
HETATM    1  C1  UNL     1      16.125  60.456   7.525  1.00  0.00     0.693 A 
HETATM    2  N2  UNL     1      15.536  59.723   8.465  1.00  0.00    -0.132 N 
ATOM      3  H2  UNL     1      14.585  59.939   8.765  1.00  0.00     0.205 HD
HETATM    4  N3  UNL     1      16.192  58.716   9.006  1.00  0.00    -0.276 N 
ATOM      5  H3  UNL     1      15.728  58.162   9.727  1.00  0.00     0.188 HD
HETATM    6  C2  UNL     1      17.452  58.383   8.649  1.00  0.00     0.194 A 
HETATM    7  C4  UNL     1      18.050  59.147   7.679  1.00  0.00     0.294 A 
HETATM    8  O3  UNL     1      19.212  58.891   7.305  1.00  0.00    -0.265 OA
HETATM    9  N6  UNL     1      17.400  60.176   7.115  1.00  0.00    -0.153 N 
ATOM     10  H6  UNL     1      17.848  60.740   6.393  1.00  0.00     0.187 HD
ENDROOT
BRANCH   6  11
HETATM   11  C3  UNL     1      18.143  57.256   9.277  1.00  0.00     0.336 C 
HETATM   12  O1  UNL     1      18.327  56.166   8.680  1.00  0.00    -0.256 OA
BRANCH  11  13
HETATM   13  O2  UNL     1      18.629  57.349  10.568  1.00  0.00    -0.180 OA
BRANCH  13  14
HETATM   14  N4  UNL     1      17.833  57.435  11.667  1.00  0.00     0.022 NA
BRANCH  14  15
HETATM   15  N5  UNL     1      18.445  57.063  12.846  1.00  0.00    -0.322 N 
ATOM     16  H52 UNL     1      19.042  56.238  12.907  1.00  0.00     0.174 HD
ATOM     17  H51 UNL     1      18.250  57.678  13.636  1.00  0.00     0.174 HD
ENDBRANCH  14  15
ENDBRANCH  13  14
ENDBRANCH  11  13
ENDBRANCH   6  11
BRANCH   1  18
HETATM   18  N1  UNL     1      15.550  61.462   6.945  1.00  0.00    -0.233 N 
ATOM     19  H12 UNL     1      14.594  61.307   6.628  1.00  0.00     0.174 HD
ATOM     20  H11 UNL     1      16.008  62.361   6.804  1.00  0.00     0.174 HD
ENDBRANCH   1  18
TORSDOF 5
ENDMDL
MODEL 5
REMARK VINA RESULT: -5.438919515      5.255      7.814
REMARK  5 active torsions:
REMARK  status: ('A' for Active; 'I' for Inactive)
REMARK    1  A    between atoms: N1_1  and  C1_4 
REMARK    2  A    between atoms: C2_9  and  C3_10 
REMARK    3  A    between atoms: C3_10  and  O2_12 
REMARK    4  A    between atoms: O2_12  and  N4_13 
REMARK    5  A    between atoms: N4_13  and  N5_14 
ROOT
HETATM    1  C1  UNL     1      17.314  54.441  12.405  1.00  0.00     0.693 A 
HETATM    2  N2  UNL     1      16.301  54.153  11.594  1.00  0.00    -0.132 N 
ATOM      3  H2  UNL     1      15.827  53.252  11.662  1.00  0.00     0.205 HD
HETATM    4  N3  UNL     1      15.914  55.043  10.700  1.00  0.00    -0.276 N 
ATOM      5  H3  UNL     1      15.136  54.808  10.084  1.00  0.00     0.188 HD
HETATM    6  C2  UNL     1      16.503  56.251  10.565  1.00  0.00     0.194 A 
HETATM    7  C4  UNL     1      17.548  56.536  11.406  1.00  0.00     0.294 A 
HETATM    8  O3  UNL     1      18.133  57.636  11.330  1.00  0.00    -0.265 OA
HETATM    9  N6  UNL     1      17.957  55.646  12.323  1.00  0.00    -0.153 N 
ATOM     10  H6  UNL     1      18.733  55.863  12.948  1.00  0.00     0.187 HD
ENDROOT
BRANCH   6  11
HETATM   11  C3  UNL     1      16.041  57.208   9.558  1.00  0.00     0.336 C 
HETATM   12  O1  UNL     1      16.561  57.283   8.416  1.00  0.00    -0.256 OA
BRANCH  11  13
HETATM   13  O2  UNL     1      15.000  58.077   9.828  1.00  0.00    -0.180 OA
BRANCH  13  14
HETATM   14  N4  UNL     1      13.919  57.746  10.582  1.00  0.00     0.022 NA
BRANCH  14  15
HETATM   15  N5  UNL     1      12.896  58.672  10.552  1.00  0.00    -0.322 N 
ATOM     16  H52 UNL     1      12.965  59.566  11.038  1.00  0.00     0.174 HD
ATOM     17  H51 UNL     1      12.083  58.385  10.009  1.00  0.00     0.174 HD
ENDBRANCH  14  15
ENDBRANCH  13  14
ENDBRANCH  11  13
ENDBRANCH   6  11
BRANCH   1  18
HETATM   18  N1  UNL     1      17.755  53.623  13.308  1.00  0.00    -0.233 N 
ATOM     19  H12 UNL     1      17.472  53.823  14.267  1.00  0.00     0.174 HD
ATOM     20  H11 UNL     1      18.349  52.823  13.094  1.00  0.00     0.174 HD
ENDBRANCH   1  18
TORSDOF 5
ENDMDL
