MODEL 1
REMARK VINA RESULT: -5.323220540      0.000      0.000
REMARK  4 active torsions:
REMARK  status: ('A' for Active; 'I' for Inactive)
REMARK    1  A    between atoms: N1_1  and  N2_4 
REMARK    2  A    between atoms: N2_4  and  C1_6 
REMARK    3  A    between atoms: C2_14  and  N5_15 
REMARK    4  A    between atoms: N5_15  and  N6_17 
ROOT
HETATM    1  C1  UNL     1      19.076  59.343   7.374  1.00  0.00     0.177 A 
HETATM    2  N3  UNL     1      19.865  58.534   8.234  1.00  0.00    -0.248 N 
ATOM      3  H3  UNL     1      20.868  58.587   8.410  1.00  0.00     0.182 HD
HETATM    4  S1  UNL     1      18.711  57.437   8.911  1.00  0.00     0.326 S 
HETATM    5  O1  UNL     1      19.008  56.016   8.535  1.00  0.00    -0.182 OA
HETATM    6  O2  UNL     1      18.607  57.624  10.394  1.00  0.00    -0.182 OA
HETATM    7  N4  UNL     1      17.320  58.042   8.092  1.00  0.00    -0.248 N 
ATOM      8  H4  UNL     1      16.368  57.686   8.183  1.00  0.00     0.182 HD
HETATM    9  C2  UNL     1      17.689  59.016   7.348  1.00  0.00     0.177 A 
ENDROOT
BRANCH   1  10
HETATM   10  N2  UNL     1      19.608  60.312   6.672  1.00  0.00    -0.288 N 
ATOM     11  H2  UNL     1      19.093  61.186   6.573  1.00  0.00     0.188 HD
BRANCH  10  12
HETATM   12  N1  UNL     1      20.835  60.195   6.062  1.00  0.00    -0.344 N 
ATOM     13  H12 UNL     1      21.465  59.467   6.399  1.00  0.00     0.176 HD
ATOM     14  H11 UNL     1      21.128  60.804   5.298  1.00  0.00     0.176 HD
ENDBRANCH  10  12
ENDBRANCH   1  10
BRANCH   9  15
HETATM   15  N5  UNL     1      16.705  59.715   6.538  1.00  0.00    -0.288 N 
ATOM     16  H5  UNL     1      16.517  59.385   5.592  1.00  0.00     0.188 HD
BRANCH  15  17
HETATM   17  N6  UNL     1      16.037  60.786   7.003  1.00  0.00    -0.344 N 
ATOM     18  H62 UNL     1      16.167  61.047   7.980  1.00  0.00     0.176 HD
ATOM     19  H61 UNL     1      15.413  61.330   6.407  1.00  0.00     0.176 HD
ENDBRANCH  15  17
ENDBRANCH   9  15
TORSDOF 4
ENDMDL
MODEL 2
REMARK VINA RESULT: -5.253446477      0.102      2.944
REMARK  4 active torsions:
REMARK  status: ('A' for Active; 'I' for Inactive)
REMARK    1  A    between atoms: N1_1  and  N2_4 
REMARK    2  A    between atoms: N2_4  and  C1_6 
REMARK    3  A    between atoms: C2_14  and  N5_15 
REMARK    4  A    between atoms: N5_15  and  N6_17 
ROOT
HETATM    1  C1  UNL     1      17.607  59.030   7.324  1.00  0.00     0.177 A 
HETATM    2  N3  UNL     1      17.182  57.956   8.149  1.00  0.00    -0.248 N 
ATOM      3  H3  UNL     1      16.242  57.580   8.266  1.00  0.00     0.182 HD
HETATM    4  S1  UNL     1      18.649  57.439   8.909  1.00  0.00     0.326 S 
HETATM    5  O1  UNL     1      18.596  57.615  10.397  1.00  0.00    -0.182 OA
HETATM    6  O2  UNL     1      18.984  56.033   8.513  1.00  0.00    -0.182 OA
HETATM    7  N4  UNL     1      19.702  58.581   8.162  1.00  0.00    -0.248 N 
ATOM      8  H4  UNL     1      20.708  58.659   8.315  1.00  0.00     0.182 HD
HETATM    9  C2  UNL     1      19.002  59.316   7.382  1.00  0.00     0.177 A 
ENDROOT
BRANCH   1  10
HETATM   10  N2  UNL     1      16.760  59.690   6.574  1.00  0.00    -0.288 N 
ATOM     11  H2  UNL     1      16.574  59.352   5.630  1.00  0.00     0.188 HD
BRANCH  10  12
HETATM   12  N1  UNL     1      16.112  60.822   7.011  1.00  0.00    -0.344 N 
ATOM     13  H12 UNL     1      16.595  61.413   7.688  1.00  0.00     0.176 HD
ATOM     14  H11 UNL     1      15.181  61.081   6.685  1.00  0.00     0.176 HD
ENDBRANCH  10  12
ENDBRANCH   1  10
BRANCH   9  15
HETATM   15  N5  UNL     1      19.647  60.373   6.620  1.00  0.00    -0.288 N 
ATOM     16  H5  UNL     1      19.211  61.294   6.583  1.00  0.00     0.188 HD
BRANCH  15  17
HETATM   17  N6  UNL     1      20.802  60.169   5.962  1.00  0.00    -0.344 N 
ATOM     18  H62 UNL     1      20.824  60.359   4.960  1.00  0.00     0.176 HD
ATOM     19  H61 UNL     1      21.640  59.835   6.437  1.00  0.00     0.176 HD
ENDBRANCH  15  17
ENDBRANCH   9  15
TORSDOF 4
ENDMDL
MODEL 3
REMARK VINA RESULT: -5.229105392     10.496     11.603
REMARK  4 active torsions:
REMARK  status: ('A' for Active; 'I' for Inactive)
REMARK    1  A    between atoms: N1_1  and  N2_4 
REMARK    2  A    between atoms: N2_4  and  C1_6 
REMARK    3  A    between atoms: C2_14  and  N5_15 
REMARK    4  A    between atoms: N5_15  and  N6_17 
ROOT
HETATM    1  C1  UNL     1      14.587  52.153  15.460  1.00  0.00     0.177 A 
HETATM    2  N3  UNL     1      13.858  52.901  16.421  1.00  0.00    -0.248 N 
ATOM      3  H3  UNL     1      14.189  53.660  17.016  1.00  0.00     0.182 HD
HETATM    4  S1  UNL     1      12.273  52.211  16.340  1.00  0.00     0.326 S 
HETATM    5  O1  UNL     1      11.877  51.574  17.638  1.00  0.00    -0.182 OA
HETATM    6  O2  UNL     1      11.276  53.227  15.876  1.00  0.00    -0.182 OA
HETATM    7  N4  UNL     1      12.603  51.037  15.121  1.00  0.00    -0.248 N 
ATOM      8  H4  UNL     1      11.935  50.370  14.735  1.00  0.00     0.182 HD
HETATM    9  C2  UNL     1      13.833  51.148  14.785  1.00  0.00     0.177 A 
ENDROOT
BRANCH   1  10
HETATM   10  N2  UNL     1      15.853  52.390  15.228  1.00  0.00    -0.288 N 
ATOM     11  H2  UNL     1      16.554  51.899  15.784  1.00  0.00     0.188 HD
BRANCH  10  12
HETATM   12  N1  UNL     1      16.276  53.276  14.265  1.00  0.00    -0.344 N 
ATOM     13  H12 UNL     1      15.562  53.748  13.710  1.00  0.00     0.176 HD
ATOM     14  H11 UNL     1      17.263  53.470  14.093  1.00  0.00     0.176 HD
ENDBRANCH  10  12
ENDBRANCH   1  10
BRANCH   9  15
HETATM   15  N5  UNL     1      14.383  50.269  13.766  1.00  0.00    -0.288 N 
ATOM     16  H5  UNL     1      15.069  49.564  14.035  1.00  0.00     0.188 HD
BRANCH  15  17
HETATM   17  N6  UNL     1      14.011  50.361  12.476  1.00  0.00    -0.344 N 
ATOM     18  H62 UNL     1      14.330  51.167  11.940  1.00  0.00     0.176 HD
ATOM     19  H61 UNL     1      13.426  49.652  12.034  1.00  0.00     0.176 HD
ENDBRANCH  15  17
ENDBRANCH   9  15
TORSDOF 4
ENDMDL
MODEL 4
REMARK VINA RESULT: -5.139275011      2.204      3.293
REMARK  4 active torsions:
REMARK  status: ('A' for Active; 'I' for Inactive)
REMARK    1  A    between atoms: N1_1  and  N2_4 
REMARK    2  A    between atoms: N2_4  and  C1_6 
REMARK    3  A    between atoms: C2_14  and  N5_15 
REMARK    4  A    between atoms: N5_15  and  N6_17 
ROOT
HETATM    1  C1  UNL     1      18.414  58.215   8.052  1.00  0.00     0.177 A 
HETATM    2  N3  UNL     1      19.769  58.162   8.475  1.00  0.00    -0.248 N 
ATOM      3  H3  UNL     1      20.217  57.474   9.080  1.00  0.00     0.182 HD
HETATM    4  S1  UNL     1      20.475  59.547   7.716  1.00  0.00     0.326 S 
HETATM    5  O1  UNL     1      20.983  60.535   8.722  1.00  0.00    -0.182 OA
HETATM    6  O2  UNL     1      21.533  59.134   6.738  1.00  0.00    -0.182 OA
HETATM    7  N4  UNL     1      19.054  60.112   6.918  1.00  0.00    -0.248 N 
ATOM      8  H4  UNL     1      18.988  60.940   6.326  1.00  0.00     0.182 HD
HETATM    9  C2  UNL     1      18.096  59.312   7.199  1.00  0.00     0.177 A 
ENDROOT
BRANCH   1  10
HETATM   10  N2  UNL     1      17.546  57.312   8.430  1.00  0.00    -0.288 N 
ATOM     11  H2  UNL     1      16.560  57.459   8.215  1.00  0.00     0.188 HD
BRANCH  10  12
HETATM   12  N1  UNL     1      17.912  56.171   9.106  1.00  0.00    -0.344 N 
ATOM     13  H12 UNL     1      18.236  56.274  10.068  1.00  0.00     0.176 HD
ATOM     14  H11 UNL     1      17.870  55.244   8.682  1.00  0.00     0.176 HD
ENDBRANCH  10  12
ENDBRANCH   1  10
BRANCH   9  15
HETATM   15  N5  UNL     1      16.771  59.556   6.653  1.00  0.00    -0.288 N 
ATOM     16  H5  UNL     1      16.370  58.879   6.004  1.00  0.00     0.188 HD
BRANCH  15  17
HETATM   17  N6  UNL     1      16.060  60.651   6.979  1.00  0.00    -0.344 N 
ATOM     18  H62 UNL     1      15.049  60.621   6.854  1.00  0.00     0.176 HD
ATOM     19  H61 UNL     1      16.506  61.493   7.341  1.00  0.00     0.176 HD
ENDBRANCH  15  17
ENDBRANCH   9  15
TORSDOF 4
ENDMDL
MODEL 5
REMARK VINA RESULT: -5.049283553      1.857      3.134
REMARK  4 active torsions:
REMARK  status: ('A' for Active; 'I' for Inactive)
REMARK    1  A    between atoms: N1_1  and  N2_4 
REMARK    2  A    between atoms: N2_4  and  C1_6 
REMARK    3  A    between atoms: C2_14  and  N5_15 
REMARK    4  A    between atoms: N5_15  and  N6_17 
ROOT
HETATM    1  C1  UNL     1      17.696  59.234   7.165  1.00  0.00     0.177 A 
HETATM    2  N3  UNL     1      18.951  59.818   6.853  1.00  0.00    -0.248 N 
ATOM      3  H3  UNL     1      19.144  60.625   6.260  1.00  0.00     0.182 HD
HETATM    4  S1  UNL     1      20.074  58.829   7.722  1.00  0.00     0.326 S 
HETATM    5  O1  UNL     1      21.020  58.119   6.799  1.00  0.00    -0.182 OA
HETATM    6  O2  UNL     1      20.790  59.631   8.765  1.00  0.00    -0.182 OA
HETATM    7  N4  UNL     1      18.926  57.750   8.421  1.00  0.00    -0.248 N 
ATOM      8  H4  UNL     1      19.138  56.966   9.039  1.00  0.00     0.182 HD
HETATM    9  C2  UNL     1      17.760  58.103   8.032  1.00  0.00     0.177 A 
ENDROOT
BRANCH   1  10
HETATM   10  N2  UNL     1      16.579  59.718   6.682  1.00  0.00    -0.288 N 
ATOM     11  H2  UNL     1      16.087  59.190   5.961  1.00  0.00     0.188 HD
BRANCH  10  12
HETATM   12  N1  UNL     1      16.045  60.911   7.109  1.00  0.00    -0.344 N 
ATOM     13  H12 UNL     1      16.502  61.383   7.889  1.00  0.00     0.176 HD
ATOM     14  H11 UNL     1      15.220  61.328   6.677  1.00  0.00     0.176 HD
ENDBRANCH  10  12
ENDBRANCH   1  10
BRANCH   9  15
HETATM   15  N5  UNL     1      16.595  57.356   8.477  1.00  0.00    -0.288 N 
ATOM     16  H5  UNL     1      15.665  57.694   8.230  1.00  0.00     0.188 HD
BRANCH  15  17
HETATM   17  N6  UNL     1      16.710  56.232   9.206  1.00  0.00    -0.344 N 
ATOM     18  H62 UNL     1      17.194  56.287  10.102  1.00  0.00     0.176 HD
ATOM     19  H61 UNL     1      16.331  55.342   8.885  1.00  0.00     0.176 HD
ENDBRANCH  15  17
ENDBRANCH   9  15
TORSDOF 4
ENDMDL
