MODEL 1
REMARK VINA RESULT: -7.580675918      0.000      0.000
REMARK  6 active torsions:
REMARK  status: ('A' for Active; 'I' for Inactive)
REMARK    1  A    between atoms: C2_2  and  C3_3 
REMARK    2  A    between atoms: C3_3  and  C4_4 
REMARK    3  A    between atoms: C3_3  and  N1_7 
REMARK    4  A    between atoms: C4_4  and  O1_5 
REMARK    5  A    between atoms: C6_12  and  N3_13 
REMARK    6  A    between atoms: N7_28  and  C16_29 
ROOT
HETATM    1  N1  UNL     1       0.228  -2.929  22.367  1.00  0.00    -0.367 N 
ATOM      2  H1  UNL     1      -0.053  -3.818  22.783  1.00  0.00     0.161 HD
HETATM    3  C5  UNL     1       1.092  -2.333  23.043  1.00  0.00     0.148 A 
HETATM    4  N2  UNL     1       1.523  -2.919  24.186  1.00  0.00    -0.174 N 
ATOM      5  H2  UNL     1       1.119  -3.821  24.439  1.00  0.00     0.186 HD
HETATM    6  C6  UNL     1       2.443  -2.396  25.008  1.00  0.00     0.683 A 
HETATM    7  N5  UNL     1       2.962  -1.213  24.660  1.00  0.00    -0.174 N 
ATOM      8  H5  UNL     1       3.666  -0.783  25.260  1.00  0.00     0.186 HD
HETATM    9  C12 UNL     1       2.579  -0.575  23.536  1.00  0.00     0.155 A 
HETATM   10  C13 UNL     1       1.632  -1.122  22.698  1.00  0.00     0.123 A 
HETATM   11  N6  UNL     1       1.474  -0.257  21.682  1.00  0.00    -0.340 N 
ATOM     12  H6  UNL     1       0.834  -0.391  20.900  1.00  0.00     0.167 HD
HETATM   13  C14 UNL     1       2.273   0.806  21.839  1.00  0.00     0.081 A 
HETATM   14  C15 UNL     1       2.361   1.972  20.897  1.00  0.00     0.089 C 
HETATM   15  N7  UNL     1       2.950   0.609  22.976  1.00  0.00    -0.321 N 
ENDROOT
BRANCH   1  16
HETATM   16  C3  UNL     1      -0.446  -2.656  21.165  1.00  0.00     0.106 C 
BRANCH  16  17
HETATM   17  C2  UNL     1      -0.782  -3.913  20.369  1.00  0.00     0.023 C 
HETATM   18  C1  UNL     1      -1.975  -4.637  20.895  1.00  0.00     0.007 C 
ENDBRANCH  16  17
BRANCH  16  19
HETATM   19  C4  UNL     1      -1.729  -1.894  21.437  1.00  0.00     0.189 C 
BRANCH  19  20
HETATM   20  O1  UNL     1      -1.551  -0.530  21.210  1.00  0.00    -0.399 OA
ATOM     21  H1  UNL     1      -1.460  -0.352  20.280  1.00  0.00     0.209 HD
ENDBRANCH  19  20
ENDBRANCH  16  19
ENDBRANCH   1  16
BRANCH   6  22
HETATM   22  N3  UNL     1       2.854  -3.074  26.209  1.00  0.00    -0.214 N 
HETATM   23  C7  UNL     1       3.608  -4.272  26.124  1.00  0.00     0.171 C 
HETATM   24  C8  UNL     1       3.744  -5.058  27.367  1.00  0.00     0.292 C 
HETATM   25  N4  UNL     1       3.253  -4.428  28.558  1.00  0.00     0.087 N 
HETATM   26  C9  UNL     1       3.101  -5.349  29.642  1.00  0.00     0.310 C 
HETATM   27  C10 UNL     1       2.053  -3.656  28.362  1.00  0.00     0.292 C 
HETATM   28  C11 UNL     1       2.468  -2.479  27.468  1.00  0.00     0.171 C 
ENDBRANCH   6  22
BRANCH  15  29
HETATM   29  C16 UNL     1       3.927   1.494  23.546  1.00  0.00     0.127 C 
HETATM   30  C17 UNL     1       3.385   2.339  24.658  1.00  0.00     0.027 C 
ENDBRANCH  15  29
TORSDOF 6
ENDMDL
MODEL 2
REMARK VINA RESULT: -7.536917027      1.488      4.571
REMARK  6 active torsions:
REMARK  status: ('A' for Active; 'I' for Inactive)
REMARK    1  A    between atoms: C2_2  and  C3_3 
REMARK    2  A    between atoms: C3_3  and  C4_4 
REMARK    3  A    between atoms: C3_3  and  N1_7 
REMARK    4  A    between atoms: C4_4  and  O1_5 
REMARK    5  A    between atoms: C6_12  and  N3_13 
REMARK    6  A    between atoms: N7_28  and  C16_29 
ROOT
HETATM    1  N1  UNL     1       3.227   0.577  23.445  1.00  0.00    -0.367 N 
ATOM      2  H1  UNL     1       4.120   0.673  23.928  1.00  0.00     0.161 HD
HETATM    3  C5  UNL     1       2.703  -0.543  23.621  1.00  0.00     0.148 A 
HETATM    4  N2  UNL     1       3.359  -1.440  24.395  1.00  0.00    -0.174 N 
ATOM      5  H2  UNL     1       4.252  -1.156  24.798  1.00  0.00     0.186 HD
HETATM    6  C6  UNL     1       2.917  -2.675  24.669  1.00  0.00     0.683 A 
HETATM    7  N5  UNL     1       1.743  -3.030  24.132  1.00  0.00    -0.174 N 
ATOM      8  H5  UNL     1       1.373  -3.962  24.318  1.00  0.00     0.186 HD
HETATM    9  C12 UNL     1       1.037  -2.187  23.353  1.00  0.00     0.155 A 
HETATM   10  C13 UNL     1       1.502  -0.919  23.078  1.00  0.00     0.123 A 
HETATM   11  N6  UNL     1       0.583  -0.338  22.288  1.00  0.00    -0.340 N 
ATOM     12  H6  UNL     1       0.652   0.611  21.919  1.00  0.00     0.167 HD
HETATM   13  C14 UNL     1      -0.434  -1.175  22.052  1.00  0.00     0.081 A 
HETATM   14  C15 UNL     1      -1.637  -0.863  21.210  1.00  0.00     0.089 C 
HETATM   15  N7  UNL     1      -0.155  -2.308  22.706  1.00  0.00    -0.321 N 
ENDROOT
BRANCH   1  16
HETATM   16  C3  UNL     1       2.869   1.734  22.734  1.00  0.00     0.106 C 
BRANCH  16  17
HETATM   17  C2  UNL     1       3.573   2.989  23.240  1.00  0.00     0.023 C 
HETATM   18  C1  UNL     1       3.957   2.903  24.678  1.00  0.00     0.007 C 
ENDBRANCH  16  17
BRANCH  16  19
HETATM   19  C4  UNL     1       3.172   1.566  21.258  1.00  0.00     0.189 C 
BRANCH  19  20
HETATM   20  O1  UNL     1       2.006   1.662  20.499  1.00  0.00    -0.399 OA
ATOM     21  H1  UNL     1       2.207   1.654  19.570  1.00  0.00     0.209 HD
ENDBRANCH  19  20
ENDBRANCH  16  19
ENDBRANCH   1  16
BRANCH   6  22
HETATM   22  N3  UNL     1       3.667  -3.579  25.500  1.00  0.00    -0.214 N 
HETATM   23  C7  UNL     1       4.762  -4.298  24.957  1.00  0.00     0.171 C 
HETATM   24  C8  UNL     1       5.297  -5.406  25.773  1.00  0.00     0.292 C 
HETATM   25  N4  UNL     1       4.766  -5.513  27.100  1.00  0.00     0.087 N 
HETATM   26  C9  UNL     1       5.057  -6.775  27.707  1.00  0.00     0.310 C 
HETATM   27  C10 UNL     1       3.362  -5.203  27.199  1.00  0.00     0.292 C 
HETATM   28  C11 UNL     1       3.253  -3.706  26.879  1.00  0.00     0.171 C 
ENDBRANCH   6  22
BRANCH  15  29
HETATM   29  C16 UNL     1      -0.967  -3.491  22.740  1.00  0.00     0.127 C 
HETATM   30  C17 UNL     1      -1.192  -4.097  21.388  1.00  0.00     0.027 C 
ENDBRANCH  15  29
TORSDOF 6
ENDMDL
MODEL 3
REMARK VINA RESULT: -7.532819327      3.208      6.304
REMARK  6 active torsions:
REMARK  status: ('A' for Active; 'I' for Inactive)
REMARK    1  A    between atoms: C2_2  and  C3_3 
REMARK    2  A    between atoms: C3_3  and  C4_4 
REMARK    3  A    between atoms: C3_3  and  N1_7 
REMARK    4  A    between atoms: C4_4  and  O1_5 
REMARK    5  A    between atoms: C6_12  and  N3_13 
REMARK    6  A    between atoms: N7_28  and  C16_29 
ROOT
HETATM    1  N1  UNL     1       1.645   0.288  26.093  1.00  0.00    -0.367 N 
ATOM      2  H1  UNL     1       1.002  -0.381  26.518  1.00  0.00     0.161 HD
HETATM    3  C5  UNL     1       1.619   0.254  24.844  1.00  0.00     0.148 A 
HETATM    4  N2  UNL     1       0.779  -0.624  24.248  1.00  0.00    -0.174 N 
ATOM      5  H2  UNL     1       0.206  -1.218  24.849  1.00  0.00     0.186 HD
HETATM    6  C6  UNL     1       0.646  -0.769  22.922  1.00  0.00     0.683 A 
HETATM    7  N5  UNL     1       1.404   0.018  22.149  1.00  0.00    -0.174 N 
ATOM      8  H5  UNL     1       1.331  -0.063  21.135  1.00  0.00     0.186 HD
HETATM    9  C12 UNL     1       2.261   0.915  22.677  1.00  0.00     0.155 A 
HETATM   10  C13 UNL     1       2.389   1.054  24.041  1.00  0.00     0.123 A 
HETATM   11  N6  UNL     1       3.307   2.015  24.243  1.00  0.00    -0.340 N 
ATOM     12  H6  UNL     1       3.614   2.340  25.159  1.00  0.00     0.167 HD
HETATM   13  C14 UNL     1       3.763   2.484  23.075  1.00  0.00     0.081 A 
HETATM   14  C15 UNL     1       4.796   3.562  22.918  1.00  0.00     0.089 C 
HETATM   15  N7  UNL     1       3.120   1.809  22.116  1.00  0.00    -0.321 N 
ENDROOT
BRANCH   1  16
HETATM   16  C3  UNL     1       2.357   1.035  27.045  1.00  0.00     0.106 C 
BRANCH  16  17
HETATM   17  C2  UNL     1       1.639   2.316  27.459  1.00  0.00     0.023 C 
HETATM   18  C1  UNL     1       2.550   3.494  27.545  1.00  0.00     0.007 C 
ENDBRANCH  16  17
BRANCH  16  19
HETATM   19  C4  UNL     1       2.621   0.202  28.284  1.00  0.00     0.189 C 
BRANCH  19  20
HETATM   20  O1  UNL     1       2.275  -1.131  28.067  1.00  0.00    -0.399 OA
ATOM     21  H1  UNL     1       1.620  -1.416  28.694  1.00  0.00     0.209 HD
ENDBRANCH  19  20
ENDBRANCH  16  19
ENDBRANCH   1  16
BRANCH   6  22
HETATM   22  N3  UNL     1      -0.267  -1.726  22.354  1.00  0.00    -0.214 N 
HETATM   23  C7  UNL     1      -0.377  -3.022  22.918  1.00  0.00     0.171 C 
HETATM   24  C8  UNL     1      -1.105  -4.031  22.122  1.00  0.00     0.292 C 
HETATM   25  N4  UNL     1      -1.775  -3.537  20.955  1.00  0.00     0.087 N 
HETATM   26  C9  UNL     1      -2.163  -4.584  20.062  1.00  0.00     0.310 C 
HETATM   27  C10 UNL     1      -1.054  -2.502  20.258  1.00  0.00     0.292 C 
HETATM   28  C11 UNL     1      -1.044  -1.300  21.212  1.00  0.00     0.171 C 
ENDBRANCH   6  22
BRANCH  15  29
HETATM   29  C16 UNL     1       3.289   1.979  20.700  1.00  0.00     0.127 C 
HETATM   30  C17 UNL     1       2.537   3.152  20.149  1.00  0.00     0.027 C 
ENDBRANCH  15  29
TORSDOF 6
ENDMDL
MODEL 4
REMARK VINA RESULT: -7.164009767      2.223      2.677
REMARK  6 active torsions:
REMARK  status: ('A' for Active; 'I' for Inactive)
REMARK    1  A    between atoms: C2_2  and  C3_3 
REMARK    2  A    between atoms: C3_3  and  C4_4 
REMARK    3  A    between atoms: C3_3  and  N1_7 
REMARK    4  A    between atoms: C4_4  and  O1_5 
REMARK    5  A    between atoms: C6_12  and  N3_13 
REMARK    6  A    between atoms: N7_28  and  C16_29 
ROOT
HETATM    1  N1  UNL     1       0.466  -1.520  22.854  1.00  0.00    -0.367 N 
ATOM      2  H1  UNL     1       0.099  -2.207  23.513  1.00  0.00     0.161 HD
HETATM    3  C5  UNL     1       1.178  -0.655  23.407  1.00  0.00     0.148 A 
HETATM    4  N2  UNL     1       1.360  -0.740  24.747  1.00  0.00    -0.174 N 
ATOM      5  H2  UNL     1       0.905  -1.509  25.240  1.00  0.00     0.186 HD
HETATM    6  C6  UNL     1       2.095   0.115  25.470  1.00  0.00     0.683 A 
HETATM    7  N5  UNL     1       2.684   1.117  24.806  1.00  0.00    -0.174 N 
ATOM      8  H5  UNL     1       3.252   1.789  25.322  1.00  0.00     0.186 HD
HETATM    9  C12 UNL     1       2.546   1.261  23.473  1.00  0.00     0.155 A 
HETATM   10  C13 UNL     1       1.787   0.376  22.740  1.00  0.00     0.123 A 
HETATM   11  N6  UNL     1       1.848   0.786  21.462  1.00  0.00    -0.340 N 
ATOM     12  H6  UNL     1       1.382   0.324  20.681  1.00  0.00     0.167 HD
HETATM   13  C14 UNL     1       2.606   1.885  21.355  1.00  0.00     0.081 A 
HETATM   14  C15 UNL     1       2.895   2.618  20.077  1.00  0.00     0.089 C 
HETATM   15  N7  UNL     1       3.033   2.174  22.589  1.00  0.00    -0.321 N 
ENDROOT
BRANCH   1  16
HETATM   16  C3  UNL     1       0.057  -1.763  21.533  1.00  0.00     0.106 C 
BRANCH  16  17
HETATM   17  C2  UNL     1       0.203  -3.225  21.121  1.00  0.00     0.023 C 
HETATM   18  C1  UNL     1      -1.095  -3.960  21.107  1.00  0.00     0.007 C 
ENDBRANCH  16  17
BRANCH  16  19
HETATM   19  C4  UNL     1      -1.388  -1.344  21.339  1.00  0.00     0.189 C 
BRANCH  19  20
HETATM   20  O1  UNL     1      -1.989  -1.060  22.565  1.00  0.00    -0.399 OA
ATOM     21  H1  UNL     1      -2.317  -1.854  22.972  1.00  0.00     0.209 HD
ENDBRANCH  19  20
ENDBRANCH  16  19
ENDBRANCH   1  16
BRANCH   6  22
HETATM   22  N3  UNL     1       2.245  -0.034  26.894  1.00  0.00    -0.214 N 
HETATM   23  C7  UNL     1       2.045  -1.302  27.498  1.00  0.00     0.171 C 
HETATM   24  C8  UNL     1       1.930  -1.323  28.970  1.00  0.00     0.292 C 
HETATM   25  N4  UNL     1       2.215  -0.084  29.634  1.00  0.00     0.087 N 
HETATM   26  C9  UNL     1       1.764  -0.074  30.991  1.00  0.00     0.310 C 
HETATM   27  C10 UNL     1       1.752   1.082  28.926  1.00  0.00     0.292 C 
HETATM   28  C11 UNL     1       2.600   1.145  27.648  1.00  0.00     0.171 C 
ENDBRANCH   6  22
BRANCH  15  29
HETATM   29  C16 UNL     1       3.878   3.275  22.958  1.00  0.00     0.127 C 
HETATM   30  C17 UNL     1       4.409   3.174  24.356  1.00  0.00     0.027 C 
ENDBRANCH  15  29
TORSDOF 6
ENDMDL
MODEL 5
REMARK VINA RESULT: -7.139029106      2.989      6.213
REMARK  6 active torsions:
REMARK  status: ('A' for Active; 'I' for Inactive)
REMARK    1  A    between atoms: C2_2  and  C3_3 
REMARK    2  A    between atoms: C3_3  and  C4_4 
REMARK    3  A    between atoms: C3_3  and  N1_7 
REMARK    4  A    between atoms: C4_4  and  O1_5 
REMARK    5  A    between atoms: C6_12  and  N3_13 
REMARK    6  A    between atoms: N7_28  and  C16_29 
ROOT
HETATM    1  N1  UNL     1       1.084  -0.190  25.810  1.00  0.00    -0.367 N 
ATOM      2  H1  UNL     1       0.431  -0.939  26.040  1.00  0.00     0.161 HD
HETATM    3  C5  UNL     1       1.299  -0.098  24.583  1.00  0.00     0.148 A 
HETATM    4  N2  UNL     1       0.665  -0.966  23.758  1.00  0.00    -0.174 N 
ATOM      5  H2  UNL     1       0.041  -1.653  24.181  1.00  0.00     0.186 HD
HETATM    6  C6  UNL     1       0.800  -0.984  22.425  1.00  0.00     0.683 A 
HETATM    7  N5  UNL     1       1.622  -0.074  21.888  1.00  0.00    -0.174 N 
ATOM      8  H5  UNL     1       1.750  -0.056  20.876  1.00  0.00     0.186 HD
HETATM    9  C12 UNL     1       2.284   0.819  22.650  1.00  0.00     0.155 A 
HETATM   10  C13 UNL     1       2.138   0.828  24.020  1.00  0.00     0.123 A 
HETATM   11  N6  UNL     1       2.916   1.821  24.481  1.00  0.00    -0.340 N 
ATOM     12  H6  UNL     1       3.014   2.072  25.465  1.00  0.00     0.167 HD
HETATM   13  C14 UNL     1       3.545   2.436  23.471  1.00  0.00     0.081 A 
HETATM   14  C15 UNL     1       4.494   3.590  23.615  1.00  0.00     0.089 C 
HETATM   15  N7  UNL     1       3.155   1.821  22.349  1.00  0.00    -0.321 N 
ENDROOT
BRANCH   1  16
HETATM   16  C3  UNL     1       1.536   0.502  26.945  1.00  0.00     0.106 C 
BRANCH  16  17
HETATM   17  C2  UNL     1       0.500   1.471  27.507  1.00  0.00     0.023 C 
HETATM   18  C1  UNL     1       1.076   2.800  27.862  1.00  0.00     0.007 C 
ENDBRANCH  16  17
BRANCH  16  19
HETATM   19  C4  UNL     1       1.936  -0.471  28.036  1.00  0.00     0.189 C 
BRANCH  19  20
HETATM   20  O1  UNL     1       2.389  -1.671  27.487  1.00  0.00    -0.399 OA
ATOM     21  H1  UNL     1       3.321  -1.780  27.640  1.00  0.00     0.209 HD
ENDBRANCH  19  20
ENDBRANCH  16  19
ENDBRANCH   1  16
BRANCH   6  22
HETATM   22  N3  UNL     1       0.095  -1.936  21.607  1.00  0.00    -0.214 N 
HETATM   23  C7  UNL     1      -0.850  -1.486  20.651  1.00  0.00     0.171 C 
HETATM   24  C8  UNL     1      -1.734  -2.512  20.061  1.00  0.00     0.292 C 
HETATM   25  N4  UNL     1      -1.414  -3.871  20.387  1.00  0.00     0.087 N 
HETATM   26  C9  UNL     1      -2.480  -4.774  20.078  1.00  0.00     0.310 C 
HETATM   27  C10 UNL     1      -0.954  -4.057  21.739  1.00  0.00     0.292 C 
HETATM   28  C11 UNL     1       0.398  -3.334  21.812  1.00  0.00     0.171 C 
ENDBRANCH   6  22
BRANCH  15  29
HETATM   29  C16 UNL     1       3.576   2.143  21.015  1.00  0.00     0.127 C 
HETATM   30  C17 UNL     1       2.547   2.904  20.236  1.00  0.00     0.027 C 
ENDBRANCH  15  29
TORSDOF 6
ENDMDL
