MODEL 1
REMARK VINA RESULT: -9.180646510      0.000      0.000
REMARK  5 active torsions:
REMARK  status: ('A' for Active; 'I' for Inactive)
REMARK    1  A    between atoms: C2_2  and  C4_4 
REMARK    2  A    between atoms: C4_4  and  N1_5 
REMARK    3  A    between atoms: C5_8  and  S1_9 
REMARK    4  A    between atoms: S1_9  and  N3_12 
REMARK    5  A    between atoms: N3_12  and  C6_14 
ROOT
HETATM    1  N1  UNL     1       3.548   2.368  24.080  1.00  0.00    -0.241 N 
HETATM    2  N2  UNL     1       2.933   1.193  23.927  1.00  0.00    -0.278 N 
ATOM      3  H2  UNL     1       2.839   0.594  24.747  1.00  0.00     0.188 HD
HETATM    4  C5  UNL     1       2.433   0.749  22.767  1.00  0.00     0.232 A 
HETATM    5  C13 UNL     1       2.554   1.540  21.657  1.00  0.00     0.291 A 
HETATM    6  O3  UNL     1       2.102   1.174  20.517  1.00  0.00    -0.265 OA
HETATM    7  N4  UNL     1       3.170   2.728  21.789  1.00  0.00    -0.272 N 
ATOM      8  H4  UNL     1       3.270   3.334  20.975  1.00  0.00     0.174 HD
HETATM    9  C14 UNL     1       3.660   3.135  22.985  1.00  0.00     0.344 A 
HETATM   10  O4  UNL     1       4.230   4.275  23.037  1.00  0.00    -0.245 OA
ENDROOT
BRANCH   4  11
HETATM   11  S1  UNL     1       1.684  -0.817  22.715  1.00  0.00     0.281 S 
HETATM   12  O1  UNL     1       2.686  -1.740  22.070  1.00  0.00    -0.199 OA
HETATM   13  O2  UNL     1       1.550  -1.294  24.137  1.00  0.00    -0.199 OA
BRANCH  11  14
HETATM   14  N3  UNL     1       0.215  -0.748  21.898  1.00  0.00    -0.309 N 
ATOM     15  H3  UNL     1      -0.410   0.045  22.039  1.00  0.00     0.172 HD
BRANCH  14  16
HETATM   16  C6  UNL     1      -0.151  -1.784  21.020  1.00  0.00     0.093 C 
HETATM   17  C7  UNL     1       0.278  -3.164  21.491  1.00  0.00     0.026 C 
HETATM   18  C8  UNL     1      -0.797  -3.868  22.256  1.00  0.00     0.002 C 
HETATM   19  C9  UNL     1      -1.924  -4.380  21.433  1.00  0.00     0.000 C 
HETATM   20  C10 UNL     1      -1.763  -4.180  19.956  1.00  0.00     0.000 C 
HETATM   21  C11 UNL     1      -1.823  -2.741  19.533  1.00  0.00     0.002 C 
HETATM   22  C12 UNL     1      -1.639  -1.774  20.673  1.00  0.00     0.026 C 
ENDBRANCH  14  16
ENDBRANCH  11  14
ENDBRANCH   4  11
BRANCH   1  23
HETATM   23  C4  UNL     1       4.083   2.785  25.349  1.00  0.00     0.157 C 
BRANCH  23  24
HETATM   24  C2  UNL     1       3.018   2.952  26.376  1.00  0.00    -0.003 C 
HETATM   25  C1  UNL     1       3.405   4.111  27.307  1.00  0.00     0.011 C 
HETATM   26  C3  UNL     1       2.789   1.752  27.257  1.00  0.00     0.011 C 
ENDBRANCH  23  24
ENDBRANCH   1  23
TORSDOF 5
ENDMDL
MODEL 2
REMARK VINA RESULT: -9.042909585      2.331      7.019
REMARK  5 active torsions:
REMARK  status: ('A' for Active; 'I' for Inactive)
REMARK    1  A    between atoms: C2_2  and  C4_4 
REMARK    2  A    between atoms: C4_4  and  N1_5 
REMARK    3  A    between atoms: C5_8  and  S1_9 
REMARK    4  A    between atoms: S1_9  and  N3_12 
REMARK    5  A    between atoms: N3_12  and  C6_14 
ROOT
HETATM    1  N1  UNL     1      -0.915  -1.457  22.728  1.00  0.00    -0.241 N 
HETATM    2  N2  UNL     1       0.398  -1.261  22.585  1.00  0.00    -0.278 N 
ATOM      3  H2  UNL     1       0.786  -1.297  21.643  1.00  0.00     0.188 HD
HETATM    4  C5  UNL     1       1.238  -1.021  23.600  1.00  0.00     0.232 A 
HETATM    5  C13 UNL     1       0.733  -0.973  24.871  1.00  0.00     0.291 A 
HETATM    6  O3  UNL     1       1.483  -0.751  25.885  1.00  0.00    -0.265 OA
HETATM    7  N4  UNL     1      -0.587  -1.168  25.036  1.00  0.00    -0.272 N 
ATOM      8  H4  UNL     1      -0.984  -1.134  25.975  1.00  0.00     0.174 HD
HETATM    9  C14 UNL     1      -1.399  -1.407  23.978  1.00  0.00     0.344 A 
HETATM   10  O4  UNL     1      -2.641  -1.580  24.210  1.00  0.00    -0.245 OA
ENDROOT
BRANCH   4  11
HETATM   11  S1  UNL     1       2.930  -0.814  23.263  1.00  0.00     0.281 S 
HETATM   12  O1  UNL     1       3.655  -1.819  24.121  1.00  0.00    -0.199 OA
HETATM   13  O2  UNL     1       3.158  -1.255  21.841  1.00  0.00    -0.199 OA
BRANCH  11  14
HETATM   14  N3  UNL     1       3.403   0.775  23.548  1.00  0.00    -0.309 N 
ATOM     15  H3  UNL     1       3.998   0.994  24.347  1.00  0.00     0.172 HD
BRANCH  14  16
HETATM   16  C6  UNL     1       2.980   1.801  22.684  1.00  0.00     0.093 C 
HETATM   17  C7  UNL     1       3.560   3.163  23.023  1.00  0.00     0.026 C 
HETATM   18  C8  UNL     1       4.804   3.465  22.250  1.00  0.00     0.002 C 
HETATM   19  C9  UNL     1       4.590   3.793  20.816  1.00  0.00     0.000 C 
HETATM   20  C10 UNL     1       3.153   3.848  20.393  1.00  0.00     0.000 C 
HETATM   21  C11 UNL     1       2.468   2.513  20.413  1.00  0.00     0.002 C 
HETATM   22  C12 UNL     1       3.210   1.472  21.209  1.00  0.00     0.026 C 
ENDBRANCH  14  16
ENDBRANCH  11  14
ENDBRANCH   4  11
BRANCH   1  23
HETATM   23  C4  UNL     1      -1.768  -1.730  21.601  1.00  0.00     0.157 C 
BRANCH  23  24
HETATM   24  C2  UNL     1      -1.269  -2.872  20.788  1.00  0.00    -0.003 C 
HETATM   25  C1  UNL     1      -1.866  -2.772  19.375  1.00  0.00     0.011 C 
HETATM   26  C3  UNL     1      -1.635  -4.236  21.312  1.00  0.00     0.011 C 
ENDBRANCH  23  24
ENDBRANCH   1  23
TORSDOF 5
ENDMDL
MODEL 3
REMARK VINA RESULT: -8.948754088      3.521      4.547
REMARK  5 active torsions:
REMARK  status: ('A' for Active; 'I' for Inactive)
REMARK    1  A    between atoms: C2_2  and  C4_4 
REMARK    2  A    between atoms: C4_4  and  N1_5 
REMARK    3  A    between atoms: C5_8  and  S1_9 
REMARK    4  A    between atoms: S1_9  and  N3_12 
REMARK    5  A    between atoms: N3_12  and  C6_14 
ROOT
HETATM    1  N1  UNL     1       3.844  -3.068  23.918  1.00  0.00    -0.241 N 
HETATM    2  N2  UNL     1       3.029  -2.071  23.566  1.00  0.00    -0.278 N 
ATOM      3  H2  UNL     1       2.566  -1.548  24.308  1.00  0.00     0.188 HD
HETATM    4  C5  UNL     1       2.781  -1.713  22.299  1.00  0.00     0.232 A 
HETATM    5  C13 UNL     1       3.393  -2.406  21.291  1.00  0.00     0.291 A 
HETATM    6  O3  UNL     1       3.196  -2.118  20.059  1.00  0.00    -0.265 OA
HETATM    7  N4  UNL     1       4.218  -3.414  21.625  1.00  0.00    -0.272 N 
ATOM      8  H4  UNL     1       4.686  -3.943  20.889  1.00  0.00     0.174 HD
HETATM    9  C14 UNL     1       4.439  -3.740  22.921  1.00  0.00     0.344 A 
HETATM   10  O4  UNL     1       5.236  -4.706  23.164  1.00  0.00    -0.245 OA
ENDROOT
BRANCH   4  11
HETATM   11  S1  UNL     1       1.673  -0.411  21.993  1.00  0.00     0.281 S 
HETATM   12  O1  UNL     1       1.885   0.590  23.100  1.00  0.00    -0.199 OA
HETATM   13  O2  UNL     1       2.128   0.276  20.732  1.00  0.00    -0.199 OA
BRANCH  11  14
HETATM   14  N3  UNL     1       0.093  -0.982  21.902  1.00  0.00    -0.309 N 
ATOM     15  H3  UNL     1      -0.616  -0.626  22.543  1.00  0.00     0.172 HD
BRANCH  14  16
HETATM   16  C6  UNL     1      -0.250  -1.952  20.943  1.00  0.00     0.093 C 
HETATM   17  C7  UNL     1       0.107  -3.370  21.353  1.00  0.00     0.026 C 
HETATM   18  C8  UNL     1      -1.034  -4.082  22.009  1.00  0.00     0.002 C 
HETATM   19  C9  UNL     1      -2.124  -4.505  21.091  1.00  0.00     0.000 C 
HETATM   20  C10 UNL     1      -1.866  -4.224  19.641  1.00  0.00     0.000 C 
HETATM   21  C11 UNL     1      -1.857  -2.762  19.304  1.00  0.00     0.002 C 
HETATM   22  C12 UNL     1      -1.713  -1.871  20.509  1.00  0.00     0.026 C 
ENDBRANCH  14  16
ENDBRANCH  11  14
ENDBRANCH   4  11
BRANCH   1  23
HETATM   23  C4  UNL     1       4.059  -3.421  25.297  1.00  0.00     0.157 C 
BRANCH  23  24
HETATM   24  C2  UNL     1       2.958  -4.265  25.835  1.00  0.00    -0.003 C 
HETATM   25  C1  UNL     1       2.438  -3.632  27.135  1.00  0.00     0.011 C 
HETATM   26  C3  UNL     1       3.347  -5.680  26.173  1.00  0.00     0.011 C 
ENDBRANCH  23  24
ENDBRANCH   1  23
TORSDOF 5
ENDMDL
MODEL 4
REMARK VINA RESULT: -8.922225466      3.447      6.430
REMARK  5 active torsions:
REMARK  status: ('A' for Active; 'I' for Inactive)
REMARK    1  A    between atoms: C2_2  and  C4_4 
REMARK    2  A    between atoms: C4_4  and  N1_5 
REMARK    3  A    between atoms: C5_8  and  S1_9 
REMARK    4  A    between atoms: S1_9  and  N3_12 
REMARK    5  A    between atoms: N3_12  and  C6_14 
ROOT
HETATM    1  N1  UNL     1       3.863  -3.184  23.940  1.00  0.00    -0.241 N 
HETATM    2  N2  UNL     1       2.944  -2.219  23.860  1.00  0.00    -0.278 N 
ATOM      3  H2  UNL     1       2.580  -1.833  24.731  1.00  0.00     0.188 HD
HETATM    4  C5  UNL     1       2.468  -1.726  22.709  1.00  0.00     0.232 A 
HETATM    5  C13 UNL     1       2.943  -2.236  21.532  1.00  0.00     0.291 A 
HETATM    6  O3  UNL     1       2.528  -1.812  20.398  1.00  0.00    -0.265 OA
HETATM    7  N4  UNL     1       3.870  -3.209  21.591  1.00  0.00    -0.272 N 
ATOM      8  H4  UNL     1       4.239  -3.602  20.725  1.00  0.00     0.174 HD
HETATM    9  C14 UNL     1       4.322  -3.676  22.780  1.00  0.00     0.344 A 
HETATM   10  O4  UNL     1       5.203  -4.598  22.759  1.00  0.00    -0.245 OA
ENDROOT
BRANCH   4  11
HETATM   11  S1  UNL     1       1.250  -0.488  22.763  1.00  0.00     0.281 S 
HETATM   12  O1  UNL     1      -0.059  -1.174  22.464  1.00  0.00    -0.199 OA
HETATM   13  O2  UNL     1       1.148  -0.024  24.192  1.00  0.00    -0.199 OA
BRANCH  11  14
HETATM   14  N3  UNL     1       1.615   0.753  21.687  1.00  0.00    -0.309 N 
ATOM     15  H3  UNL     1       0.927   1.047  20.994  1.00  0.00     0.172 HD
BRANCH  14  16
HETATM   16  C6  UNL     1       2.870   1.386  21.744  1.00  0.00     0.093 C 
HETATM   17  C7  UNL     1       3.335   1.941  20.408  1.00  0.00     0.026 C 
HETATM   18  C8  UNL     1       2.975   3.382  20.231  1.00  0.00     0.002 C 
HETATM   19  C9  UNL     1       3.785   4.337  21.032  1.00  0.00     0.000 C 
HETATM   20  C10 UNL     1       4.888   3.707  21.830  1.00  0.00     0.000 C 
HETATM   21  C11 UNL     1       4.400   2.842  22.954  1.00  0.00     0.002 C 
HETATM   22  C12 UNL     1       2.949   2.460  22.828  1.00  0.00     0.026 C 
ENDBRANCH  14  16
ENDBRANCH  11  14
ENDBRANCH   4  11
BRANCH   1  23
HETATM   23  C4  UNL     1       4.324  -3.689  25.207  1.00  0.00     0.157 C 
BRANCH  23  24
HETATM   24  C2  UNL     1       3.336  -4.609  25.834  1.00  0.00    -0.003 C 
HETATM   25  C1  UNL     1       3.030  -4.113  27.256  1.00  0.00     0.011 C 
HETATM   26  C3  UNL     1       3.792  -6.039  25.967  1.00  0.00     0.011 C 
ENDBRANCH  23  24
ENDBRANCH   1  23
TORSDOF 5
ENDMDL
MODEL 5
REMARK VINA RESULT: -8.623838752      2.343      7.095
REMARK  5 active torsions:
REMARK  status: ('A' for Active; 'I' for Inactive)
REMARK    1  A    between atoms: C2_2  and  C4_4 
REMARK    2  A    between atoms: C4_4  and  N1_5 
REMARK    3  A    between atoms: C5_8  and  S1_9 
REMARK    4  A    between atoms: S1_9  and  N3_12 
REMARK    5  A    between atoms: N3_12  and  C6_14 
ROOT
HETATM    1  N1  UNL     1      -0.904  -2.260  23.518  1.00  0.00    -0.241 N 
HETATM    2  N2  UNL     1       0.346  -1.844  23.307  1.00  0.00    -0.278 N 
ATOM      3  H2  UNL     1       0.873  -2.280  22.550  1.00  0.00     0.188 HD
HETATM    4  C5  UNL     1       0.954  -0.890  24.024  1.00  0.00     0.232 A 
HETATM    5  C13 UNL     1       0.262  -0.297  25.045  1.00  0.00     0.291 A 
HETATM    6  O3  UNL     1       0.785   0.617  25.771  1.00  0.00    -0.265 OA
HETATM    7  N4  UNL     1      -1.000  -0.703  25.274  1.00  0.00    -0.272 N 
ATOM      8  H4  UNL     1      -1.535  -0.273  26.029  1.00  0.00     0.174 HD
HETATM    9  C14 UNL     1      -1.574  -1.672  24.520  1.00  0.00     0.344 A 
HETATM   10  O4  UNL     1      -2.775  -2.004  24.793  1.00  0.00    -0.245 OA
ENDROOT
BRANCH   4  11
HETATM   11  S1  UNL     1       2.598  -0.473  23.651  1.00  0.00     0.281 S 
HETATM   12  O1  UNL     1       3.452  -1.158  24.687  1.00  0.00    -0.199 OA
HETATM   13  O2  UNL     1       2.940  -1.135  22.342  1.00  0.00    -0.199 OA
BRANCH  11  14
HETATM   14  N3  UNL     1       2.796   1.197  23.620  1.00  0.00    -0.309 N 
ATOM     15  H3  UNL     1       2.290   1.784  24.284  1.00  0.00     0.172 HD
BRANCH  14  16
HETATM   16  C6  UNL     1       3.660   1.786  22.679  1.00  0.00     0.093 C 
HETATM   17  C7  UNL     1       3.317   1.446  21.239  1.00  0.00     0.026 C 
HETATM   18  C8  UNL     1       2.440   2.476  20.599  1.00  0.00     0.002 C 
HETATM   19  C9  UNL     1       3.118   3.752  20.251  1.00  0.00     0.000 C 
HETATM   20  C10 UNL     1       4.593   3.772  20.521  1.00  0.00     0.000 C 
HETATM   21  C11 UNL     1       4.938   3.736  21.981  1.00  0.00     0.002 C 
HETATM   22  C12 UNL     1       3.793   3.299  22.856  1.00  0.00     0.026 C 
ENDBRANCH  14  16
ENDBRANCH  11  14
ENDBRANCH   4  11
BRANCH   1  23
HETATM   23  C4  UNL     1      -1.501  -3.304  22.725  1.00  0.00     0.157 C 
BRANCH  23  24
HETATM   24  C2  UNL     1      -1.068  -3.240  21.303  1.00  0.00    -0.003 C 
HETATM   25  C1  UNL     1      -1.637  -1.960  20.669  1.00  0.00     0.011 C 
HETATM   26  C3  UNL     1      -1.532  -4.386  20.444  1.00  0.00     0.011 C 
ENDBRANCH  23  24
ENDBRANCH   1  23
TORSDOF 5
ENDMDL
