MODEL 1
REMARK VINA RESULT: -7.029030055      0.000      0.000
REMARK  7 active torsions:
REMARK  status: ('A' for Active; 'I' for Inactive)
REMARK    1  A    between atoms: C2_2  and  C3_3 
REMARK    2  A    between atoms: C3_3  and  C4_4 
REMARK    3  A    between atoms: C3_3  and  N7_26 
REMARK    4  A    between atoms: C4_4  and  N1_5 
REMARK    5  A    between atoms: N2_8  and  C7_9 
REMARK    6  A    between atoms: N7_26  and  N8_28 
REMARK    7  A    between atoms: N8_28  and  N9_29 
ROOT
HETATM    1  N1  UNL     1       2.850  -5.696  26.585  1.00  0.00     0.093 N 
HETATM    2  C5  UNL     1       1.600  -5.069  26.335  1.00  0.00     0.293 C 
HETATM    3  C6  UNL     1       1.616  -3.681  25.827  1.00  0.00     0.171 C 
HETATM    4  N2  UNL     1       2.840  -3.226  25.265  1.00  0.00    -0.214 N 
HETATM    5  C13 UNL     1       4.082  -3.866  25.622  1.00  0.00     0.171 C 
HETATM    6  C14 UNL     1       3.817  -5.356  25.548  1.00  0.00     0.293 C 
ENDROOT
BRANCH   4   7
HETATM    7  C7  UNL     1       2.819  -2.141  24.349  1.00  0.00     0.682 A 
HETATM    8  N3  UNL     1       3.095  -0.842  24.573  1.00  0.00    -0.174 N 
HETATM    9  C8  UNL     1       2.971  -0.100  23.465  1.00  0.00     0.160 A 
ATOM     10  H3  UNL     1       3.367  -0.466  25.481  1.00  0.00     0.186 HD
HETATM   11  C9  UNL     1       2.593  -0.967  22.467  1.00  0.00     0.162 A 
HETATM   12  N6  UNL     1       3.133   1.212  23.176  1.00  0.00    -0.287 N 
HETATM   13  N4  UNL     1       2.507  -2.189  23.022  1.00  0.00    -0.182 N 
HETATM   14  C10 UNL     1       2.400  -0.429  21.213  1.00  0.00     0.280 A 
ATOM     15  H4  UNL     1       2.244  -3.036  22.518  1.00  0.00     0.184 HD
HETATM   16  O1  UNL     1       2.055  -1.174  20.264  1.00  0.00    -0.265 OA
HETATM   17  N5  UNL     1       2.569   0.881  20.954  1.00  0.00    -0.273 N 
HETATM   18  C11 UNL     1       2.940   1.715  21.952  1.00  0.00     0.330 A 
ATOM     19  H5  UNL     1       2.417   1.243  20.013  1.00  0.00     0.173 HD
HETATM   20  O2  UNL     1       3.100   2.959  21.704  1.00  0.00    -0.246 OA
HETATM   21  C12 UNL     1       3.529   2.101  24.245  1.00  0.00     0.163 C 
ENDBRANCH   4   7
BRANCH   1  22
HETATM   22  C4  UNL     1       2.816  -7.126  26.622  1.00  0.00     0.300 C 
BRANCH  22  23
HETATM   23  C3  UNL     1       2.523  -7.769  27.916  1.00  0.00     0.142 C 
BRANCH  23  24
HETATM   24  C2  UNL     1       1.323  -8.667  27.928  1.00  0.00     0.025 C 
HETATM   25  C1  UNL     1       0.788  -8.885  26.528  1.00  0.00     0.007 C 
ENDBRANCH  23  24
BRANCH  23  26
HETATM   26  N7  UNL     1       3.655  -8.437  28.527  1.00  0.00    -0.246 N 
ATOM     27  H7  UNL     1       3.488  -9.154  29.233  1.00  0.00     0.197 HD
BRANCH  26  28
HETATM   28  N8  UNL     1       4.801  -8.162  28.217  1.00  0.00    -0.248 NA
BRANCH  28  29
HETATM   29  N9  UNL     1       5.989  -8.160  27.895  1.00  0.00    -0.261 N 
ATOM     30  H92 UNL     1       5.792  -8.713  27.061  1.00  0.00     0.193 HD
ATOM     31  H91 UNL     1       6.998  -8.035  27.821  1.00  0.00     0.193 HD
ENDBRANCH  28  29
ENDBRANCH  26  28
ENDBRANCH  23  26
ENDBRANCH  22  23
ENDBRANCH   1  22
TORSDOF 7
ENDMDL
MODEL 2
REMARK VINA RESULT: -6.951744091      5.351      8.425
REMARK  7 active torsions:
REMARK  status: ('A' for Active; 'I' for Inactive)
REMARK    1  A    between atoms: C2_2  and  C3_3 
REMARK    2  A    between atoms: C3_3  and  C4_4 
REMARK    3  A    between atoms: C3_3  and  N7_26 
REMARK    4  A    between atoms: C4_4  and  N1_5 
REMARK    5  A    between atoms: N2_8  and  C7_9 
REMARK    6  A    between atoms: N7_26  and  N8_28 
REMARK    7  A    between atoms: N8_28  and  N9_29 
ROOT
HETATM    1  N1  UNL     1       3.686   3.052  26.781  1.00  0.00     0.093 N 
HETATM    2  C5  UNL     1       3.866   3.248  25.386  1.00  0.00     0.293 C 
HETATM    3  C6  UNL     1       3.533   2.124  24.485  1.00  0.00     0.171 C 
HETATM    4  N2  UNL     1       2.706   1.102  25.026  1.00  0.00    -0.214 N 
HETATM    5  C13 UNL     1       2.628   0.915  26.454  1.00  0.00     0.171 C 
HETATM    6  C14 UNL     1       2.464   2.301  27.045  1.00  0.00     0.293 C 
ENDROOT
BRANCH   4   7
HETATM    7  C7  UNL     1       1.960   0.277  24.143  1.00  0.00     0.682 A 
HETATM    8  N3  UNL     1       0.831  -0.416  24.385  1.00  0.00    -0.174 N 
HETATM    9  C8  UNL     1       0.408  -1.087  23.307  1.00  0.00     0.160 A 
ATOM     10  H3  UNL     1       0.354  -0.428  25.286  1.00  0.00     0.186 HD
HETATM   11  C9  UNL     1       1.313  -0.813  22.309  1.00  0.00     0.162 A 
HETATM   12  N6  UNL     1      -0.641  -1.901  23.045  1.00  0.00    -0.287 N 
HETATM   13  N4  UNL     1       2.239   0.009  22.835  1.00  0.00    -0.182 N 
HETATM   14  C10 UNL     1       1.086  -1.400  21.083  1.00  0.00     0.280 A 
ATOM     15  H4  UNL     1       3.040   0.381  22.324  1.00  0.00     0.184 HD
HETATM   16  O1  UNL     1       1.880  -1.185  20.136  1.00  0.00    -0.265 OA
HETATM   17  N5  UNL     1       0.034  -2.206  20.850  1.00  0.00    -0.273 N 
HETATM   18  C11 UNL     1      -0.843  -2.461  21.847  1.00  0.00     0.330 A 
ATOM     19  H5  UNL     1      -0.101  -2.622  19.929  1.00  0.00     0.173 HD
HETATM   20  O2  UNL     1      -1.842  -3.228  21.624  1.00  0.00    -0.246 OA
HETATM   21  C12 UNL     1      -1.577  -2.172  24.113  1.00  0.00     0.163 C 
ENDBRANCH   4   7
BRANCH   1  22
HETATM   22  C4  UNL     1       3.571   4.252  27.552  1.00  0.00     0.300 C 
BRANCH  22  23
HETATM   23  C3  UNL     1       4.188   4.267  28.890  1.00  0.00     0.142 C 
BRANCH  23  24
HETATM   24  C2  UNL     1       5.600   3.770  28.950  1.00  0.00     0.025 C 
HETATM   25  C1  UNL     1       5.687   2.458  29.703  1.00  0.00     0.007 C 
ENDBRANCH  23  24
BRANCH  23  26
HETATM   26  N7  UNL     1       4.071   5.528  29.595  1.00  0.00    -0.246 N 
ATOM     27  H7  UNL     1       3.206   5.742  30.093  1.00  0.00     0.197 HD
BRANCH  26  28
HETATM   28  N8  UNL     1       4.981   6.338  29.607  1.00  0.00    -0.248 NA
BRANCH  28  29
HETATM   29  N9  UNL     1       5.693   7.342  29.612  1.00  0.00    -0.261 N 
ATOM     30  H92 UNL     1       6.537   6.777  29.518  1.00  0.00     0.193 HD
ATOM     31  H91 UNL     1       6.083   8.284  29.637  1.00  0.00     0.193 HD
ENDBRANCH  28  29
ENDBRANCH  26  28
ENDBRANCH  23  26
ENDBRANCH  22  23
ENDBRANCH   1  22
TORSDOF 7
ENDMDL
MODEL 3
REMARK VINA RESULT: -6.892603006      6.031      8.181
REMARK  7 active torsions:
REMARK  status: ('A' for Active; 'I' for Inactive)
REMARK    1  A    between atoms: C2_2  and  C3_3 
REMARK    2  A    between atoms: C3_3  and  C4_4 
REMARK    3  A    between atoms: C3_3  and  N7_26 
REMARK    4  A    between atoms: C4_4  and  N1_5 
REMARK    5  A    between atoms: N2_8  and  C7_9 
REMARK    6  A    between atoms: N7_26  and  N8_28 
REMARK    7  A    between atoms: N8_28  and  N9_29 
ROOT
HETATM    1  N1  UNL     1       2.944   0.577  22.939  1.00  0.00     0.093 N 
HETATM    2  C5  UNL     1       2.308  -0.018  24.061  1.00  0.00     0.293 C 
HETATM    3  C6  UNL     1       2.590   0.555  25.394  1.00  0.00     0.171 C 
HETATM    4  N2  UNL     1       3.141   1.865  25.418  1.00  0.00    -0.214 N 
HETATM    5  C13 UNL     1       3.839   2.376  24.264  1.00  0.00     0.171 C 
HETATM    6  C14 UNL     1       2.974   2.029  23.069  1.00  0.00     0.293 C 
ENDROOT
BRANCH   4   7
HETATM    7  C7  UNL     1       2.992   2.657  26.588  1.00  0.00     0.682 A 
HETATM    8  N3  UNL     1       1.909   2.808  27.373  1.00  0.00    -0.174 N 
HETATM    9  C8  UNL     1       2.138   3.639  28.397  1.00  0.00     0.160 A 
ATOM     10  H3  UNL     1       1.016   2.343  27.206  1.00  0.00     0.186 HD
HETATM   11  C9  UNL     1       3.444   4.048  28.269  1.00  0.00     0.162 A 
HETATM   12  N6  UNL     1       1.397   4.101  29.430  1.00  0.00    -0.287 N 
HETATM   13  N4  UNL     1       3.938   3.446  27.173  1.00  0.00    -0.182 N 
HETATM   14  C10 UNL     1       3.920   4.923  29.222  1.00  0.00     0.280 A 
ATOM     15  H4  UNL     1       4.891   3.563  26.827  1.00  0.00     0.184 HD
HETATM   16  O1  UNL     1       5.104   5.331  29.155  1.00  0.00    -0.265 OA
HETATM   17  N5  UNL     1       3.159   5.367  30.241  1.00  0.00    -0.273 N 
HETATM   18  C11 UNL     1       1.878   4.950  30.346  1.00  0.00     0.330 A 
ATOM     19  H5  UNL     1       3.547   6.013  30.927  1.00  0.00     0.173 HD
HETATM   20  O2  UNL     1       1.157   5.373  31.314  1.00  0.00    -0.246 OA
HETATM   21  C12 UNL     1       0.026   3.654  29.540  1.00  0.00     0.163 C 
ENDBRANCH   4   7
BRANCH   1  22
HETATM   22  C4  UNL     1       2.318   0.319  21.679  1.00  0.00     0.300 C 
BRANCH  22  23
HETATM   23  C3  UNL     1       2.160  -1.089  21.269  1.00  0.00     0.142 C 
BRANCH  23  24
HETATM   24  C2  UNL     1       0.745  -1.558  21.121  1.00  0.00     0.025 C 
HETATM   25  C1  UNL     1       0.506  -2.831  21.906  1.00  0.00     0.007 C 
ENDBRANCH  23  24
BRANCH  23  26
HETATM   26  N7  UNL     1       2.940  -1.470  20.108  1.00  0.00    -0.246 N 
ATOM     27  H7  UNL     1       2.815  -0.958  19.235  1.00  0.00     0.197 HD
BRANCH  26  28
HETATM   28  N8  UNL     1       3.739  -2.389  20.150  1.00  0.00    -0.248 NA
BRANCH  28  29
HETATM   29  N9  UNL     1       4.709  -3.140  20.056  1.00  0.00    -0.261 N 
ATOM     30  H92 UNL     1       5.238  -2.436  19.540  1.00  0.00     0.193 HD
ATOM     31  H91 UNL     1       5.380  -3.907  20.094  1.00  0.00     0.193 HD
ENDBRANCH  28  29
ENDBRANCH  26  28
ENDBRANCH  23  26
ENDBRANCH  22  23
ENDBRANCH   1  22
TORSDOF 7
ENDMDL
MODEL 4
REMARK VINA RESULT: -6.846209200      5.842      7.586
REMARK  7 active torsions:
REMARK  status: ('A' for Active; 'I' for Inactive)
REMARK    1  A    between atoms: C2_2  and  C3_3 
REMARK    2  A    between atoms: C3_3  and  C4_4 
REMARK    3  A    between atoms: C3_3  and  N7_26 
REMARK    4  A    between atoms: C4_4  and  N1_5 
REMARK    5  A    between atoms: N2_8  and  C7_9 
REMARK    6  A    between atoms: N7_26  and  N8_28 
REMARK    7  A    between atoms: N8_28  and  N9_29 
ROOT
HETATM    1  N1  UNL     1      -0.329  -1.238  24.233  1.00  0.00     0.093 N 
HETATM    2  C5  UNL     1      -1.200  -0.650  25.190  1.00  0.00     0.293 C 
HETATM    3  C6  UNL     1      -0.587   0.017  26.357  1.00  0.00     0.171 C 
HETATM    4  N2  UNL     1       0.787   0.362  26.241  1.00  0.00    -0.214 N 
HETATM    5  C13 UNL     1       1.629  -0.330  25.296  1.00  0.00     0.171 C 
HETATM    6  C14 UNL     1       0.838  -0.394  24.006  1.00  0.00     0.293 C 
ENDROOT
BRANCH   4   7
HETATM    7  C7  UNL     1       1.313   1.393  27.064  1.00  0.00     0.682 A 
HETATM    8  N3  UNL     1       0.683   2.134  27.996  1.00  0.00    -0.174 N 
HETATM    9  C8  UNL     1       1.502   3.019  28.578  1.00  0.00     0.160 A 
ATOM     10  H3  UNL     1      -0.304   2.033  28.231  1.00  0.00     0.186 HD
HETATM   11  C9  UNL     1       2.732   2.841  27.992  1.00  0.00     0.162 A 
HETATM   12  N6  UNL     1       1.356   3.959  29.540  1.00  0.00    -0.287 N 
HETATM   13  N4  UNL     1       2.595   1.859  27.083  1.00  0.00    -0.182 N 
HETATM   14  C10 UNL     1       3.756   3.651  28.433  1.00  0.00     0.280 A 
ATOM     15  H4  UNL     1       3.347   1.509  26.490  1.00  0.00     0.184 HD
HETATM   16  O1  UNL     1       4.901   3.532  27.932  1.00  0.00    -0.265 OA
HETATM   17  N5  UNL     1       3.583   4.579  29.392  1.00  0.00    -0.273 N 
HETATM   18  C11 UNL     1       2.364   4.735  29.955  1.00  0.00     0.330 A 
ATOM     19  H5  UNL     1       4.366   5.159  29.693  1.00  0.00     0.173 HD
HETATM   20  O2  UNL     1       2.201   5.617  30.866  1.00  0.00    -0.246 OA
HETATM   21  C12 UNL     1       0.051   4.124  30.140  1.00  0.00     0.163 C 
ENDBRANCH   4   7
BRANCH   1  22
HETATM   22  C4  UNL     1      -0.904  -1.451  22.940  1.00  0.00     0.300 C 
BRANCH  22  23
HETATM   23  C3  UNL     1      -0.286  -2.473  22.076  1.00  0.00     0.142 C 
BRANCH  23  24
HETATM   24  C2  UNL     1      -1.034  -3.767  21.977  1.00  0.00     0.025 C 
HETATM   25  C1  UNL     1      -1.426  -4.065  20.544  1.00  0.00     0.007 C 
ENDBRANCH  23  24
BRANCH  23  26
HETATM   26  N7  UNL     1       0.081  -2.004  20.754  1.00  0.00    -0.246 N 
ATOM     27  H7  UNL     1      -0.604  -2.053  20.001  1.00  0.00     0.197 HD
BRANCH  26  28
HETATM   28  N8  UNL     1       1.190  -1.553  20.524  1.00  0.00    -0.248 NA
BRANCH  28  29
HETATM   29  N9  UNL     1       2.343  -1.125  20.565  1.00  0.00    -0.261 N 
ATOM     30  H92 UNL     1       2.106  -0.483  21.322  1.00  0.00     0.193 HD
ATOM     31  H91 UNL     1       3.332  -0.920  20.429  1.00  0.00     0.193 HD
ENDBRANCH  28  29
ENDBRANCH  26  28
ENDBRANCH  23  26
ENDBRANCH  22  23
ENDBRANCH   1  22
TORSDOF 7
ENDMDL
MODEL 5
REMARK VINA RESULT: -6.803621249      6.127      7.578
REMARK  7 active torsions:
REMARK  status: ('A' for Active; 'I' for Inactive)
REMARK    1  A    between atoms: C2_2  and  C3_3 
REMARK    2  A    between atoms: C3_3  and  C4_4 
REMARK    3  A    between atoms: C3_3  and  N7_26 
REMARK    4  A    between atoms: C4_4  and  N1_5 
REMARK    5  A    between atoms: N2_8  and  C7_9 
REMARK    6  A    between atoms: N7_26  and  N8_28 
REMARK    7  A    between atoms: N8_28  and  N9_29 
ROOT
HETATM    1  N1  UNL     1      -0.504  -1.402  24.184  1.00  0.00     0.093 N 
HETATM    2  C5  UNL     1      -1.385  -0.954  25.205  1.00  0.00     0.293 C 
HETATM    3  C6  UNL     1      -0.794  -0.245  26.359  1.00  0.00     0.171 C 
HETATM    4  N2  UNL     1       0.517   0.274  26.182  1.00  0.00    -0.214 N 
HETATM    5  C13 UNL     1       1.383  -0.281  25.171  1.00  0.00     0.171 C 
HETATM    6  C14 UNL     1       0.534  -0.411  23.923  1.00  0.00     0.293 C 
ENDROOT
BRANCH   4   7
HETATM    7  C7  UNL     1       0.956   1.343  27.009  1.00  0.00     0.682 A 
HETATM    8  N3  UNL     1       2.188   1.873  27.121  1.00  0.00    -0.174 N 
HETATM    9  C8  UNL     1       2.229   2.877  28.005  1.00  0.00     0.160 A 
ATOM     10  H3  UNL     1       2.998   1.547  26.593  1.00  0.00     0.186 HD
HETATM   11  C9  UNL     1       0.950   3.005  28.494  1.00  0.00     0.162 A 
HETATM   12  N6  UNL     1       3.198   3.704  28.460  1.00  0.00    -0.287 N 
HETATM   13  N4  UNL     1       0.201   2.071  27.881  1.00  0.00    -0.182 N 
HETATM   14  C10 UNL     1       0.738   3.989  29.435  1.00  0.00     0.280 A 
ATOM     15  H4  UNL     1      -0.795   1.928  28.046  1.00  0.00     0.184 HD
HETATM   16  O1  UNL     1      -0.409   4.151  29.916  1.00  0.00    -0.265 OA
HETATM   17  N5  UNL     1       1.722   4.799  29.870  1.00  0.00    -0.273 N 
HETATM   18  C11 UNL     1       2.971   4.654  29.374  1.00  0.00     0.330 A 
ATOM     19  H5  UNL     1       1.526   5.516  30.567  1.00  0.00     0.173 HD
HETATM   20  O2  UNL     1       3.904   5.424  29.789  1.00  0.00    -0.246 OA
HETATM   21  C12 UNL     1       4.534   3.547  27.929  1.00  0.00     0.163 C 
ENDBRANCH   4   7
BRANCH   1  22
HETATM   22  C4  UNL     1      -1.121  -1.653  22.918  1.00  0.00     0.300 C 
BRANCH  22  23
HETATM   23  C3  UNL     1      -0.450  -2.597  22.005  1.00  0.00     0.142 C 
BRANCH  23  24
HETATM   24  C2  UNL     1      -1.165  -3.895  21.787  1.00  0.00     0.025 C 
HETATM   25  C1  UNL     1      -1.571  -4.060  20.337  1.00  0.00     0.007 C 
ENDBRANCH  23  24
BRANCH  23  26
HETATM   26  N7  UNL     1      -0.049  -2.025  20.735  1.00  0.00    -0.246 N 
ATOM     27  H7  UNL     1      -0.727  -1.977  19.974  1.00  0.00     0.197 HD
BRANCH  26  28
HETATM   28  N8  UNL     1       1.079  -1.603  20.554  1.00  0.00    -0.248 NA
BRANCH  28  29
HETATM   29  N9  UNL     1       2.242  -1.209  20.646  1.00  0.00    -0.261 N 
ATOM     30  H92 UNL     1       2.269  -1.437  21.640  1.00  0.00     0.193 HD
ATOM     31  H91 UNL     1       3.180  -0.838  20.499  1.00  0.00     0.193 HD
ENDBRANCH  28  29
ENDBRANCH  26  28
ENDBRANCH  23  26
ENDBRANCH  22  23
ENDBRANCH   1  22
TORSDOF 7
ENDMDL
