MODEL 1
REMARK VINA RESULT: -7.528844538      0.000      0.000
REMARK  11 active torsions:
REMARK  status: ('A' for Active; 'I' for Inactive)
REMARK    1  A    between atoms: C1_2  and  N1_3 
REMARK    2  A    between atoms: N4_6  and  N5_7 
REMARK    3  A    between atoms: N5_7  and  N6_9 
REMARK    4  A    between atoms: C2_11  and  C3_12 
REMARK    5  A    between atoms: C4_13  and  O2_14 
REMARK    6  A    between atoms: C6_17  and  O3_18 
REMARK    7  A    between atoms: C7_20  and  O4_21 
REMARK    8  A    between atoms: C8_23  and  C9_24 
REMARK       I    between atoms: C9_24  and  N7_26 
REMARK    9  A    between atoms: N7_26  and  C10_28 
REMARK   10  A    between atoms: C10_28  and  O6_29 
REMARK   11  A    between atoms: C11_31  and  O7_32 
ROOT
HETATM    1  C3  UNL     1       3.692  -9.787  27.333  1.00  0.00     0.083 A 
HETATM    2  C4  UNL     1       5.060 -10.115  27.198  1.00  0.00     0.098 A 
HETATM    3  C5  UNL     1       5.472 -10.548  25.950  1.00  0.00     0.064 A 
HETATM    4  C6  UNL     1       6.793 -10.890  25.728  1.00  0.00     0.115 A 
HETATM    5  C7  UNL     1       7.195 -11.321  24.475  1.00  0.00     0.118 A 
HETATM    6  C8  UNL     1       6.322 -11.426  23.428  1.00  0.00     0.103 A 
HETATM    7  C11 UNL     1       4.969 -11.079  23.645  1.00  0.00     0.112 A 
HETATM    8  C12 UNL     1       4.564 -10.646  24.899  1.00  0.00     0.085 A 
HETATM    9  N8  UNL     1       3.265 -10.310  25.113  1.00  0.00    -0.320 N 
ATOM     10  H8  UNL     1       2.606 -10.383  24.339  1.00  0.00     0.169 HD
HETATM   11  C13 UNL     1       2.818  -9.889  26.292  1.00  0.00     0.260 A 
HETATM   12  O8  UNL     1       1.598  -9.576  26.486  1.00  0.00    -0.267 OA
ENDROOT
BRANCH   1  13
HETATM   13  C2  UNL     1       3.256  -9.330  28.648  1.00  0.00     0.128 C 
HETATM   14  N6  UNL     1       2.642  -8.235  28.769  1.00  0.00    -0.295 N 
ATOM     15  H6  UNL     1       2.473  -7.702  27.916  1.00  0.00     0.187 HD
BRANCH  14  16
HETATM   16  N5  UNL     1       2.176  -7.688  29.954  1.00  0.00    -0.219 N 
ATOM     17  H5  UNL     1       1.191  -7.789  30.202  1.00  0.00     0.210 HD
BRANCH  16  18
HETATM   18  N4  UNL     1       3.031  -7.005  30.806  1.00  0.00    -0.111 N 
HETATM   19  N3  UNL     1       3.690  -7.518  31.846  1.00  0.00     0.021 NA
HETATM   20  N2  UNL     1       4.419  -6.551  32.427  1.00  0.00     0.007 NA
HETATM   21  N1  UNL     1       4.239  -5.417  31.775  1.00  0.00    -0.163 N 
HETATM   22  C14 UNL     1       3.378  -5.706  30.772  1.00  0.00     0.382 A 
HETATM   23  O9  UNL     1       2.944  -4.899  29.912  1.00  0.00    -0.242 OA
BRANCH  21  24
HETATM   24  C1  UNL     1       4.800  -4.142  32.027  1.00  0.00     0.378 C 
HETATM   25  O1  UNL     1       4.820  -3.637  33.175  1.00  0.00    -0.282 OA
ENDBRANCH  21  24
ENDBRANCH  16  18
ENDBRANCH  14  16
ENDBRANCH   1  13
BRANCH   2  26
HETATM   26  O2  UNL     1       5.845  -9.983  28.274  1.00  0.00    -0.359 OA
ATOM     27  H2  UNL     1       6.644 -10.498  28.308  1.00  0.00     0.217 HD
ENDBRANCH   2  26
BRANCH   4  28
HETATM   28  O3  UNL     1       7.661 -10.785  26.772  1.00  0.00    -0.357 OA
ATOM     29  H3  UNL     1       7.544 -11.375  27.509  1.00  0.00     0.217 HD
ENDBRANCH   4  28
BRANCH   5  30
HETATM   30  O4  UNL     1       8.524 -11.639  24.346  1.00  0.00    -0.357 OA
ATOM     31  H4  UNL     1       8.992 -11.198  23.646  1.00  0.00     0.217 HD
ENDBRANCH   5  30
BRANCH   7  32
HETATM   32  O7  UNL     1       4.088 -11.183  22.590  1.00  0.00    -0.357 OA
ATOM     33  H7  UNL     1       3.224 -11.542  22.757  1.00  0.00     0.217 HD
ENDBRANCH   7  32
BRANCH   6  34
HETATM   34  C9  UNL     1       6.694 -11.864  22.129  1.00  0.00     0.259 C 
HETATM   35  O5  UNL     1       6.006 -12.834  21.611  1.00  0.00    -0.267 OA
HETATM   36  N7  UNL     1       7.715 -11.381  21.327  1.00  0.00    -0.336 N 
ATOM     37  H7  UNL     1       8.296 -10.617  21.672  1.00  0.00     0.164 HD
BRANCH  36  38
HETATM   38  C10 UNL     1       7.989 -11.940  19.984  1.00  0.00     0.290 C 
BRANCH  38  39
HETATM   39  O6  UNL     1       6.867 -11.976  19.198  1.00  0.00    -0.382 OA
ATOM     40  H6  UNL     1       7.048 -12.306  18.326  1.00  0.00     0.211 HD
ENDBRANCH  38  39
ENDBRANCH  36  38
ENDBRANCH   6  34
TORSDOF 11
ENDMDL
MODEL 2
REMARK VINA RESULT: -7.392667768      0.938      1.192
REMARK  11 active torsions:
REMARK  status: ('A' for Active; 'I' for Inactive)
REMARK    1  A    between atoms: C1_2  and  N1_3 
REMARK    2  A    between atoms: N4_6  and  N5_7 
REMARK    3  A    between atoms: N5_7  and  N6_9 
REMARK    4  A    between atoms: C2_11  and  C3_12 
REMARK    5  A    between atoms: C4_13  and  O2_14 
REMARK    6  A    between atoms: C6_17  and  O3_18 
REMARK    7  A    between atoms: C7_20  and  O4_21 
REMARK    8  A    between atoms: C8_23  and  C9_24 
REMARK       I    between atoms: C9_24  and  N7_26 
REMARK    9  A    between atoms: N7_26  and  C10_28 
REMARK   10  A    between atoms: C10_28  and  O6_29 
REMARK   11  A    between atoms: C11_31  and  O7_32 
ROOT
HETATM    1  C3  UNL     1       3.769  -9.546  27.472  1.00  0.00     0.083 A 
HETATM    2  C4  UNL     1       5.119  -9.931  27.317  1.00  0.00     0.098 A 
HETATM    3  C5  UNL     1       5.493 -10.388  26.064  1.00  0.00     0.064 A 
HETATM    4  C6  UNL     1       6.794 -10.786  25.824  1.00  0.00     0.115 A 
HETATM    5  C7  UNL     1       7.158 -11.241  24.567  1.00  0.00     0.118 A 
HETATM    6  C8  UNL     1       6.265 -11.316  23.535  1.00  0.00     0.103 A 
HETATM    7  C11 UNL     1       4.930 -10.911  23.772  1.00  0.00     0.112 A 
HETATM    8  C12 UNL     1       4.564 -10.455  25.029  1.00  0.00     0.085 A 
HETATM    9  N8  UNL     1       3.284 -10.064  25.262  1.00  0.00    -0.320 N 
ATOM     10  H8  UNL     1       2.610 -10.114  24.499  1.00  0.00     0.169 HD
HETATM   11  C13 UNL     1       2.875  -9.618  26.445  1.00  0.00     0.260 A 
HETATM   12  O8  UNL     1       1.672  -9.254  26.656  1.00  0.00    -0.267 OA
ENDROOT
BRANCH   1  13
HETATM   13  C2  UNL     1       3.374  -9.063  28.790  1.00  0.00     0.128 C 
HETATM   14  N6  UNL     1       3.486  -7.841  29.080  1.00  0.00    -0.295 N 
ATOM     15  H6  UNL     1       3.859  -7.226  28.357  1.00  0.00     0.187 HD
BRANCH  14  16
HETATM   16  N5  UNL     1       3.149  -7.255  30.289  1.00  0.00    -0.219 N 
ATOM     17  H5  UNL     1       2.629  -7.794  30.982  1.00  0.00     0.210 HD
BRANCH  16  18
HETATM   18  N4  UNL     1       3.510  -5.945  30.569  1.00  0.00    -0.111 N 
HETATM   19  N3  UNL     1       3.068  -4.851  29.946  1.00  0.00     0.021 NA
HETATM   20  N2  UNL     1       3.642  -3.769  30.496  1.00  0.00     0.007 NA
HETATM   21  N1  UNL     1       4.450  -4.149  31.469  1.00  0.00    -0.163 N 
HETATM   22  C14 UNL     1       4.362  -5.498  31.508  1.00  0.00     0.382 A 
HETATM   23  O9  UNL     1       4.978  -6.259  32.297  1.00  0.00    -0.242 OA
BRANCH  21  24
HETATM   24  C1  UNL     1       5.259  -3.359  32.321  1.00  0.00     0.378 C 
HETATM   25  O1  UNL     1       5.017  -3.239  33.546  1.00  0.00    -0.282 OA
ENDBRANCH  21  24
ENDBRANCH  16  18
ENDBRANCH  14  16
ENDBRANCH   1  13
BRANCH   2  26
HETATM   26  O2  UNL     1       5.927  -9.826  28.379  1.00  0.00    -0.359 OA
ATOM     27  H2  UNL     1       6.711 -10.362  28.397  1.00  0.00     0.217 HD
ENDBRANCH   2  26
BRANCH   4  28
HETATM   28  O3  UNL     1       7.684 -10.712  26.853  1.00  0.00    -0.357 OA
ATOM     29  H3  UNL     1       8.055 -11.523  27.179  1.00  0.00     0.217 HD
ENDBRANCH   4  28
BRANCH   5  30
HETATM   30  O4  UNL     1       8.471 -11.615  24.419  1.00  0.00    -0.357 OA
ATOM     31  H4  UNL     1       8.637 -12.550  24.394  1.00  0.00     0.217 HD
ENDBRANCH   5  30
BRANCH   7  32
HETATM   32  O7  UNL     1       4.028 -10.985  22.732  1.00  0.00    -0.357 OA
ATOM     33  H7  UNL     1       3.165 -11.340  22.907  1.00  0.00     0.217 HD
ENDBRANCH   7  32
BRANCH   6  34
HETATM   34  C9  UNL     1       6.596 -11.777  22.234  1.00  0.00     0.259 C 
HETATM   35  O5  UNL     1       5.863 -12.724  21.735  1.00  0.00    -0.267 OA
HETATM   36  N7  UNL     1       7.620 -11.338  21.409  1.00  0.00    -0.336 N 
ATOM     37  H7  UNL     1       8.236 -10.594  21.739  1.00  0.00     0.164 HD
BRANCH  36  38
HETATM   38  C10 UNL     1       7.849 -11.916  20.067  1.00  0.00     0.290 C 
BRANCH  38  39
HETATM   39  O6  UNL     1       6.713 -11.915  19.300  1.00  0.00    -0.382 OA
ATOM     40  H6  UNL     1       5.975 -12.309  19.749  1.00  0.00     0.211 HD
ENDBRANCH  38  39
ENDBRANCH  36  38
ENDBRANCH   6  34
TORSDOF 11
ENDMDL
MODEL 3
REMARK VINA RESULT: -7.269563979      4.083      6.213
REMARK  11 active torsions:
REMARK  status: ('A' for Active; 'I' for Inactive)
REMARK    1  A    between atoms: C1_2  and  N1_3 
REMARK    2  A    between atoms: N4_6  and  N5_7 
REMARK    3  A    between atoms: N5_7  and  N6_9 
REMARK    4  A    between atoms: C2_11  and  C3_12 
REMARK    5  A    between atoms: C4_13  and  O2_14 
REMARK    6  A    between atoms: C6_17  and  O3_18 
REMARK    7  A    between atoms: C7_20  and  O4_21 
REMARK    8  A    between atoms: C8_23  and  C9_24 
REMARK       I    between atoms: C9_24  and  N7_26 
REMARK    9  A    between atoms: N7_26  and  C10_28 
REMARK   10  A    between atoms: C10_28  and  O6_29 
REMARK   11  A    between atoms: C11_31  and  O7_32 
ROOT
HETATM    1  C3  UNL     1       7.384 -11.546  24.013  1.00  0.00     0.083 A 
HETATM    2  C4  UNL     1       7.928 -12.622  24.750  1.00  0.00     0.098 A 
HETATM    3  C5  UNL     1       8.523 -13.636  24.018  1.00  0.00     0.064 A 
HETATM    4  C6  UNL     1       9.080 -14.726  24.657  1.00  0.00     0.115 A 
HETATM    5  C7  UNL     1       9.674 -15.735  23.916  1.00  0.00     0.118 A 
HETATM    6  C8  UNL     1       9.731 -15.694  22.550  1.00  0.00     0.103 A 
HETATM    7  C11 UNL     1       9.163 -14.582  21.887  1.00  0.00     0.112 A 
HETATM    8  C12 UNL     1       8.568 -13.572  22.628  1.00  0.00     0.085 A 
HETATM    9  N8  UNL     1       8.021 -12.500  21.996  1.00  0.00    -0.320 N 
ATOM     10  H8  UNL     1       8.060 -12.460  20.978  1.00  0.00     0.169 HD
HETATM   11  C13 UNL     1       7.439 -11.501  22.652  1.00  0.00     0.260 A 
HETATM   12  O8  UNL     1       6.928 -10.500  22.052  1.00  0.00    -0.267 OA
ENDROOT
BRANCH   1  13
HETATM   13  C2  UNL     1       6.757 -10.478  24.783  1.00  0.00     0.128 C 
HETATM   14  N6  UNL     1       5.533 -10.215  24.626  1.00  0.00    -0.295 N 
ATOM     15  H6  UNL     1       5.021 -10.780  23.948  1.00  0.00     0.187 HD
BRANCH  14  16
HETATM   16  N5  UNL     1       4.819  -9.231  25.290  1.00  0.00    -0.219 N 
ATOM     17  H5  UNL     1       5.113  -8.257  25.214  1.00  0.00     0.210 HD
BRANCH  16  18
HETATM   18  N4  UNL     1       3.709  -9.554  26.058  1.00  0.00    -0.111 N 
HETATM   19  N3  UNL     1       2.709  -8.736  26.391  1.00  0.00     0.021 NA
HETATM   20  N2  UNL     1       1.819  -9.407  27.138  1.00  0.00     0.007 NA
HETATM   21  N1  UNL     1       2.231 -10.653  27.295  1.00  0.00    -0.163 N 
HETATM   22  C14 UNL     1       3.402 -10.735  26.622  1.00  0.00     0.382 A 
HETATM   23  O9  UNL     1       4.127 -11.757  26.519  1.00  0.00    -0.242 OA
BRANCH  21  24
HETATM   24  C1  UNL     1       1.619 -11.715  28.002  1.00  0.00     0.378 C 
HETATM   25  O1  UNL     1       0.478 -11.605  28.513  1.00  0.00    -0.282 OA
ENDBRANCH  21  24
ENDBRANCH  16  18
ENDBRANCH  14  16
ENDBRANCH   1  13
BRANCH   2  26
HETATM   26  O2  UNL     1       7.829 -12.582  26.084  1.00  0.00    -0.359 OA
ATOM     27  H2  UNL     1       8.633 -12.564  26.590  1.00  0.00     0.217 HD
ENDBRANCH   2  26
BRANCH   4  28
HETATM   28  O3  UNL     1       9.023 -14.765  26.018  1.00  0.00    -0.357 OA
ATOM     29  H3  UNL     1       9.235 -15.586  26.448  1.00  0.00     0.217 HD
ENDBRANCH   4  28
BRANCH   5  30
HETATM   30  O4  UNL     1      10.202 -16.779  24.634  1.00  0.00    -0.357 OA
ATOM     31  H4  UNL     1      10.387 -17.570  24.142  1.00  0.00     0.217 HD
ENDBRANCH   5  30
BRANCH   7  32
HETATM   32  O7  UNL     1       9.220 -14.540  20.511  1.00  0.00    -0.357 OA
ATOM     33  H7  UNL     1       8.672 -13.913  20.055  1.00  0.00     0.217 HD
ENDBRANCH   7  32
BRANCH   6  34
HETATM   34  C9  UNL     1      10.329 -16.706  21.754  1.00  0.00     0.259 C 
HETATM   35  O5  UNL     1       9.983 -17.933  21.995  1.00  0.00    -0.267 OA
HETATM   36  N7  UNL     1      11.252 -16.552  20.732  1.00  0.00    -0.336 N 
ATOM     37  H7  UNL     1      11.568 -15.613  20.488  1.00  0.00     0.164 HD
BRANCH  36  38
HETATM   38  C10 UNL     1      11.793 -17.707  19.982  1.00  0.00     0.290 C 
BRANCH  38  39
HETATM   39  O6  UNL     1      10.855 -18.282  19.165  1.00  0.00    -0.382 OA
ATOM     40  H6  UNL     1      10.751 -19.211  19.334  1.00  0.00     0.211 HD
ENDBRANCH  38  39
ENDBRANCH  36  38
ENDBRANCH   6  34
TORSDOF 11
ENDMDL
MODEL 4
REMARK VINA RESULT: -7.206317356      3.651     10.030
REMARK  11 active torsions:
REMARK  status: ('A' for Active; 'I' for Inactive)
REMARK    1  A    between atoms: C1_2  and  N1_3 
REMARK    2  A    between atoms: N4_6  and  N5_7 
REMARK    3  A    between atoms: N5_7  and  N6_9 
REMARK    4  A    between atoms: C2_11  and  C3_12 
REMARK    5  A    between atoms: C4_13  and  O2_14 
REMARK    6  A    between atoms: C6_17  and  O3_18 
REMARK    7  A    between atoms: C7_20  and  O4_21 
REMARK    8  A    between atoms: C8_23  and  C9_24 
REMARK       I    between atoms: C9_24  and  N7_26 
REMARK    9  A    between atoms: N7_26  and  C10_28 
REMARK   10  A    between atoms: C10_28  and  O6_29 
REMARK   11  A    between atoms: C11_31  and  O7_32 
ROOT
HETATM    1  C3  UNL     1       7.555 -12.310  22.342  1.00  0.00     0.083 A 
HETATM    2  C4  UNL     1       7.822 -12.218  23.726  1.00  0.00     0.098 A 
HETATM    3  C5  UNL     1       6.865 -11.585  24.501  1.00  0.00     0.064 A 
HETATM    4  C6  UNL     1       7.045 -11.449  25.864  1.00  0.00     0.115 A 
HETATM    5  C7  UNL     1       6.079 -10.815  26.630  1.00  0.00     0.118 A 
HETATM    6  C8  UNL     1       4.935 -10.307  26.081  1.00  0.00     0.103 A 
HETATM    7  C11 UNL     1       4.743 -10.441  24.687  1.00  0.00     0.112 A 
HETATM    8  C12 UNL     1       5.707 -11.075  23.918  1.00  0.00     0.085 A 
HETATM    9  N8  UNL     1       5.527 -11.208  22.578  1.00  0.00    -0.320 N 
ATOM     10  H8  UNL     1       4.676 -10.833  22.159  1.00  0.00     0.169 HD
HETATM   11  C13 UNL     1       6.415 -11.806  21.791  1.00  0.00     0.260 A 
HETATM   12  O8  UNL     1       6.240 -11.926  20.534  1.00  0.00    -0.267 OA
ENDROOT
BRANCH   1  13
HETATM   13  C2  UNL     1       8.563 -12.977  21.525  1.00  0.00     0.128 C 
HETATM   14  N6  UNL     1       8.795 -14.207  21.679  1.00  0.00    -0.295 N 
ATOM     15  H6  UNL     1       8.250 -14.696  22.391  1.00  0.00     0.187 HD
BRANCH  14  16
HETATM   16  N5  UNL     1       9.720 -14.958  20.972  1.00  0.00    -0.219 N 
ATOM     17  H5  UNL     1       9.884 -14.757  19.986  1.00  0.00     0.210 HD
BRANCH  16  18
HETATM   18  N4  UNL     1      10.427 -15.979  21.591  1.00  0.00    -0.111 N 
HETATM   19  N3  UNL     1      11.059 -16.986  20.984  1.00  0.00     0.021 NA
HETATM   20  N2  UNL     1      11.628 -17.772  21.912  1.00  0.00     0.007 NA
HETATM   21  N1  UNL     1      11.373 -17.286  23.113  1.00  0.00    -0.163 N 
HETATM   22  C14 UNL     1      10.629 -16.176  22.905  1.00  0.00     0.382 A 
HETATM   23  O9  UNL     1      10.173 -15.412  23.794  1.00  0.00    -0.242 OA
BRANCH  21  24
HETATM   24  C1  UNL     1      11.767 -17.779  24.380  1.00  0.00     0.378 C 
HETATM   25  O1  UNL     1      10.984 -18.427  25.116  1.00  0.00    -0.282 OA
ENDBRANCH  21  24
ENDBRANCH  16  18
ENDBRANCH  14  16
ENDBRANCH   1  13
BRANCH   2  26
HETATM   26  O2  UNL     1       8.967 -12.742  24.180  1.00  0.00    -0.359 OA
ATOM     27  H2  UNL     1       9.026 -12.949  25.106  1.00  0.00     0.217 HD
ENDBRANCH   2  26
BRANCH   4  28
HETATM   28  O3  UNL     1       8.185 -11.956  26.409  1.00  0.00    -0.357 OA
ATOM     29  H3  UNL     1       8.320 -11.842  27.343  1.00  0.00     0.217 HD
ENDBRANCH   4  28
BRANCH   5  30
HETATM   30  O4  UNL     1       6.341 -10.726  27.974  1.00  0.00    -0.357 OA
ATOM     31  H4  UNL     1       5.868 -10.051  28.446  1.00  0.00     0.217 HD
ENDBRANCH   5  30
BRANCH   7  32
HETATM   32  O7  UNL     1       3.589  -9.929  24.132  1.00  0.00    -0.357 OA
ATOM     33  H7  UNL     1       3.616  -9.625  23.232  1.00  0.00     0.217 HD
ENDBRANCH   7  32
BRANCH   6  34
HETATM   34  C9  UNL     1       3.923  -9.650  26.830  1.00  0.00     0.259 C 
HETATM   35  O5  UNL     1       4.257  -8.561  27.449  1.00  0.00    -0.267 OA
HETATM   36  N7  UNL     1       2.599 -10.027  26.988  1.00  0.00    -0.336 N 
ATOM     37  H7  UNL     1       2.268 -10.875  26.527  1.00  0.00     0.164 HD
BRANCH  36  38
HETATM   38  C10 UNL     1       1.651  -9.239  27.804  1.00  0.00     0.290 C 
BRANCH  38  39
HETATM   39  O6  UNL     1       1.337  -8.038  27.222  1.00  0.00    -0.382 OA
ATOM     40  H6  UNL     1       0.419  -7.981  26.986  1.00  0.00     0.211 HD
ENDBRANCH  38  39
ENDBRANCH  36  38
ENDBRANCH   6  34
TORSDOF 11
ENDMDL
MODEL 5
REMARK VINA RESULT: -7.166748192      4.135      5.861
REMARK  11 active torsions:
REMARK  status: ('A' for Active; 'I' for Inactive)
REMARK    1  A    between atoms: C1_2  and  N1_3 
REMARK    2  A    between atoms: N4_6  and  N5_7 
REMARK    3  A    between atoms: N5_7  and  N6_9 
REMARK    4  A    between atoms: C2_11  and  C3_12 
REMARK    5  A    between atoms: C4_13  and  O2_14 
REMARK    6  A    between atoms: C6_17  and  O3_18 
REMARK    7  A    between atoms: C7_20  and  O4_21 
REMARK    8  A    between atoms: C8_23  and  C9_24 
REMARK       I    between atoms: C9_24  and  N7_26 
REMARK    9  A    between atoms: N7_26  and  C10_28 
REMARK   10  A    between atoms: C10_28  and  O6_29 
REMARK   11  A    between atoms: C11_31  and  O7_32 
ROOT
HETATM    1  C3  UNL     1       7.484 -11.749  24.025  1.00  0.00     0.083 A 
HETATM    2  C4  UNL     1       8.060 -12.827  24.734  1.00  0.00     0.098 A 
HETATM    3  C5  UNL     1       8.660 -13.817  23.975  1.00  0.00     0.064 A 
HETATM    4  C6  UNL     1       9.247 -14.909  24.586  1.00  0.00     0.115 A 
HETATM    5  C7  UNL     1       9.846 -15.893  23.817  1.00  0.00     0.118 A 
HETATM    6  C8  UNL     1       9.879 -15.829  22.452  1.00  0.00     0.103 A 
HETATM    7  C11 UNL     1       9.280 -14.716  21.818  1.00  0.00     0.112 A 
HETATM    8  C12 UNL     1       8.681 -13.729  22.585  1.00  0.00     0.085 A 
HETATM    9  N8  UNL     1       8.104 -12.656  21.982  1.00  0.00    -0.320 N 
ATOM     10  H8  UNL     1       8.125 -12.598  20.964  1.00  0.00     0.169 HD
HETATM   11  C13 UNL     1       7.516 -11.680  22.664  1.00  0.00     0.260 A 
HETATM   12  O8  UNL     1       6.977 -10.678  22.091  1.00  0.00    -0.267 OA
ENDROOT
BRANCH   1  13
HETATM   13  C2  UNL     1       6.852 -10.705  24.824  1.00  0.00     0.128 C 
HETATM   14  N6  UNL     1       5.897 -10.987  25.599  1.00  0.00    -0.295 N 
ATOM     15  H6  UNL     1       5.602 -11.963  25.633  1.00  0.00     0.187 HD
BRANCH  14  16
HETATM   16  N5  UNL     1       5.213 -10.094  26.407  1.00  0.00    -0.219 N 
ATOM     17  H5  UNL     1       4.241 -10.282  26.655  1.00  0.00     0.210 HD
BRANCH  16  18
HETATM   18  N4  UNL     1       5.833  -8.949  26.885  1.00  0.00    -0.111 N 
HETATM   19  N3  UNL     1       5.550  -7.691  26.541  1.00  0.00     0.021 NA
HETATM   20  N2  UNL     1       6.359  -6.857  27.212  1.00  0.00     0.007 NA
HETATM   21  N1  UNL     1       7.165  -7.559  27.988  1.00  0.00    -0.163 N 
HETATM   22  C14 UNL     1       6.832  -8.854  27.780  1.00  0.00     0.382 A 
HETATM   23  O9  UNL     1       7.363  -9.853  28.329  1.00  0.00    -0.242 OA
BRANCH  21  24
HETATM   24  C1  UNL     1       8.177  -7.108  28.869  1.00  0.00     0.378 C 
HETATM   25  O1  UNL     1       9.387  -7.083  28.536  1.00  0.00    -0.282 OA
ENDBRANCH  21  24
ENDBRANCH  16  18
ENDBRANCH  14  16
ENDBRANCH   1  13
BRANCH   2  26
HETATM   26  O2  UNL     1       7.983 -12.811  26.070  1.00  0.00    -0.359 OA
ATOM     27  H2  UNL     1       7.942 -11.967  26.504  1.00  0.00     0.217 HD
ENDBRANCH   2  26
BRANCH   4  28
HETATM   28  O3  UNL     1       9.214 -14.972  25.946  1.00  0.00    -0.357 OA
ATOM     29  H3  UNL     1       9.625 -15.718  26.367  1.00  0.00     0.217 HD
ENDBRANCH   4  28
BRANCH   5  30
HETATM   30  O4  UNL     1      10.405 -16.940  24.508  1.00  0.00    -0.357 OA
ATOM     31  H4  UNL     1      10.294 -17.800  24.120  1.00  0.00     0.217 HD
ENDBRANCH   5  30
BRANCH   7  32
HETATM   32  O7  UNL     1       9.313 -14.649  20.441  1.00  0.00    -0.357 OA
ATOM     33  H7  UNL     1       8.495 -14.727  19.965  1.00  0.00     0.217 HD
ENDBRANCH   7  32
BRANCH   6  34
HETATM   34  C9  UNL     1      10.481 -16.816  21.628  1.00  0.00     0.259 C 
HETATM   35  O5  UNL     1      10.157 -18.052  21.850  1.00  0.00    -0.267 OA
HETATM   36  N7  UNL     1      11.387 -16.629  20.596  1.00  0.00    -0.336 N 
ATOM     37  H7  UNL     1      11.686 -15.680  20.367  1.00  0.00     0.164 HD
BRANCH  36  38
HETATM   38  C10 UNL     1      11.935 -17.761  19.817  1.00  0.00     0.290 C 
BRANCH  38  39
HETATM   39  O6  UNL     1      10.994 -18.336  19.004  1.00  0.00    -0.382 OA
ATOM     40  H6  UNL     1      11.336 -18.534  18.140  1.00  0.00     0.211 HD
ENDBRANCH  38  39
ENDBRANCH  36  38
ENDBRANCH   6  34
TORSDOF 11
ENDMDL
