MODEL 1
REMARK VINA RESULT: -6.716151164      0.000      0.000
REMARK  11 active torsions:
REMARK  status: ('A' for Active; 'I' for Inactive)
REMARK    1  A    between atoms: O1_2  and  N1_3 
REMARK    2  A    between atoms: N1_3  and  C2_4 
REMARK    3  A    between atoms: C2_4  and  O2_5 
REMARK    4  A    between atoms: C2_4  and  C3_7 
REMARK    5  A    between atoms: C4_8  and  N2_9 
REMARK    6  A    between atoms: N2_9  and  C5_11 
REMARK    7  A    between atoms: C5_11  and  N3_12 
REMARK    8  A    between atoms: C5_11  and  O3_16 
REMARK    9  A    between atoms: N5_22  and  N6_23 
REMARK   10  A    between atoms: C8_26  and  N7_27 
REMARK   11  A    between atoms: N10_36  and  O5_37 
ROOT
HETATM    1  C3  UNL     1       6.591  -0.835  27.809  1.00  0.00     0.063 A 
HETATM    2  C4  UNL     1       5.386  -0.109  27.739  1.00  0.00     0.075 A 
HETATM    3  C6  UNL     1       4.767   0.135  28.943  1.00  0.00     0.143 A 
HETATM    4  N4  UNL     1       3.563   0.896  29.005  1.00  0.00    -0.094 NA
HETATM    5  C7  UNL     1       5.310  -0.319  30.150  1.00  0.00     0.294 A 
HETATM    6  O4  UNL     1       4.686  -0.056  31.192  1.00  0.00    -0.264 OA
HETATM    7  N5  UNL     1       6.450  -1.004  30.163  1.00  0.00    -0.208 N 
HETATM    8  C8  UNL     1       7.093  -1.266  29.013  1.00  0.00     0.146 A 
ENDROOT
BRANCH   8   9
HETATM    9  N7  UNL     1       8.313  -1.993  29.060  1.00  0.00    -0.312 N 
HETATM   10  C9  UNL     1       8.384  -3.412  28.876  1.00  0.00     0.152 C 
HETATM   11  C10 UNL     1       9.542  -4.025  29.560  1.00  0.00     0.143 C 
HETATM   12  N8  UNL     1      10.768  -3.345  29.204  1.00  0.00    -0.379 N 
HETATM   13  C11 UNL     1      11.971  -3.990  28.751  1.00  0.00     0.150 C 
HETATM   14  C12 UNL     1      10.715  -1.908  29.345  1.00  0.00     0.102 A 
HETATM   15  C13 UNL     1       9.510  -1.256  29.273  1.00  0.00     0.155 A 
HETATM   16  C14 UNL     1      11.677  -0.945  29.551  1.00  0.00     0.085 A 
HETATM   17  N9  UNL     1       9.801   0.050  29.438  1.00  0.00    -0.257 N 
HETATM   18  N10 UNL     1      11.092   0.264  29.606  1.00  0.00    -0.164 N 
ATOM     19  H9  UNL     1       9.100   0.791  29.433  1.00  0.00     0.191 HD
HETATM   20  C15 UNL     1      13.136  -1.223  29.686  1.00  0.00     0.075 C 
BRANCH  18  21
HETATM   21  O5  UNL     1      11.760   1.448  29.802  1.00  0.00    -0.268 OA
ATOM     22  H5  UNL     1      11.492   2.218  30.290  1.00  0.00     0.247 HD
ENDBRANCH  18  21
ENDBRANCH   8   9
BRANCH   1  23
HETATM   23  C2  UNL     1       7.400  -1.090  26.630  1.00  0.00     0.278 C 
BRANCH  23  24
HETATM   24  N1  UNL     1       7.758   0.095  25.885  1.00  0.00    -0.064 NA
BRANCH  24  25
HETATM   25  O1  UNL     1       8.740   0.797  26.443  1.00  0.00    -0.289 OA
HETATM   26  C1  UNL     1       8.315   1.897  27.154  1.00  0.00     0.231 C 
ENDBRANCH  24  25
ENDBRANCH  23  24
BRANCH  23  27
HETATM   27  O2  UNL     1       6.687  -1.977  25.775  1.00  0.00    -0.373 OA
ATOM     28  H2  UNL     1       6.226  -2.616  26.306  1.00  0.00     0.212 HD
ENDBRANCH  23  27
ENDBRANCH   1  23
BRANCH   7  29
HETATM   29  N6  UNL     1       7.002  -1.466  31.359  1.00  0.00    -0.334 N 
ATOM     30  H62 UNL     1       6.506  -2.188  31.881  1.00  0.00     0.177 HD
ATOM     31  H61 UNL     1       7.884  -1.093  31.712  1.00  0.00     0.177 HD
ENDBRANCH   7  29
BRANCH   2  32
HETATM   32  N2  UNL     1       4.884   0.256  26.481  1.00  0.00    -0.340 N 
ATOM     33  H2  UNL     1       4.659  -0.526  25.867  1.00  0.00     0.164 HD
BRANCH  32  34
HETATM   34  C5  UNL     1       4.634   1.555  25.920  1.00  0.00     0.424 C 
BRANCH  34  35
HETATM   35  N3  UNL     1       3.317   1.658  25.310  1.00  0.00    -0.035 N 
ATOM     36  H33 UNL     1       3.081   0.805  24.803  1.00  0.00     0.279 HD
ATOM     37  H32 UNL     1       2.583   1.638  26.017  1.00  0.00     0.279 HD
ATOM     38  H31 UNL     1       3.225   2.479  24.710  1.00  0.00     0.279 HD
ENDBRANCH  34  35
BRANCH  34  39
HETATM   39  O3  UNL     1       5.544   1.808  24.855  1.00  0.00    -0.355 OA
ATOM     40  H3  UNL     1       5.317   1.278  24.101  1.00  0.00     0.213 HD
ENDBRANCH  34  39
ENDBRANCH  32  34
ENDBRANCH   2  32
TORSDOF 11
ENDMDL
MODEL 2
REMARK VINA RESULT: -6.400919935      1.210      1.445
REMARK  11 active torsions:
REMARK  status: ('A' for Active; 'I' for Inactive)
REMARK    1  A    between atoms: O1_2  and  N1_3 
REMARK    2  A    between atoms: N1_3  and  C2_4 
REMARK    3  A    between atoms: C2_4  and  O2_5 
REMARK    4  A    between atoms: C2_4  and  C3_7 
REMARK    5  A    between atoms: C4_8  and  N2_9 
REMARK    6  A    between atoms: N2_9  and  C5_11 
REMARK    7  A    between atoms: C5_11  and  N3_12 
REMARK    8  A    between atoms: C5_11  and  O3_16 
REMARK    9  A    between atoms: N5_22  and  N6_23 
REMARK   10  A    between atoms: C8_26  and  N7_27 
REMARK   11  A    between atoms: N10_36  and  O5_37 
ROOT
HETATM    1  C3  UNL     1       6.730  -0.622  28.721  1.00  0.00     0.063 A 
HETATM    2  C4  UNL     1       5.558   0.131  28.920  1.00  0.00     0.075 A 
HETATM    3  C6  UNL     1       5.171   0.293  30.231  1.00  0.00     0.143 A 
HETATM    4  N4  UNL     1       4.022   1.072  30.563  1.00  0.00    -0.094 NA
HETATM    5  C7  UNL     1       5.902  -0.264  31.285  1.00  0.00     0.294 A 
HETATM    6  O4  UNL     1       5.481  -0.070  32.438  1.00  0.00    -0.264 OA
HETATM    7  N5  UNL     1       7.003  -0.971  31.044  1.00  0.00    -0.208 N 
HETATM    8  C8  UNL     1       7.423  -1.155  29.781  1.00  0.00     0.146 A 
ENDROOT
BRANCH   8   9
HETATM    9  N7  UNL     1       8.607  -1.908  29.556  1.00  0.00    -0.312 N 
HETATM   10  C9  UNL     1       8.596  -3.310  29.260  1.00  0.00     0.152 C 
HETATM   11  C10 UNL     1       9.835  -3.997  29.679  1.00  0.00     0.143 C 
HETATM   12  N8  UNL     1      11.002  -3.317  29.160  1.00  0.00    -0.379 N 
HETATM   13  C11 UNL     1      12.083  -3.950  28.452  1.00  0.00     0.150 C 
HETATM   14  C12 UNL     1      11.023  -1.894  29.412  1.00  0.00     0.102 A 
HETATM   15  C13 UNL     1       9.847  -1.214  29.604  1.00  0.00     0.155 A 
HETATM   16  C14 UNL     1      12.038  -0.970  29.511  1.00  0.00     0.085 A 
HETATM   17  N9  UNL     1      10.206   0.069  29.808  1.00  0.00    -0.257 N 
HETATM   18  N10 UNL     1      11.513   0.243  29.757  1.00  0.00    -0.164 N 
ATOM     19  H9  UNL     1       9.541   0.822  29.982  1.00  0.00     0.191 HD
HETATM   20  C15 UNL     1      13.488  -1.287  29.362  1.00  0.00     0.075 C 
BRANCH  18  21
HETATM   21  O5  UNL     1      12.245   1.394  29.915  1.00  0.00    -0.268 OA
ATOM     22  H5  UNL     1      13.045   1.664  29.479  1.00  0.00     0.247 HD
ENDBRANCH  18  21
ENDBRANCH   8   9
BRANCH   1  23
HETATM   23  C2  UNL     1       7.309  -0.801  27.401  1.00  0.00     0.278 C 
BRANCH  23  24
HETATM   24  N1  UNL     1       7.656   0.431  26.730  1.00  0.00    -0.064 NA
BRANCH  24  25
HETATM   25  O1  UNL     1       7.017   0.606  25.577  1.00  0.00    -0.289 OA
HETATM   26  C1  UNL     1       6.594   1.897  25.356  1.00  0.00     0.231 C 
ENDBRANCH  24  25
ENDBRANCH  23  24
BRANCH  23  27
HETATM   27  O2  UNL     1       6.385  -1.524  26.595  1.00  0.00    -0.373 OA
ATOM     28  H2  UNL     1       6.838  -2.246  26.177  1.00  0.00     0.212 HD
ENDBRANCH  23  27
ENDBRANCH   1  23
BRANCH   7  29
HETATM   29  N6  UNL     1       7.742  -1.535  32.085  1.00  0.00    -0.334 N 
ATOM     30  H62 UNL     1       7.336  -1.552  33.020  1.00  0.00     0.177 HD
ATOM     31  H61 UNL     1       8.671  -1.924  31.922  1.00  0.00     0.177 HD
ENDBRANCH   7  29
BRANCH   2  32
HETATM   32  N2  UNL     1       4.853   0.603  27.803  1.00  0.00    -0.340 N 
ATOM     33  H2  UNL     1       5.266   1.418  27.351  1.00  0.00     0.164 HD
BRANCH  32  34
HETATM   34  C5  UNL     1       3.644   0.122  27.195  1.00  0.00     0.424 C 
BRANCH  34  35
HETATM   35  N3  UNL     1       2.452   0.509  27.934  1.00  0.00    -0.035 N 
ATOM     36  H33 UNL     1       2.537   1.460  28.294  1.00  0.00     0.279 HD
ATOM     37  H32 UNL     1       1.658   0.641  27.308  1.00  0.00     0.279 HD
ATOM     38  H31 UNL     1       2.223  -0.147  28.681  1.00  0.00     0.279 HD
ENDBRANCH  34  35
BRANCH  34  39
HETATM   39  O3  UNL     1       3.626  -1.301  27.205  1.00  0.00    -0.355 OA
ATOM     40  H3  UNL     1       2.733  -1.616  27.128  1.00  0.00     0.213 HD
ENDBRANCH  34  39
ENDBRANCH  32  34
ENDBRANCH   2  32
TORSDOF 11
ENDMDL
MODEL 3
REMARK VINA RESULT: -6.370874855      1.061      1.091
REMARK  11 active torsions:
REMARK  status: ('A' for Active; 'I' for Inactive)
REMARK    1  A    between atoms: O1_2  and  N1_3 
REMARK    2  A    between atoms: N1_3  and  C2_4 
REMARK    3  A    between atoms: C2_4  and  O2_5 
REMARK    4  A    between atoms: C2_4  and  C3_7 
REMARK    5  A    between atoms: C4_8  and  N2_9 
REMARK    6  A    between atoms: N2_9  and  C5_11 
REMARK    7  A    between atoms: C5_11  and  N3_12 
REMARK    8  A    between atoms: C5_11  and  O3_16 
REMARK    9  A    between atoms: N5_22  and  N6_23 
REMARK   10  A    between atoms: C8_26  and  N7_27 
REMARK   11  A    between atoms: N10_36  and  O5_37 
ROOT
HETATM    1  C3  UNL     1       6.719  -1.415  28.383  1.00  0.00     0.063 A 
HETATM    2  C4  UNL     1       5.435  -0.850  28.503  1.00  0.00     0.075 A 
HETATM    3  C6  UNL     1       4.909  -0.831  29.774  1.00  0.00     0.143 A 
HETATM    4  N4  UNL     1       3.633  -0.247  30.029  1.00  0.00    -0.094 NA
HETATM    5  C7  UNL     1       5.615  -1.348  30.866  1.00  0.00     0.294 A 
HETATM    6  O4  UNL     1       5.066  -1.292  31.979  1.00  0.00    -0.264 OA
HETATM    7  N5  UNL     1       6.825  -1.875  30.700  1.00  0.00    -0.208 N 
HETATM    8  C8  UNL     1       7.382  -1.913  29.478  1.00  0.00     0.146 A 
ENDROOT
BRANCH   8   9
HETATM    9  N7  UNL     1       8.680  -2.475  29.334  1.00  0.00    -0.312 N 
HETATM   10  C9  UNL     1       8.903  -3.863  29.058  1.00  0.00     0.152 C 
HETATM   11  C10 UNL     1      10.206  -4.347  29.560  1.00  0.00     0.143 C 
HETATM   12  N8  UNL     1      11.283  -3.497  29.100  1.00  0.00    -0.379 N 
HETATM   13  C11 UNL     1      12.489  -3.958  28.467  1.00  0.00     0.150 C 
HETATM   14  C12 UNL     1      11.069  -2.087  29.332  1.00  0.00     0.102 A 
HETATM   15  C13 UNL     1       9.792  -1.597  29.445  1.00  0.00     0.155 A 
HETATM   16  C14 UNL     1      11.921  -1.016  29.478  1.00  0.00     0.085 A 
HETATM   17  N9  UNL     1       9.936  -0.273  29.651  1.00  0.00    -0.257 N 
HETATM   18  N10 UNL     1      11.201   0.102  29.675  1.00  0.00    -0.164 N 
ATOM     19  H9  UNL     1       9.152   0.369  29.775  1.00  0.00     0.191 HD
HETATM   20  C15 UNL     1      13.408  -1.106  29.419  1.00  0.00     0.075 C 
BRANCH  18  21
HETATM   21  O5  UNL     1      11.735   1.354  29.859  1.00  0.00    -0.268 OA
ATOM     22  H5  UNL     1      11.916   2.032  29.219  1.00  0.00     0.247 HD
ENDBRANCH  18  21
ENDBRANCH   8   9
BRANCH   1  23
HETATM   23  C2  UNL     1       7.436  -1.423  27.120  1.00  0.00     0.278 C 
BRANCH  23  24
HETATM   24  N1  UNL     1       7.756  -0.110  26.608  1.00  0.00    -0.064 NA
BRANCH  24  25
HETATM   25  O1  UNL     1       7.814   0.828  27.549  1.00  0.00    -0.289 OA
HETATM   26  C1  UNL     1       8.623   1.896  27.231  1.00  0.00     0.231 C 
ENDBRANCH  24  25
ENDBRANCH  23  24
BRANCH  23  27
HETATM   27  O2  UNL     1       6.651  -2.118  26.158  1.00  0.00    -0.373 OA
ATOM     28  H2  UNL     1       7.226  -2.485  25.496  1.00  0.00     0.212 HD
ENDBRANCH  23  27
ENDBRANCH   1  23
BRANCH   7  29
HETATM   29  N6  UNL     1       7.540  -2.396  31.779  1.00  0.00    -0.334 N 
ATOM     30  H62 UNL     1       8.247  -1.812  32.226  1.00  0.00     0.177 HD
ATOM     31  H61 UNL     1       7.366  -3.341  32.121  1.00  0.00     0.177 HD
ENDBRANCH   7  29
BRANCH   2  32
HETATM   32  N2  UNL     1       4.774  -0.410  27.347  1.00  0.00    -0.340 N 
ATOM     33  H2  UNL     1       4.440  -1.155  26.735  1.00  0.00     0.164 HD
BRANCH  32  34
HETATM   34  C5  UNL     1       4.492   0.921  26.886  1.00  0.00     0.424 C 
BRANCH  34  35
HETATM   35  N3  UNL     1       5.295   1.297  25.732  1.00  0.00    -0.035 N 
ATOM     36  H33 UNL     1       6.279   1.071  25.881  1.00  0.00     0.279 HD
ATOM     37  H32 UNL     1       5.105   0.686  24.938  1.00  0.00     0.279 HD
ATOM     38  H31 UNL     1       5.178   2.278  25.474  1.00  0.00     0.279 HD
ENDBRANCH  34  35
BRANCH  34  39
HETATM   39  O3  UNL     1       4.841   1.869  27.890  1.00  0.00    -0.355 OA
ATOM     40  H3  UNL     1       5.637   2.325  27.643  1.00  0.00     0.213 HD
ENDBRANCH  34  39
ENDBRANCH  32  34
ENDBRANCH   2  32
TORSDOF 11
ENDMDL
MODEL 4
REMARK VINA RESULT: -6.178610633      3.146      7.283
REMARK  11 active torsions:
REMARK  status: ('A' for Active; 'I' for Inactive)
REMARK    1  A    between atoms: O1_2  and  N1_3 
REMARK    2  A    between atoms: N1_3  and  C2_4 
REMARK    3  A    between atoms: C2_4  and  O2_5 
REMARK    4  A    between atoms: C2_4  and  C3_7 
REMARK    5  A    between atoms: C4_8  and  N2_9 
REMARK    6  A    between atoms: N2_9  and  C5_11 
REMARK    7  A    between atoms: C5_11  and  N3_12 
REMARK    8  A    between atoms: C5_11  and  O3_16 
REMARK    9  A    between atoms: N5_22  and  N6_23 
REMARK   10  A    between atoms: C8_26  and  N7_27 
REMARK   11  A    between atoms: N10_36  and  O5_37 
ROOT
HETATM    1  C3  UNL     1       5.377  -0.889  28.461  1.00  0.00     0.063 A 
HETATM    2  C4  UNL     1       6.625  -1.462  28.148  1.00  0.00     0.075 A 
HETATM    3  C6  UNL     1       6.709  -2.826  28.303  1.00  0.00     0.143 A 
HETATM    4  N4  UNL     1       7.909  -3.526  27.977  1.00  0.00    -0.094 NA
HETATM    5  C7  UNL     1       5.619  -3.582  28.748  1.00  0.00     0.294 A 
HETATM    6  O4  UNL     1       5.782  -4.808  28.861  1.00  0.00    -0.264 OA
HETATM    7  N5  UNL     1       4.461  -2.993  29.034  1.00  0.00    -0.208 N 
HETATM    8  C8  UNL     1       4.328  -1.663  28.896  1.00  0.00     0.146 A 
ENDROOT
BRANCH   8   9
HETATM    9  N7  UNL     1       3.076  -1.064  29.202  1.00  0.00    -0.312 N 
HETATM   10  C9  UNL     1       2.728  -0.609  30.516  1.00  0.00     0.152 C 
HETATM   11  C10 UNL     1       1.272  -0.625  30.764  1.00  0.00     0.143 C 
HETATM   12  N8  UNL     1       0.564   0.076  29.715  1.00  0.00    -0.379 N 
HETATM   13  C11 UNL     1      -0.426   1.099  29.924  1.00  0.00     0.150 C 
HETATM   14  C12 UNL     1       0.920  -0.337  28.377  1.00  0.00     0.102 A 
HETATM   15  C13 UNL     1       2.151  -0.893  28.136  1.00  0.00     0.155 A 
HETATM   16  C14 UNL     1       0.258  -0.298  27.171  1.00  0.00     0.085 A 
HETATM   17  N9  UNL     1       2.170  -1.160  26.815  1.00  0.00    -0.257 N 
HETATM   18  N10 UNL     1       1.048  -0.813  26.213  1.00  0.00    -0.164 N 
ATOM     19  H9  UNL     1       2.963  -1.583  26.334  1.00  0.00     0.191 HD
HETATM   20  C15 UNL     1      -1.120   0.239  26.980  1.00  0.00     0.075 C 
BRANCH  18  21
HETATM   21  O5  UNL     1       0.698  -0.928  24.889  1.00  0.00    -0.268 OA
ATOM     22  H5  UNL     1       0.020  -0.473  24.404  1.00  0.00     0.247 HD
ENDBRANCH  18  21
ENDBRANCH   8   9
BRANCH   1  23
HETATM   23  C2  UNL     1       5.112   0.524  28.260  1.00  0.00     0.278 C 
BRANCH  23  24
HETATM   24  N1  UNL     1       5.254   0.970  26.893  1.00  0.00    -0.064 NA
BRANCH  24  25
HETATM   25  O1  UNL     1       6.316   1.744  26.694  1.00  0.00    -0.289 OA
HETATM   26  C1  UNL     1       6.663   1.898  25.371  1.00  0.00     0.231 C 
ENDBRANCH  24  25
ENDBRANCH  23  24
BRANCH  23  27
HETATM   27  O2  UNL     1       5.997   1.272  29.086  1.00  0.00    -0.373 OA
ATOM     28  H2  UNL     1       6.444   1.920  28.554  1.00  0.00     0.212 HD
ENDBRANCH  23  27
ENDBRANCH   1  23
BRANCH   7  29
HETATM   29  N6  UNL     1       3.365  -3.733  29.481  1.00  0.00    -0.334 N 
ATOM     30  H62 UNL     1       3.528  -4.657  29.880  1.00  0.00     0.177 HD
ATOM     31  H61 UNL     1       2.417  -3.364  29.415  1.00  0.00     0.177 HD
ENDBRANCH   7  29
BRANCH   2  32
HETATM   32  N2  UNL     1       7.681  -0.623  27.765  1.00  0.00    -0.340 N 
ATOM     33  H2  UNL     1       7.677  -0.351  26.783  1.00  0.00     0.164 HD
BRANCH  32  34
HETATM   34  C5  UNL     1       8.769  -0.086  28.536  1.00  0.00     0.424 C 
BRANCH  34  35
HETATM   35  N3  UNL     1       8.596  -0.288  29.967  1.00  0.00    -0.035 N 
ATOM     36  H33 UNL     1       7.752   0.177  30.302  1.00  0.00     0.279 HD
ATOM     37  H32 UNL     1       8.344  -1.255  30.172  1.00  0.00     0.279 HD
ATOM     38  H31 UNL     1       9.413   0.000  30.506  1.00  0.00     0.279 HD
ENDBRANCH  34  35
BRANCH  34  39
HETATM   39  O3  UNL     1       8.826   1.328  28.377  1.00  0.00    -0.355 OA
ATOM     40  H3  UNL     1       9.718   1.598  28.193  1.00  0.00     0.213 HD
ENDBRANCH  34  39
ENDBRANCH  32  34
ENDBRANCH   2  32
TORSDOF 11
ENDMDL
MODEL 5
REMARK VINA RESULT: -6.158681684      2.574      3.491
REMARK  11 active torsions:
REMARK  status: ('A' for Active; 'I' for Inactive)
REMARK    1  A    between atoms: O1_2  and  N1_3 
REMARK    2  A    between atoms: N1_3  and  C2_4 
REMARK    3  A    between atoms: C2_4  and  O2_5 
REMARK    4  A    between atoms: C2_4  and  C3_7 
REMARK    5  A    between atoms: C4_8  and  N2_9 
REMARK    6  A    between atoms: N2_9  and  C5_11 
REMARK    7  A    between atoms: C5_11  and  N3_12 
REMARK    8  A    between atoms: C5_11  and  O3_16 
REMARK    9  A    between atoms: N5_22  and  N6_23 
REMARK   10  A    between atoms: C8_26  and  N7_27 
REMARK   11  A    between atoms: N10_36  and  O5_37 
ROOT
HETATM    1  C3  UNL     1       6.181  -0.894  28.810  1.00  0.00     0.063 A 
HETATM    2  C4  UNL     1       5.776  -0.021  27.782  1.00  0.00     0.075 A 
HETATM    3  C6  UNL     1       4.849   0.930  28.140  1.00  0.00     0.143 A 
HETATM    4  N4  UNL     1       4.393   1.898  27.197  1.00  0.00    -0.094 NA
HETATM    5  C7  UNL     1       4.347   1.009  29.444  1.00  0.00     0.294 A 
HETATM    6  O4  UNL     1       3.512   1.898  29.681  1.00  0.00    -0.264 OA
HETATM    7  N5  UNL     1       4.760   0.158  30.379  1.00  0.00    -0.208 N 
HETATM    8  C8  UNL     1       5.666  -0.787  30.079  1.00  0.00     0.146 A 
ENDROOT
BRANCH   8   9
HETATM    9  N7  UNL     1       6.093  -1.677  31.102  1.00  0.00    -0.312 N 
HETATM   10  C9  UNL     1       5.437  -2.920  31.379  1.00  0.00     0.152 C 
HETATM   11  C10 UNL     1       5.596  -3.355  32.782  1.00  0.00     0.143 C 
HETATM   12  N8  UNL     1       6.991  -3.351  33.167  1.00  0.00    -0.379 N 
HETATM   13  C11 UNL     1       7.678  -4.443  33.804  1.00  0.00     0.150 C 
HETATM   14  C12 UNL     1       7.688  -2.121  32.867  1.00  0.00     0.102 A 
HETATM   15  C13 UNL     1       7.241  -1.309  31.856  1.00  0.00     0.155 A 
HETATM   16  C14 UNL     1       8.801  -1.514  33.403  1.00  0.00     0.085 A 
HETATM   17  N9  UNL     1       8.094  -0.266  31.833  1.00  0.00    -0.257 N 
HETATM   18  N10 UNL     1       9.038  -0.364  32.749  1.00  0.00    -0.164 N 
ATOM     19  H9  UNL     1       8.019   0.513  31.178  1.00  0.00     0.191 HD
HETATM   20  C15 UNL     1       9.604  -2.066  34.532  1.00  0.00     0.075 C 
BRANCH  18  21
HETATM   21  O5  UNL     1      10.073   0.495  33.028  1.00  0.00    -0.268 OA
ATOM     22  H5  UNL     1      10.300   0.920  33.848  1.00  0.00     0.247 HD
ENDBRANCH  18  21
ENDBRANCH   8   9
BRANCH   1  23
HETATM   23  C2  UNL     1       7.218  -1.890  28.604  1.00  0.00     0.278 C 
BRANCH  23  24
HETATM   24  N1  UNL     1       8.502  -1.344  28.226  1.00  0.00    -0.064 NA
BRANCH  24  25
HETATM   25  O1  UNL     1       8.922  -0.370  29.028  1.00  0.00    -0.289 OA
HETATM   26  C1  UNL     1      10.291  -0.285  29.146  1.00  0.00     0.231 C 
ENDBRANCH  24  25
ENDBRANCH  23  24
BRANCH  23  27
HETATM   27  O2  UNL     1       6.784  -2.794  27.594  1.00  0.00    -0.373 OA
ATOM     28  H2  UNL     1       5.990  -3.226  27.886  1.00  0.00     0.212 HD
ENDBRANCH  23  27
ENDBRANCH   1  23
BRANCH   7  29
HETATM   29  N6  UNL     1       4.266   0.223  31.683  1.00  0.00    -0.334 N 
ATOM     30  H62 UNL     1       4.922   0.138  32.460  1.00  0.00     0.177 HD
ATOM     31  H61 UNL     1       3.271   0.354  31.865  1.00  0.00     0.177 HD
ENDBRANCH   7  29
BRANCH   2  32
HETATM   32  N2  UNL     1       6.286  -0.209  26.489  1.00  0.00    -0.340 N 
ATOM     33  H2  UNL     1       5.943  -1.042  26.011  1.00  0.00     0.164 HD
BRANCH  32  34
HETATM   34  C5  UNL     1       7.214   0.583  25.730  1.00  0.00     0.424 C 
BRANCH  34  35
HETATM   35  N3  UNL     1       8.161   1.298  26.573  1.00  0.00    -0.035 N 
ATOM     36  H33 UNL     1       7.676   1.898  27.240  1.00  0.00     0.279 HD
ATOM     37  H32 UNL     1       8.621   0.665  27.225  1.00  0.00     0.279 HD
ATOM     38  H31 UNL     1       8.845   1.828  26.032  1.00  0.00     0.279 HD
ENDBRANCH  34  35
BRANCH  34  39
HETATM   39  O3  UNL     1       6.518   1.606  25.025  1.00  0.00    -0.355 OA
ATOM     40  H3  UNL     1       7.093   2.009  24.386  1.00  0.00     0.213 HD
ENDBRANCH  34  39
ENDBRANCH  32  34
ENDBRANCH   2  32
TORSDOF 11
ENDMDL
