MODEL 1
REMARK VINA RESULT: -6.326672475      0.000      0.000
REMARK  9 active torsions:
REMARK  status: ('A' for Active; 'I' for Inactive)
REMARK    1  A    between atoms: C1_4  and  C2_5 
REMARK    2  A    between atoms: C1_4  and  N4_11 
REMARK    3  A    between atoms: C4_15  and  C5_16 
REMARK    4  A    between atoms: C6_19  and  S1_20 
REMARK    5  A    between atoms: S1_20  and  S2_21 
REMARK    6  A    between atoms: S2_21  and  C7_22 
REMARK    7  A    between atoms: C9_30  and  C10_31 
REMARK    8  A    between atoms: C10_31  and  O5_32 
REMARK    9  A    between atoms: C11_34  and  O6_35 
ROOT
HETATM    1  N4  UNL     1       1.546  -0.799  30.718  1.00  0.00    -0.217 N 
HETATM    2  N5  UNL     1       0.643  -1.802  31.169  1.00  0.00    -0.113 NA
HETATM    3  C3  UNL     1       1.221  -2.200  32.469  1.00  0.00     0.265 C 
HETATM    4  N6  UNL     1       2.618  -1.965  32.211  1.00  0.00    -0.304 N 
HETATM    5  C4  UNL     1       4.023  -1.871  32.002  1.00  0.00     0.133 C 
HETATM    6  C6  UNL     1       3.980  -0.704  31.426  1.00  0.00     0.102 C 
HETATM    7  C11 UNL     1       2.553  -0.577  31.700  1.00  0.00     0.276 C 
ENDROOT
BRANCH   6   8
HETATM    8  S1  UNL     1       5.106   0.448  30.711  1.00  0.00    -0.046 SA
BRANCH   8   9
HETATM    9  S2  UNL     1       6.642  -0.529  29.684  1.00  0.00    -0.035 SA
BRANCH   9  10
HETATM   10  C7  UNL     1       6.523  -0.175  27.948  1.00  0.00     0.105 C 
HETATM   11  N7  UNL     1       5.591   0.645  27.632  1.00  0.00    -0.283 N 
HETATM   12  N8  UNL     1       5.235   1.125  26.384  1.00  0.00    -0.244 N 
ATOM     13  H7  UNL     1       5.033   0.994  28.411  1.00  0.00     0.188 HD
HETATM   14  N9  UNL     1       6.068   1.365  25.307  1.00  0.00    -0.100 NA
ATOM     15  H8  UNL     1       4.245   1.324  26.243  1.00  0.00     0.203 HD
HETATM   16  C8  UNL     1       7.451   1.033  25.686  1.00  0.00     0.305 C 
HETATM   17  O4  UNL     1       7.540  -0.328  25.785  1.00  0.00    -0.360 OA
HETATM   18  C9  UNL     1       7.493  -0.848  27.068  1.00  0.00     0.205 C 
BRANCH  18  19
HETATM   19  C10 UNL     1       7.128  -2.329  26.880  1.00  0.00     0.203 C 
BRANCH  19  20
HETATM   20  O5  UNL     1       5.749  -2.368  26.679  1.00  0.00    -0.398 OA
ATOM     21  H5  UNL     1       5.486  -3.270  26.820  1.00  0.00     0.209 HD
ENDBRANCH  19  20
ENDBRANCH  18  19
ENDBRANCH   9  10
ENDBRANCH   8   9
ENDBRANCH   6   8
BRANCH   5  22
HETATM   22  C5  UNL     1       5.057  -2.856  32.387  1.00  0.00     0.228 C 
HETATM   23  O2  UNL     1       5.379  -3.112  33.560  1.00  0.00    -0.643 OA
HETATM   24  O3  UNL     1       5.766  -3.588  31.407  1.00  0.00    -0.643 OA
ENDBRANCH   5  22
BRANCH   7  25
HETATM   25  O6  UNL     1       2.216   0.337  32.701  1.00  0.00    -0.348 OA
ATOM     26  H6  UNL     1       2.650   1.180  32.641  1.00  0.00     0.215 HD
ENDBRANCH   7  25
BRANCH   1  27
HETATM   27  C1  UNL     1       1.434  -0.142  29.479  1.00  0.00     0.166 C 
HETATM   28  N1  UNL     1       0.682   0.891  29.356  1.00  0.00    -0.381 N 
ATOM     29  H12 UNL     1       0.600   1.367  28.458  1.00  0.00     0.157 HD
ATOM     30  H11 UNL     1       0.170   1.221  30.175  1.00  0.00     0.157 HD
BRANCH  27  31
HETATM   31  C2  UNL     1       2.161  -0.611  28.314  1.00  0.00     0.194 A 
HETATM   32  N2  UNL     1       2.238  -0.331  27.003  1.00  0.00    -0.220 N 
HETATM   33  O1  UNL     1       3.133  -1.248  26.799  1.00  0.00    -0.153 OA
ATOM     34  H2  UNL     1       1.771   0.345  26.399  1.00  0.00     0.198 HD
HETATM   35  N3  UNL     1       3.088  -1.544  28.042  1.00  0.00    -0.220 N 
ATOM     36  H3  UNL     1       3.575  -2.234  28.614  1.00  0.00     0.198 HD
ENDBRANCH  27  31
ENDBRANCH   1  27
TORSDOF 9
ENDMDL
MODEL 2
REMARK VINA RESULT: -6.198682225      4.857      7.246
REMARK  9 active torsions:
REMARK  status: ('A' for Active; 'I' for Inactive)
REMARK    1  A    between atoms: C1_4  and  C2_5 
REMARK    2  A    between atoms: C1_4  and  N4_11 
REMARK    3  A    between atoms: C4_15  and  C5_16 
REMARK    4  A    between atoms: C6_19  and  S1_20 
REMARK    5  A    between atoms: S1_20  and  S2_21 
REMARK    6  A    between atoms: S2_21  and  C7_22 
REMARK    7  A    between atoms: C9_30  and  C10_31 
REMARK    8  A    between atoms: C10_31  and  O5_32 
REMARK    9  A    between atoms: C11_34  and  O6_35 
ROOT
HETATM    1  N4  UNL     1      10.888  -0.502  31.800  1.00  0.00    -0.217 N 
HETATM    2  N5  UNL     1      12.086   0.206  32.097  1.00  0.00    -0.113 NA
HETATM    3  C3  UNL     1      12.689   0.398  30.762  1.00  0.00     0.265 C 
HETATM    4  N6  UNL     1      12.205  -0.779  30.090  1.00  0.00    -0.304 N 
HETATM    5  C4  UNL     1      11.867  -1.971  29.389  1.00  0.00     0.133 C 
HETATM    6  C6  UNL     1      10.616  -1.971  29.751  1.00  0.00     0.102 C 
HETATM    7  C11 UNL     1      10.760  -0.669  30.392  1.00  0.00     0.276 C 
ENDROOT
BRANCH   6   8
HETATM    8  S1  UNL     1       9.181  -2.966  29.511  1.00  0.00    -0.046 SA
BRANCH   8   9
HETATM    9  S2  UNL     1       8.369  -2.681  27.606  1.00  0.00    -0.035 SA
BRANCH   9  10
HETATM   10  C7  UNL     1       7.670  -1.053  27.489  1.00  0.00     0.105 C 
HETATM   11  N7  UNL     1       8.528  -0.108  27.389  1.00  0.00    -0.283 N 
HETATM   12  N8  UNL     1       8.319   1.256  27.282  1.00  0.00    -0.244 N 
ATOM     13  H7  UNL     1       9.505  -0.402  27.388  1.00  0.00     0.188 HD
HETATM   14  N9  UNL     1       7.263   1.897  26.662  1.00  0.00    -0.100 NA
ATOM     15  H8  UNL     1       9.025   1.855  27.708  1.00  0.00     0.203 HD
HETATM   16  C8  UNL     1       6.351   0.888  26.100  1.00  0.00     0.305 C 
HETATM   17  O4  UNL     1       5.710   0.279  27.143  1.00  0.00    -0.360 OA
HETATM   18  C9  UNL     1       6.201  -0.961  27.517  1.00  0.00     0.205 C 
BRANCH  18  19
HETATM   19  C10 UNL     1       5.663  -1.185  28.939  1.00  0.00     0.203 C 
BRANCH  19  20
HETATM   20  O5  UNL     1       6.472  -0.428  29.785  1.00  0.00    -0.398 OA
ATOM     21  H5  UNL     1       6.739  -1.010  30.488  1.00  0.00     0.209 HD
ENDBRANCH  19  20
ENDBRANCH  18  19
ENDBRANCH   9  10
ENDBRANCH   8   9
ENDBRANCH   6   8
BRANCH   5  22
HETATM   22  C5  UNL     1      12.757  -2.807  28.555  1.00  0.00     0.228 C 
HETATM   23  O2  UNL     1      12.370  -3.745  27.838  1.00  0.00    -0.643 OA
HETATM   24  O3  UNL     1      14.153  -2.578  28.525  1.00  0.00    -0.643 OA
ENDBRANCH   5  22
BRANCH   7  25
HETATM   25  O6  UNL     1      10.162   0.398  29.718  1.00  0.00    -0.348 OA
ATOM     26  H6  UNL     1      10.442   0.516  28.818  1.00  0.00     0.215 HD
ENDBRANCH   7  25
BRANCH   1  27
HETATM   27  C1  UNL     1       9.983  -0.956  32.777  1.00  0.00     0.166 C 
HETATM   28  N1  UNL     1      10.403  -1.601  33.804  1.00  0.00    -0.381 N 
ATOM     29  H12 UNL     1       9.747  -1.930  34.512  1.00  0.00     0.157 HD
ATOM     30  H11 UNL     1      11.404  -1.776  33.893  1.00  0.00     0.157 HD
BRANCH  27  31
HETATM   31  C2  UNL     1       8.559  -0.708  32.651  1.00  0.00     0.194 A 
HETATM   32  N2  UNL     1       7.416  -1.414  32.645  1.00  0.00    -0.220 N 
HETATM   33  O1  UNL     1       6.690  -0.351  32.482  1.00  0.00    -0.153 OA
ATOM     34  H2  UNL     1       7.202  -2.407  32.735  1.00  0.00     0.198 HD
HETATM   35  N3  UNL     1       7.755   0.355  32.482  1.00  0.00    -0.220 N 
ATOM     36  H3  UNL     1       7.930   1.356  32.388  1.00  0.00     0.198 HD
ENDBRANCH  27  31
ENDBRANCH   1  27
TORSDOF 9
ENDMDL
MODEL 3
REMARK VINA RESULT: -6.083579412      4.395      6.245
REMARK  9 active torsions:
REMARK  status: ('A' for Active; 'I' for Inactive)
REMARK    1  A    between atoms: C1_4  and  C2_5 
REMARK    2  A    between atoms: C1_4  and  N4_11 
REMARK    3  A    between atoms: C4_15  and  C5_16 
REMARK    4  A    between atoms: C6_19  and  S1_20 
REMARK    5  A    between atoms: S1_20  and  S2_21 
REMARK    6  A    between atoms: S2_21  and  C7_22 
REMARK    7  A    between atoms: C9_30  and  C10_31 
REMARK    8  A    between atoms: C10_31  and  O5_32 
REMARK    9  A    between atoms: C11_34  and  O6_35 
ROOT
HETATM    1  N4  UNL     1      10.057  -1.845  32.632  1.00  0.00    -0.217 N 
HETATM    2  N5  UNL     1      10.654  -2.755  33.549  1.00  0.00    -0.113 NA
HETATM    3  C3  UNL     1       9.966  -4.025  33.239  1.00  0.00     0.265 C 
HETATM    4  N6  UNL     1       8.686  -3.526  32.807  1.00  0.00    -0.304 N 
HETATM    5  C4  UNL     1       7.361  -3.124  32.479  1.00  0.00     0.133 C 
HETATM    6  C6  UNL     1       7.723  -2.153  31.690  1.00  0.00     0.102 C 
HETATM    7  C11 UNL     1       9.127  -2.532  31.803  1.00  0.00     0.276 C 
ENDROOT
BRANCH   6   8
HETATM    8  S1  UNL     1       6.957  -0.916  30.696  1.00  0.00    -0.046 SA
BRANCH   8   9
HETATM    9  S2  UNL     1       8.191  -0.344  29.109  1.00  0.00    -0.035 SA
BRANCH   9  10
HETATM   10  C7  UNL     1       7.200   0.053  27.690  1.00  0.00     0.105 C 
HETATM   11  N7  UNL     1       6.041   0.524  27.963  1.00  0.00    -0.283 N 
HETATM   12  N8  UNL     1       5.037   0.929  27.101  1.00  0.00    -0.244 N 
ATOM     13  H7  UNL     1       5.828   0.614  28.957  1.00  0.00     0.188 HD
HETATM   14  N9  UNL     1       5.182   1.503  25.852  1.00  0.00    -0.100 NA
ATOM     15  H8  UNL     1       4.080   0.786  27.425  1.00  0.00     0.203 HD
HETATM   16  C8  UNL     1       6.617   1.640  25.550  1.00  0.00     0.305 C 
HETATM   17  O4  UNL     1       7.115   0.388  25.321  1.00  0.00    -0.360 OA
HETATM   18  C9  UNL     1       7.805  -0.195  26.371  1.00  0.00     0.205 C 
BRANCH  18  19
HETATM   19  C10 UNL     1       7.821  -1.697  26.048  1.00  0.00     0.203 C 
BRANCH  19  20
HETATM   20  O5  UNL     1       6.497  -2.125  26.119  1.00  0.00    -0.398 OA
ATOM     21  H5  UNL     1       6.379  -2.479  26.994  1.00  0.00     0.209 HD
ENDBRANCH  19  20
ENDBRANCH  18  19
ENDBRANCH   9  10
ENDBRANCH   8   9
ENDBRANCH   6   8
BRANCH   5  22
HETATM   22  C5  UNL     1       6.096  -3.728  32.951  1.00  0.00     0.228 C 
HETATM   23  O2  UNL     1       5.172  -3.091  33.484  1.00  0.00    -0.643 OA
HETATM   24  O3  UNL     1       5.857  -5.115  32.818  1.00  0.00    -0.643 OA
ENDBRANCH   5  22
BRANCH   7  25
HETATM   25  O6  UNL     1       9.674  -3.138  30.669  1.00  0.00    -0.348 OA
ATOM     26  H6  UNL     1      10.108  -3.968  30.824  1.00  0.00     0.215 HD
ENDBRANCH   7  25
BRANCH   1  27
HETATM   27  C1  UNL     1      10.364  -0.472  32.578  1.00  0.00     0.166 C 
HETATM   28  N1  UNL     1       9.660   0.378  33.233  1.00  0.00    -0.381 N 
ATOM     29  H12 UNL     1       9.882   1.373  33.194  1.00  0.00     0.157 HD
ATOM     30  H11 UNL     1       8.877   0.036  33.790  1.00  0.00     0.157 HD
BRANCH  27  31
HETATM   31  C2  UNL     1      11.478   0.015  31.787  1.00  0.00     0.194 A 
HETATM   32  N2  UNL     1      11.864   0.024  30.500  1.00  0.00    -0.220 N 
HETATM   33  O1  UNL     1      12.957   0.667  30.770  1.00  0.00    -0.153 OA
ATOM     34  H2  UNL     1      11.453  -0.339  29.640  1.00  0.00     0.198 HD
HETATM   35  N3  UNL     1      12.625   0.680  32.004  1.00  0.00    -0.220 N 
ATOM     36  H3  UNL     1      13.067   1.056  32.843  1.00  0.00     0.198 HD
ENDBRANCH  27  31
ENDBRANCH   1  27
TORSDOF 9
ENDMDL
MODEL 4
REMARK VINA RESULT: -5.997613216      3.885      5.734
REMARK  9 active torsions:
REMARK  status: ('A' for Active; 'I' for Inactive)
REMARK    1  A    between atoms: C1_4  and  C2_5 
REMARK    2  A    between atoms: C1_4  and  N4_11 
REMARK    3  A    between atoms: C4_15  and  C5_16 
REMARK    4  A    between atoms: C6_19  and  S1_20 
REMARK    5  A    between atoms: S1_20  and  S2_21 
REMARK    6  A    between atoms: S2_21  and  C7_22 
REMARK    7  A    between atoms: C9_30  and  C10_31 
REMARK    8  A    between atoms: C10_31  and  O5_32 
REMARK    9  A    between atoms: C11_34  and  O6_35 
ROOT
HETATM    1  N4  UNL     1       8.138  -1.906  32.648  1.00  0.00    -0.217 N 
HETATM    2  N5  UNL     1       7.131  -2.204  33.608  1.00  0.00    -0.113 NA
HETATM    3  C3  UNL     1       6.520  -3.435  33.067  1.00  0.00     0.265 C 
HETATM    4  N6  UNL     1       6.713  -3.220  31.657  1.00  0.00    -0.304 N 
HETATM    5  C4  UNL     1       6.760  -3.032  30.247  1.00  0.00     0.133 C 
HETATM    6  C6  UNL     1       7.998  -2.630  30.221  1.00  0.00     0.102 C 
HETATM    7  C11 UNL     1       8.161  -2.913  31.642  1.00  0.00     0.276 C 
ENDROOT
BRANCH   6   8
HETATM    8  S1  UNL     1       9.178  -2.093  29.027  1.00  0.00    -0.046 SA
BRANCH   8   9
HETATM    9  S2  UNL     1       8.949  -0.061  28.595  1.00  0.00    -0.035 SA
BRANCH   9  10
HETATM   10  C7  UNL     1       7.518   0.177  27.572  1.00  0.00     0.105 C 
HETATM   11  N7  UNL     1       6.439   0.434  28.212  1.00  0.00    -0.283 N 
HETATM   12  N8  UNL     1       5.166   0.669  27.723  1.00  0.00    -0.244 N 
ATOM     13  H7  UNL     1       6.531   0.472  29.228  1.00  0.00     0.188 HD
HETATM   14  N9  UNL     1       4.824   1.279  26.530  1.00  0.00    -0.100 NA
ATOM     15  H8  UNL     1       4.392   0.357  28.310  1.00  0.00     0.203 HD
HETATM   16  C8  UNL     1       6.053   1.668  25.820  1.00  0.00     0.305 C 
HETATM   17  O4  UNL     1       6.652   0.526  25.367  1.00  0.00    -0.360 OA
HETATM   18  C9  UNL     1       7.717   0.058  26.118  1.00  0.00     0.205 C 
BRANCH  18  19
HETATM   19  C10 UNL     1       7.877  -1.413  25.704  1.00  0.00     0.203 C 
BRANCH  19  20
HETATM   20  O5  UNL     1       6.687  -2.048  26.058  1.00  0.00    -0.398 OA
ATOM     21  H5  UNL     1       5.988  -1.440  25.846  1.00  0.00     0.209 HD
ENDBRANCH  19  20
ENDBRANCH  18  19
ENDBRANCH   9  10
ENDBRANCH   8   9
ENDBRANCH   6   8
BRANCH   5  22
HETATM   22  C5  UNL     1       5.675  -3.275  29.271  1.00  0.00     0.228 C 
HETATM   23  O2  UNL     1       5.180  -2.400  28.541  1.00  0.00    -0.643 OA
HETATM   24  O3  UNL     1       5.118  -4.565  29.109  1.00  0.00    -0.643 OA
ENDBRANCH   5  22
BRANCH   7  25
HETATM   25  O6  UNL     1       8.939  -4.035  31.941  1.00  0.00    -0.348 OA
ATOM     26  H6  UNL     1       8.993  -4.685  31.251  1.00  0.00     0.215 HD
ENDBRANCH   7  25
BRANCH   1  27
HETATM   27  C1  UNL     1       8.972  -0.775  32.711  1.00  0.00     0.166 C 
HETATM   28  N1  UNL     1       8.469   0.396  32.867  1.00  0.00    -0.381 N 
ATOM     29  H12 UNL     1       9.074   1.216  32.913  1.00  0.00     0.157 HD
ATOM     30  H11 UNL     1       7.456   0.485  32.942  1.00  0.00     0.157 HD
BRANCH  27  31
HETATM   31  C2  UNL     1      10.413  -0.901  32.604  1.00  0.00     0.194 A 
HETATM   32  N2  UNL     1      11.480  -0.098  32.461  1.00  0.00    -0.220 N 
HETATM   33  O1  UNL     1      12.308  -1.096  32.465  1.00  0.00    -0.153 OA
ATOM     34  H2  UNL     1      11.595   0.913  32.380  1.00  0.00     0.198 HD
HETATM   35  N3  UNL     1      11.318  -1.893  32.601  1.00  0.00    -0.220 N 
ATOM     36  H3  UNL     1      11.243  -2.908  32.679  1.00  0.00     0.198 HD
ENDBRANCH  27  31
ENDBRANCH   1  27
TORSDOF 9
ENDMDL
MODEL 5
REMARK VINA RESULT: -5.960232889      3.421      6.404
REMARK  9 active torsions:
REMARK  status: ('A' for Active; 'I' for Inactive)
REMARK    1  A    between atoms: C1_4  and  C2_5 
REMARK    2  A    between atoms: C1_4  and  N4_11 
REMARK    3  A    between atoms: C4_15  and  C5_16 
REMARK    4  A    between atoms: C6_19  and  S1_20 
REMARK    5  A    between atoms: S1_20  and  S2_21 
REMARK    6  A    between atoms: S2_21  and  C7_22 
REMARK    7  A    between atoms: C9_30  and  C10_31 
REMARK    8  A    between atoms: C10_31  and  O5_32 
REMARK    9  A    between atoms: C11_34  and  O6_35 
ROOT
HETATM    1  N4  UNL     1       6.405   0.717  26.373  1.00  0.00    -0.217 N 
HETATM    2  N5  UNL     1       5.913   1.525  25.310  1.00  0.00    -0.113 NA
HETATM    3  C3  UNL     1       4.564   1.898  25.783  1.00  0.00     0.265 C 
HETATM    4  N6  UNL     1       4.237   0.737  26.569  1.00  0.00    -0.304 N 
HETATM    5  C4  UNL     1       3.790  -0.419  27.268  1.00  0.00     0.133 C 
HETATM    6  C6  UNL     1       4.894  -0.590  27.937  1.00  0.00     0.102 C 
HETATM    7  C11 UNL     1       5.444   0.659  27.422  1.00  0.00     0.276 C 
ENDROOT
BRANCH   6   8
HETATM    8  S1  UNL     1       5.546  -1.713  29.127  1.00  0.00    -0.046 SA
BRANCH   8   9
HETATM    9  S2  UNL     1       5.728  -0.811  31.004  1.00  0.00    -0.035 SA
BRANCH   9  10
HETATM   10  C7  UNL     1       7.349  -1.115  31.662  1.00  0.00     0.105 C 
HETATM   11  N7  UNL     1       8.129  -0.100  31.654  1.00  0.00    -0.283 N 
HETATM   12  N8  UNL     1       9.439   0.000  32.089  1.00  0.00    -0.244 N 
ATOM     13  H7  UNL     1       7.728   0.758  31.273  1.00  0.00     0.188 HD
HETATM   14  N9  UNL     1      10.030  -0.681  33.137  1.00  0.00    -0.100 NA
ATOM     15  H8  UNL     1      10.036   0.651  31.579  1.00  0.00     0.203 HD
HETATM   16  C8  UNL     1       9.031  -1.564  33.761  1.00  0.00     0.305 C 
HETATM   17  O4  UNL     1       8.781  -2.589  32.891  1.00  0.00    -0.360 OA
HETATM   18  C9  UNL     1       7.622  -2.480  32.140  1.00  0.00     0.205 C 
BRANCH  18  19
HETATM   19  C10 UNL     1       7.823  -3.447  30.962  1.00  0.00     0.203 C 
BRANCH  19  20
HETATM   20  O5  UNL     1       8.894  -2.943  30.225  1.00  0.00    -0.398 OA
ATOM     21  H5  UNL     1       8.664  -3.060  29.310  1.00  0.00     0.209 HD
ENDBRANCH  19  20
ENDBRANCH  18  19
ENDBRANCH   9  10
ENDBRANCH   8   9
ENDBRANCH   6   8
BRANCH   5  22
HETATM   22  C5  UNL     1       2.468  -1.076  27.167  1.00  0.00     0.228 C 
HETATM   23  O2  UNL     1       1.778  -1.107  26.134  1.00  0.00    -0.643 OA
HETATM   24  O3  UNL     1       1.891  -1.728  28.282  1.00  0.00    -0.643 OA
ENDBRANCH   5  22
BRANCH   7  25
HETATM   25  O6  UNL     1       5.505   1.708  28.343  1.00  0.00    -0.348 OA
ATOM     26  H6  UNL     1       4.765   1.770  28.935  1.00  0.00     0.215 HD
ENDBRANCH   7  25
BRANCH   1  27
HETATM   27  C1  UNL     1       7.660   0.081  26.359  1.00  0.00     0.166 C 
HETATM   28  N1  UNL     1       8.087  -0.492  25.293  1.00  0.00    -0.381 N 
ATOM     29  H12 UNL     1       8.998  -0.952  25.284  1.00  0.00     0.157 HD
ATOM     30  H11 UNL     1       7.497  -0.477  24.462  1.00  0.00     0.157 HD
BRANCH  27  31
HETATM   31  C2  UNL     1       8.501   0.059  27.542  1.00  0.00     0.194 A 
HETATM   32  N2  UNL     1       9.110   0.939  28.353  1.00  0.00    -0.220 N 
HETATM   33  O1  UNL     1       9.606  -0.000  29.098  1.00  0.00    -0.153 OA
ATOM     34  H2  UNL     1       9.162   1.957  28.375  1.00  0.00     0.198 HD
HETATM   35  N3  UNL     1       9.042  -0.869  28.348  1.00  0.00    -0.220 N 
ATOM     36  H3  UNL     1       9.013  -1.888  28.359  1.00  0.00     0.198 HD
ENDBRANCH  27  31
ENDBRANCH   1  27
TORSDOF 9
ENDMDL
