MODEL 1
REMARK VINA RESULT: -7.824964703      0.000      0.000
REMARK  2 active torsions:
REMARK  status: ('A' for Active; 'I' for Inactive)
REMARK    1  A    between atoms: N1_2  and  C2_4 
REMARK    2  A    between atoms: C5_7  and  C6_8 
ROOT
HETATM    1  C2  UNL     1     -16.885  -5.596 -25.976  1.00  0.00     0.076 C 
HETATM    2  C3  UNL     1     -15.731  -4.695 -25.671  1.00  0.00     0.025 C 
HETATM    3  C4  UNL     1     -15.171  -4.002 -26.884  1.00  0.00     0.013 C 
HETATM    4  C5  UNL     1     -16.170  -3.305 -27.734  1.00  0.00    -0.024 C 
HETATM    5  C8  UNL     1     -15.440  -2.968 -29.051  1.00  0.00     0.011 C 
HETATM    6  C9  UNL     1     -16.352  -2.407 -30.077  1.00  0.00     0.001 C 
HETATM    7  C10 UNL     1     -17.672  -3.062 -30.241  1.00  0.00     0.000 C 
HETATM    8  C11 UNL     1     -18.240  -3.642 -28.968  1.00  0.00     0.005 C 
HETATM    9  C12 UNL     1     -17.211  -4.302 -28.116  1.00  0.00    -0.003 C 
HETATM   10  C13 UNL     1     -17.823  -5.086 -27.008  1.00  0.00     0.030 C 
ENDROOT
BRANCH   1  11
HETATM   11  N1  UNL     1     -16.485  -6.949 -26.300  1.00  0.00    -0.421 N 
HETATM   12  C1  UNL     1     -15.086  -7.153 -26.406  1.00  0.00     0.140 C 
ATOM     13  H1  UNL     1     -17.161  -7.700 -26.443  1.00  0.00     0.153 HD
ENDBRANCH   1  11
BRANCH   4  14
HETATM   14  C6  UNL     1     -16.680  -2.008 -27.221  1.00  0.00     0.063 C 
HETATM   15  C7  UNL     1     -15.565  -1.173 -26.660  1.00  0.00     0.023 C 
HETATM   16  S1  UNL     1     -18.088  -2.094 -26.122  1.00  0.00    -0.092 SA
ENDBRANCH   4  14
TORSDOF 2
ENDMDL
MODEL 2
REMARK VINA RESULT: -7.497547092      2.019      4.269
REMARK  2 active torsions:
REMARK  status: ('A' for Active; 'I' for Inactive)
REMARK    1  A    between atoms: N1_2  and  C2_4 
REMARK    2  A    between atoms: C5_7  and  C6_8 
ROOT
HETATM    1  C2  UNL     1     -15.792  -2.741 -29.765  1.00  0.00     0.076 C 
HETATM    2  C3  UNL     1     -17.140  -2.286 -29.303  1.00  0.00     0.025 C 
HETATM    3  C4  UNL     1     -17.881  -3.319 -28.496  1.00  0.00     0.013 C 
HETATM    4  C5  UNL     1     -17.115  -3.914 -27.372  1.00  0.00    -0.024 C 
HETATM    5  C8  UNL     1     -17.926  -5.145 -26.915  1.00  0.00     0.011 C 
HETATM    6  C9  UNL     1     -17.211  -5.949 -25.895  1.00  0.00     0.001 C 
HETATM    7  C10 UNL     1     -15.767  -6.198 -26.120  1.00  0.00     0.000 C 
HETATM    8  C11 UNL     1     -15.048  -5.079 -26.834  1.00  0.00     0.005 C 
HETATM    9  C12 UNL     1     -15.852  -4.474 -27.933  1.00  0.00    -0.003 C 
HETATM   10  C13 UNL     1     -15.038  -3.563 -28.785  1.00  0.00     0.030 C 
ENDROOT
BRANCH   1  11
HETATM   11  N1  UNL     1     -15.822  -3.411 -31.047  1.00  0.00    -0.421 N 
HETATM   12  C1  UNL     1     -16.057  -2.567 -32.162  1.00  0.00     0.140 C 
ATOM     13  H1  UNL     1     -15.685  -4.418 -31.143  1.00  0.00     0.153 HD
ENDBRANCH   1  11
BRANCH   4  14
HETATM   14  C6  UNL     1     -16.961  -3.069 -26.160  1.00  0.00     0.063 C 
HETATM   15  C7  UNL     1     -18.151  -2.173 -25.972  1.00  0.00     0.023 C 
HETATM   16  S1  UNL     1     -15.412  -2.189 -26.005  1.00  0.00    -0.092 SA
ENDBRANCH   4  14
TORSDOF 2
ENDMDL
MODEL 3
REMARK VINA RESULT: -7.222385146      1.038      1.146
REMARK  2 active torsions:
REMARK  status: ('A' for Active; 'I' for Inactive)
REMARK    1  A    between atoms: N1_2  and  C2_4 
REMARK    2  A    between atoms: C5_7  and  C6_8 
ROOT
HETATM    1  C2  UNL     1     -16.428  -5.378 -26.167  1.00  0.00     0.076 C 
HETATM    2  C3  UNL     1     -15.075  -4.841 -26.507  1.00  0.00     0.025 C 
HETATM    3  C4  UNL     1     -14.918  -4.477 -27.959  1.00  0.00     0.013 C 
HETATM    4  C5  UNL     1     -15.983  -3.601 -28.512  1.00  0.00    -0.024 C 
HETATM    5  C8  UNL     1     -15.804  -3.636 -30.044  1.00  0.00     0.011 C 
HETATM    6  C9  UNL     1     -16.896  -2.934 -30.759  1.00  0.00     0.001 C 
HETATM    7  C10 UNL     1     -18.280  -3.172 -30.284  1.00  0.00     0.000 C 
HETATM    8  C11 UNL     1     -18.392  -3.421 -28.799  1.00  0.00     0.005 C 
HETATM    9  C12 UNL     1     -17.292  -4.271 -28.263  1.00  0.00    -0.003 C 
HETATM   10  C13 UNL     1     -17.559  -4.716 -26.867  1.00  0.00     0.030 C 
ENDROOT
BRANCH   1  11
HETATM   11  N1  UNL     1     -16.530  -6.814 -26.318  1.00  0.00    -0.421 N 
HETATM   12  C1  UNL     1     -15.306  -7.479 -26.580  1.00  0.00     0.140 C 
ATOM     13  H1  UNL     1     -17.418  -7.311 -26.241  1.00  0.00     0.153 HD
ENDBRANCH   1  11
BRANCH   4  14
HETATM   14  C6  UNL     1     -15.914  -2.165 -28.138  1.00  0.00     0.063 C 
HETATM   15  C7  UNL     1     -14.859  -1.450 -28.933  1.00  0.00     0.023 C 
HETATM   16  S1  UNL     1     -15.808  -1.811 -26.389  1.00  0.00    -0.092 SA
ENDBRANCH   4  14
TORSDOF 2
ENDMDL
MODEL 4
REMARK VINA RESULT: -7.055854818      2.529      4.228
REMARK  2 active torsions:
REMARK  status: ('A' for Active; 'I' for Inactive)
REMARK    1  A    between atoms: N1_2  and  C2_4 
REMARK    2  A    between atoms: C5_7  and  C6_8 
ROOT
HETATM    1  C2  UNL     1     -17.082  -3.351 -30.613  1.00  0.00     0.076 C 
HETATM    2  C3  UNL     1     -15.612  -3.251 -30.358  1.00  0.00     0.025 C 
HETATM    3  C4  UNL     1     -15.260  -2.359 -29.197  1.00  0.00     0.013 C 
HETATM    4  C5  UNL     1     -15.994  -2.640 -27.937  1.00  0.00    -0.024 C 
HETATM    5  C8  UNL     1     -15.729  -1.430 -27.017  1.00  0.00     0.011 C 
HETATM    6  C9  UNL     1     -16.526  -1.482 -25.768  1.00  0.00     0.001 C 
HETATM    7  C10 UNL     1     -17.950  -1.878 -25.889  1.00  0.00     0.000 C 
HETATM    8  C11 UNL     1     -18.228  -2.863 -26.999  1.00  0.00     0.005 C 
HETATM    9  C12 UNL     1     -17.452  -2.580 -28.240  1.00  0.00    -0.003 C 
HETATM   10  C13 UNL     1     -17.929  -3.393 -29.393  1.00  0.00     0.030 C 
ENDROOT
BRANCH   1  11
HETATM   11  N1  UNL     1     -17.576  -2.336 -31.519  1.00  0.00    -0.421 N 
HETATM   12  C1  UNL     1     -16.633  -1.866 -32.467  1.00  0.00     0.140 C 
ATOM     13  H1  UNL     1     -18.534  -1.985 -31.479  1.00  0.00     0.153 HD
ENDBRANCH   1  11
BRANCH   4  14
HETATM   14  C6  UNL     1     -15.546  -3.828 -27.166  1.00  0.00     0.063 C 
HETATM   15  C7  UNL     1     -14.138  -4.208 -27.528  1.00  0.00     0.023 C 
HETATM   16  S1  UNL     1     -16.653  -5.232 -27.169  1.00  0.00    -0.092 SA
ENDBRANCH   4  14
TORSDOF 2
ENDMDL
MODEL 5
REMARK VINA RESULT: -6.987583728      1.966      3.921
REMARK  2 active torsions:
REMARK  status: ('A' for Active; 'I' for Inactive)
REMARK    1  A    between atoms: N1_2  and  C2_4 
REMARK    2  A    between atoms: C5_7  and  C6_8 
ROOT
HETATM    1  C2  UNL     1     -15.052  -3.318 -29.413  1.00  0.00     0.076 C 
HETATM    2  C3  UNL     1     -16.404  -2.680 -29.370  1.00  0.00     0.025 C 
HETATM    3  C4  UNL     1     -17.442  -3.516 -28.671  1.00  0.00     0.013 C 
HETATM    4  C5  UNL     1     -17.054  -4.018 -27.328  1.00  0.00    -0.024 C 
HETATM    5  C8  UNL     1     -18.100  -5.091 -26.961  1.00  0.00     0.011 C 
HETATM    6  C9  UNL     1     -17.762  -5.808 -25.708  1.00  0.00     0.001 C 
HETATM    7  C10 UNL     1     -16.349  -6.218 -25.522  1.00  0.00     0.000 C 
HETATM    8  C11 UNL     1     -15.343  -5.282 -26.147  1.00  0.00     0.005 C 
HETATM    9  C12 UNL     1     -15.773  -4.765 -27.478  1.00  0.00    -0.003 C 
HETATM   10  C13 UNL     1     -14.668  -4.061 -28.186  1.00  0.00     0.030 C 
ENDROOT
BRANCH   1  11
HETATM   11  N1  UNL     1     -14.851  -4.155 -30.577  1.00  0.00    -0.421 N 
HETATM   12  C1  UNL     1     -14.147  -5.361 -30.335  1.00  0.00     0.140 C 
ATOM     13  H1  UNL     1     -15.192  -3.896 -31.504  1.00  0.00     0.153 HD
ENDBRANCH   1  11
BRANCH   4  14
HETATM   14  C6  UNL     1     -17.097  -3.029 -26.219  1.00  0.00     0.063 C 
HETATM   15  C7  UNL     1     -18.306  -2.146 -26.329  1.00  0.00     0.023 C 
HETATM   16  S1  UNL     1     -15.596  -2.099 -25.935  1.00  0.00    -0.092 SA
ENDBRANCH   4  14
TORSDOF 2
ENDMDL
