MODEL 1
REMARK VINA RESULT: -8.731736915      0.000      0.000
REMARK  4 active torsions:
REMARK  status: ('A' for Active; 'I' for Inactive)
REMARK    1  A    between atoms: N1_1  and  C1_5 
REMARK    2  A    between atoms: C4_8  and  O1_9 
REMARK    3  A    between atoms: C4_8  and  C5_11 
REMARK    4  A    between atoms: C5_11  and  C6_12 
ROOT
HETATM    1  C1  UNL     1     -16.997  -6.032 -25.675  1.00  0.00     0.186 C 
HETATM    2  C2  UNL     1     -15.643  -5.427 -25.888  1.00  0.00     0.036 C 
HETATM    3  C3  UNL     1     -15.842  -4.117 -26.634  1.00  0.00     0.040 C 
HETATM    4  C4  UNL     1     -17.291  -3.860 -26.703  1.00  0.00     0.060 C 
HETATM    5  C14 UNL     1     -17.873  -5.292 -26.618  1.00  0.00     0.070 C 
ENDROOT
BRANCH   4   6
HETATM    6  O1  UNL     1     -17.726  -3.253 -25.507  1.00  0.00    -0.390 OA
ATOM      7  H1  UNL     1     -18.637  -2.997 -25.590  1.00  0.00     0.210 HD
ENDBRANCH   4   6
BRANCH   4   8
HETATM    8  C5  UNL     1     -17.886  -3.255 -27.897  1.00  0.00     0.042 C 
BRANCH   8   9
HETATM    9  C6  UNL     1     -17.265  -3.408 -29.243  1.00  0.00    -0.012 C 
HETATM   10  C7  UNL     1     -18.149  -2.906 -30.326  1.00  0.00     0.005 C 
HETATM   11  C8  UNL     1     -17.507  -2.855 -31.703  1.00  0.00     0.000 C 
HETATM   12  C9  UNL     1     -16.752  -1.583 -31.977  1.00  0.00     0.000 C 
HETATM   13  C10 UNL     1     -15.273  -1.907 -32.218  1.00  0.00     0.000 C 
HETATM   14  C11 UNL     1     -14.479  -1.965 -30.960  1.00  0.00     0.000 C 
HETATM   15  C12 UNL     1     -14.874  -3.128 -30.050  1.00  0.00     0.000 C 
HETATM   16  C13 UNL     1     -15.938  -2.628 -29.142  1.00  0.00     0.005 C 
ENDBRANCH   8   9
ENDBRANCH   4   8
BRANCH   1  17
HETATM   17  N1  UNL     1     -16.950  -7.438 -26.059  1.00  0.00    -0.075 N 
ATOM     18  H13 UNL     1     -16.361  -7.599 -26.876  1.00  0.00     0.274 HD
ATOM     19  H12 UNL     1     -16.427  -8.007 -25.393  1.00  0.00     0.274 HD
ATOM     20  H11 UNL     1     -17.903  -7.774 -26.194  1.00  0.00     0.274 HD
ENDBRANCH   1  17
TORSDOF 4
ENDMDL
MODEL 2
REMARK VINA RESULT: -8.086023280      0.669      1.775
REMARK  4 active torsions:
REMARK  status: ('A' for Active; 'I' for Inactive)
REMARK    1  A    between atoms: N1_1  and  C1_5 
REMARK    2  A    between atoms: C4_8  and  O1_9 
REMARK    3  A    between atoms: C4_8  and  C5_11 
REMARK    4  A    between atoms: C5_11  and  C6_12 
ROOT
HETATM    1  C1  UNL     1     -16.983  -6.363 -25.742  1.00  0.00     0.186 C 
HETATM    2  C2  UNL     1     -15.632  -5.764 -25.981  1.00  0.00     0.036 C 
HETATM    3  C3  UNL     1     -15.829  -4.523 -26.837  1.00  0.00     0.040 C 
HETATM    4  C4  UNL     1     -17.279  -4.289 -26.954  1.00  0.00     0.060 C 
HETATM    5  C14 UNL     1     -17.849  -5.714 -26.759  1.00  0.00     0.070 C 
ENDROOT
BRANCH   4   6
HETATM    6  O1  UNL     1     -17.743  -3.589 -25.821  1.00  0.00    -0.390 OA
ATOM      7  H1  UNL     1     -18.234  -4.176 -25.259  1.00  0.00     0.210 HD
ENDBRANCH   4   6
BRANCH   4   8
HETATM    8  C5  UNL     1     -17.857  -3.792 -28.204  1.00  0.00     0.042 C 
BRANCH   8   9
HETATM    9  C6  UNL     1     -17.187  -2.729 -29.006  1.00  0.00    -0.012 C 
HETATM   10  C7  UNL     1     -15.753  -2.579 -28.647  1.00  0.00     0.005 C 
HETATM   11  C8  UNL     1     -14.961  -1.649 -29.551  1.00  0.00     0.000 C 
HETATM   12  C9  UNL     1     -14.398  -2.321 -30.773  1.00  0.00     0.000 C 
HETATM   13  C10 UNL     1     -14.992  -1.678 -32.032  1.00  0.00     0.000 C 
HETATM   14  C11 UNL     1     -16.286  -2.291 -32.440  1.00  0.00     0.000 C 
HETATM   15  C12 UNL     1     -17.415  -2.040 -31.439  1.00  0.00     0.000 C 
HETATM   16  C13 UNL     1     -17.396  -3.166 -30.471  1.00  0.00     0.005 C 
ENDBRANCH   8   9
ENDBRANCH   4   8
BRANCH   1  17
HETATM   17  N1  UNL     1     -16.916  -7.796 -26.006  1.00  0.00    -0.075 N 
ATOM     18  H13 UNL     1     -16.784  -8.343 -25.156  1.00  0.00     0.274 HD
ATOM     19  H12 UNL     1     -17.818  -8.184 -26.285  1.00  0.00     0.274 HD
ATOM     20  H11 UNL     1     -16.187  -7.969 -26.698  1.00  0.00     0.274 HD
ENDBRANCH   1  17
TORSDOF 4
ENDMDL
MODEL 3
REMARK VINA RESULT: -7.917037128      1.163      1.192
REMARK  4 active torsions:
REMARK  status: ('A' for Active; 'I' for Inactive)
REMARK    1  A    between atoms: N1_1  and  C1_5 
REMARK    2  A    between atoms: C4_8  and  O1_9 
REMARK    3  A    between atoms: C4_8  and  C5_11 
REMARK    4  A    between atoms: C5_11  and  C6_12 
ROOT
HETATM    1  C1  UNL     1     -15.907  -6.755 -26.535  1.00  0.00     0.186 C 
HETATM    2  C2  UNL     1     -15.604  -5.987 -25.285  1.00  0.00     0.036 C 
HETATM    3  C3  UNL     1     -16.194  -4.596 -25.452  1.00  0.00     0.040 C 
HETATM    4  C4  UNL     1     -16.983  -4.593 -26.696  1.00  0.00     0.060 C 
HETATM    5  C14 UNL     1     -16.291  -5.708 -27.515  1.00  0.00     0.070 C 
ENDROOT
BRANCH   4   6
HETATM    6  O1  UNL     1     -18.269  -5.115 -26.446  1.00  0.00    -0.390 OA
ATOM      7  H1  UNL     1     -18.199  -6.015 -26.153  1.00  0.00     0.210 HD
ENDBRANCH   4   6
BRANCH   4   8
HETATM    8  C5  UNL     1     -17.008  -3.413 -27.563  1.00  0.00     0.042 C 
BRANCH   8   9
HETATM    9  C6  UNL     1     -16.767  -3.517 -29.031  1.00  0.00    -0.012 C 
HETATM   10  C7  UNL     1     -17.965  -3.137 -29.822  1.00  0.00     0.005 C 
HETATM   11  C8  UNL     1     -17.736  -3.037 -31.321  1.00  0.00     0.000 C 
HETATM   12  C9  UNL     1     -17.236  -1.692 -31.772  1.00  0.00     0.000 C 
HETATM   13  C10 UNL     1     -15.854  -1.850 -32.415  1.00  0.00     0.000 C 
HETATM   14  C11 UNL     1     -14.743  -1.795 -31.424  1.00  0.00     0.000 C 
HETATM   15  C12 UNL     1     -14.738  -2.980 -30.459  1.00  0.00     0.000 C 
HETATM   16  C13 UNL     1     -15.561  -2.590 -29.286  1.00  0.00     0.005 C 
ENDBRANCH   8   9
ENDBRANCH   4   8
BRANCH   1  17
HETATM   17  N1  UNL     1     -14.689  -7.418 -26.986  1.00  0.00    -0.075 N 
ATOM     18  H13 UNL     1     -13.846  -6.921 -26.698  1.00  0.00     0.274 HD
ATOM     19  H12 UNL     1     -14.514  -8.292 -26.490  1.00  0.00     0.274 HD
ATOM     20  H11 UNL     1     -14.739  -7.547 -27.996  1.00  0.00     0.274 HD
ENDBRANCH   1  17
TORSDOF 4
ENDMDL
MODEL 4
REMARK VINA RESULT: -7.870931338      1.219      2.075
REMARK  4 active torsions:
REMARK  status: ('A' for Active; 'I' for Inactive)
REMARK    1  A    between atoms: N1_1  and  C1_5 
REMARK    2  A    between atoms: C4_8  and  O1_9 
REMARK    3  A    between atoms: C4_8  and  C5_11 
REMARK    4  A    between atoms: C5_11  and  C6_12 
ROOT
HETATM    1  C1  UNL     1     -15.898  -6.911 -26.161  1.00  0.00     0.186 C 
HETATM    2  C2  UNL     1     -14.891  -6.659 -27.240  1.00  0.00     0.036 C 
HETATM    3  C3  UNL     1     -15.178  -5.284 -27.820  1.00  0.00     0.040 C 
HETATM    4  C4  UNL     1     -16.219  -4.658 -26.985  1.00  0.00     0.060 C 
HETATM    5  C14 UNL     1     -16.950  -5.893 -26.408  1.00  0.00     0.070 C 
ENDROOT
BRANCH   4   6
HETATM    6  O1  UNL     1     -15.627  -4.063 -25.851  1.00  0.00    -0.390 OA
ATOM      7  H1  UNL     1     -14.681  -4.124 -25.913  1.00  0.00     0.210 HD
ENDBRANCH   4   6
BRANCH   4   8
HETATM    8  C5  UNL     1     -17.257  -3.820 -27.588  1.00  0.00     0.042 C 
BRANCH   8   9
HETATM    9  C6  UNL     1     -16.926  -2.762 -28.585  1.00  0.00    -0.012 C 
HETATM   10  C7  UNL     1     -15.501  -2.350 -28.509  1.00  0.00     0.005 C 
HETATM   11  C8  UNL     1     -15.046  -1.415 -29.617  1.00  0.00     0.000 C 
HETATM   12  C9  UNL     1     -14.585  -2.124 -30.861  1.00  0.00     0.000 C 
HETATM   13  C10 UNL     1     -15.484  -1.729 -32.038  1.00  0.00     0.000 C 
HETATM   14  C11 UNL     1     -16.701  -2.580 -32.149  1.00  0.00     0.000 C 
HETATM   15  C12 UNL     1     -17.673  -2.397 -30.984  1.00  0.00     0.000 C 
HETATM   16  C13 UNL     1     -17.296  -3.389 -29.944  1.00  0.00     0.005 C 
ENDBRANCH   8   9
ENDBRANCH   4   8
BRANCH   1  17
HETATM   17  N1  UNL     1     -16.461  -8.244 -26.346  1.00  0.00    -0.075 N 
ATOM     18  H13 UNL     1     -17.479  -8.232 -26.407  1.00  0.00     0.274 HD
ATOM     19  H12 UNL     1     -16.269  -8.624 -27.273  1.00  0.00     0.274 HD
ATOM     20  H11 UNL     1     -16.123  -8.850 -25.599  1.00  0.00     0.274 HD
ENDBRANCH   1  17
TORSDOF 4
ENDMDL
MODEL 5
REMARK VINA RESULT: -7.643515535      1.167      2.324
REMARK  4 active torsions:
REMARK  status: ('A' for Active; 'I' for Inactive)
REMARK    1  A    between atoms: N1_1  and  C1_5 
REMARK    2  A    between atoms: C4_8  and  O1_9 
REMARK    3  A    between atoms: C4_8  and  C5_11 
REMARK    4  A    between atoms: C5_11  and  C6_12 
ROOT
HETATM    1  C1  UNL     1     -17.403  -5.541 -25.811  1.00  0.00     0.186 C 
HETATM    2  C2  UNL     1     -16.270  -6.477 -25.525  1.00  0.00     0.036 C 
HETATM    3  C3  UNL     1     -15.078  -6.015 -26.347  1.00  0.00     0.040 C 
HETATM    4  C4  UNL     1     -15.439  -4.728 -26.968  1.00  0.00     0.060 C 
HETATM    5  C14 UNL     1     -16.981  -4.833 -27.045  1.00  0.00     0.070 C 
ENDROOT
BRANCH   4   6
HETATM    6  O1  UNL     1     -15.223  -3.678 -26.052  1.00  0.00    -0.390 OA
ATOM      7  H1  UNL     1     -15.953  -3.625 -25.446  1.00  0.00     0.210 HD
ENDBRANCH   4   6
BRANCH   4   8
HETATM    8  C5  UNL     1     -14.989  -4.400 -28.323  1.00  0.00     0.042 C 
BRANCH   8   9
HETATM    9  C6  UNL     1     -15.506  -3.205 -29.050  1.00  0.00    -0.012 C 
HETATM   10  C7  UNL     1     -14.453  -2.554 -29.871  1.00  0.00     0.005 C 
HETATM   11  C8  UNL     1     -14.950  -1.446 -30.784  1.00  0.00     0.000 C 
HETATM   12  C9  UNL     1     -15.438  -1.931 -32.122  1.00  0.00     0.000 C 
HETATM   13  C10 UNL     1     -16.924  -1.587 -32.281  1.00  0.00     0.000 C 
HETATM   14  C11 UNL     1     -17.824  -2.626 -31.710  1.00  0.00     0.000 C 
HETATM   15  C12 UNL     1     -17.726  -2.740 -30.188  1.00  0.00     0.000 C 
HETATM   16  C13 UNL     1     -16.676  -3.748 -29.894  1.00  0.00     0.005 C 
ENDBRANCH   8   9
ENDBRANCH   4   8
BRANCH   1  17
HETATM   17  N1  UNL     1     -18.603  -6.323 -26.087  1.00  0.00    -0.075 N 
ATOM     18  H13 UNL     1     -18.648  -6.636 -27.057  1.00  0.00     0.274 HD
ATOM     19  H12 UNL     1     -18.580  -7.242 -25.643  1.00  0.00     0.274 HD
ATOM     20  H11 UNL     1     -19.421  -5.779 -25.815  1.00  0.00     0.274 HD
ENDBRANCH   1  17
TORSDOF 4
ENDMDL
