MODEL 1
REMARK VINA RESULT: -7.692253443      0.000      0.000
REMARK  3 active torsions:
REMARK  status: ('A' for Active; 'I' for Inactive)
REMARK    1  A    between atoms: C2_2  and  C3_3 
REMARK    2  A    between atoms: C3_3  and  C4_4 
REMARK    3  A    between atoms: C9_9  and  N1_10 
ROOT
HETATM    1  C4  UNL     1     -16.311  -3.203 -27.188  1.00  0.00    -0.033 C 
HETATM    2  C5  UNL     1     -17.257  -2.680 -26.147  1.00  0.00     0.011 C 
HETATM    3  C6  UNL     1     -18.364  -2.832 -27.162  1.00  0.00     0.006 C 
HETATM    4  C7  UNL     1     -17.517  -4.001 -27.696  1.00  0.00    -0.003 C 
HETATM    5  C8  UNL     1     -17.834  -5.240 -27.008  1.00  0.00     0.044 C 
HETATM    6  C9  UNL     1     -16.889  -5.836 -26.052  1.00  0.00     0.124 C 
HETATM    7  C10 UNL     1     -16.297  -7.104 -26.695  1.00  0.00     0.039 C 
HETATM    8  C11 UNL     1     -15.083  -6.674 -27.419  1.00  0.00     0.007 C 
HETATM    9  C12 UNL     1     -15.068  -5.266 -27.940  1.00  0.00    -0.014 C 
HETATM   10  C13 UNL     1     -13.659  -5.092 -28.528  1.00  0.00     0.010 C 
HETATM   11  C14 UNL     1     -15.293  -4.217 -26.836  1.00  0.00     0.000 C 
HETATM   12  C15 UNL     1     -15.727  -5.027 -25.628  1.00  0.00     0.044 C 
ENDROOT
BRANCH   6  13
HETATM   13  N1  UNL     1     -17.555  -6.312 -24.826  1.00  0.00    -0.070 N 
ATOM     14  H13 UNL     1     -17.510  -5.611 -24.086  1.00  0.00     0.275 HD
ATOM     15  H12 UNL     1     -18.567  -6.354 -24.949  1.00  0.00     0.275 HD
ATOM     16  H11 UNL     1     -17.188  -7.208 -24.505  1.00  0.00     0.275 HD
ENDBRANCH   6  13
BRANCH   1  17
HETATM   17  C3  UNL     1     -15.850  -2.197 -28.168  1.00  0.00     0.010 C 
BRANCH  17  18
HETATM   18  C2  UNL     1     -15.991  -2.416 -29.608  1.00  0.00    -0.004 C 
HETATM   19  C1  UNL     1     -14.758  -2.132 -30.422  1.00  0.00     0.005 C 
ENDBRANCH  17  18
ENDBRANCH   1  17
TORSDOF 3
ENDMDL
MODEL 2
REMARK VINA RESULT: -7.270534884      1.054      1.157
REMARK  3 active torsions:
REMARK  status: ('A' for Active; 'I' for Inactive)
REMARK    1  A    between atoms: C2_2  and  C3_3 
REMARK    2  A    between atoms: C3_3  and  C4_4 
REMARK    3  A    between atoms: C9_9  and  N1_10 
ROOT
HETATM    1  C4  UNL     1     -16.395  -3.259 -27.874  1.00  0.00    -0.033 C 
HETATM    2  C5  UNL     1     -16.961  -2.647 -26.626  1.00  0.00     0.011 C 
HETATM    3  C6  UNL     1     -18.314  -3.153 -27.063  1.00  0.00     0.006 C 
HETATM    4  C7  UNL     1     -17.516  -4.293 -27.719  1.00  0.00    -0.003 C 
HETATM    5  C8  UNL     1     -17.292  -5.384 -26.787  1.00  0.00     0.044 C 
HETATM    6  C9  UNL     1     -15.956  -5.637 -26.226  1.00  0.00     0.124 C 
HETATM    7  C10 UNL     1     -15.409  -6.929 -26.862  1.00  0.00     0.039 C 
HETATM    8  C11 UNL     1     -14.673  -6.515 -28.075  1.00  0.00     0.007 C 
HETATM    9  C12 UNL     1     -15.141  -5.263 -28.757  1.00  0.00    -0.014 C 
HETATM   10  C13 UNL     1     -14.126  -5.044 -29.890  1.00  0.00     0.010 C 
HETATM   11  C14 UNL     1     -15.138  -4.037 -27.825  1.00  0.00     0.000 C 
HETATM   12  C15 UNL     1     -14.909  -4.616 -26.441  1.00  0.00     0.044 C 
ENDROOT
BRANCH   6  13
HETATM   13  N1  UNL     1     -15.998  -5.917 -24.779  1.00  0.00    -0.070 N 
ATOM     14  H13 UNL     1     -16.417  -6.827 -24.592  1.00  0.00     0.275 HD
ATOM     15  H12 UNL     1     -15.062  -6.090 -24.411  1.00  0.00     0.275 HD
ATOM     16  H11 UNL     1     -16.468  -5.180 -24.254  1.00  0.00     0.275 HD
ENDBRANCH   6  13
BRANCH   1  17
HETATM   17  C3  UNL     1     -16.552  -2.438 -29.093  1.00  0.00     0.010 C 
BRANCH  17  18
HETATM   18  C2  UNL     1     -17.336  -2.912 -30.235  1.00  0.00    -0.004 C 
HETATM   19  C1  UNL     1     -16.888  -2.398 -31.576  1.00  0.00     0.005 C 
ENDBRANCH  17  18
ENDBRANCH   1  17
TORSDOF 3
ENDMDL
MODEL 3
REMARK VINA RESULT: -7.259767713      2.277      4.797
REMARK  3 active torsions:
REMARK  status: ('A' for Active; 'I' for Inactive)
REMARK    1  A    between atoms: C2_2  and  C3_3 
REMARK    2  A    between atoms: C3_3  and  C4_4 
REMARK    3  A    between atoms: C9_9  and  N1_10 
ROOT
HETATM    1  C4  UNL     1     -15.360  -4.082 -27.404  1.00  0.00    -0.033 C 
HETATM    2  C5  UNL     1     -13.864  -4.037 -27.514  1.00  0.00     0.011 C 
HETATM    3  C6  UNL     1     -13.922  -5.443 -28.058  1.00  0.00     0.006 C 
HETATM    4  C7  UNL     1     -15.291  -5.017 -28.616  1.00  0.00    -0.003 C 
HETATM    5  C8  UNL     1     -15.159  -4.404 -29.925  1.00  0.00     0.044 C 
HETATM    6  C9  UNL     1     -15.357  -2.957 -30.105  1.00  0.00     0.124 C 
HETATM    7  C10 UNL     1     -16.684  -2.747 -30.858  1.00  0.00     0.039 C 
HETATM    8  C11 UNL     1     -17.733  -2.625 -29.824  1.00  0.00     0.007 C 
HETATM    9  C12 UNL     1     -17.495  -3.347 -28.530  1.00  0.00    -0.014 C 
HETATM   10  C13 UNL     1     -18.682  -2.939 -27.642  1.00  0.00     0.010 C 
HETATM   11  C14 UNL     1     -16.180  -2.932 -27.846  1.00  0.00     0.000 C 
HETATM   12  C15 UNL     1     -15.450  -2.114 -28.895  1.00  0.00     0.044 C 
ENDROOT
BRANCH   6  13
HETATM   13  N1  UNL     1     -14.330  -2.353 -30.975  1.00  0.00    -0.070 N 
ATOM     14  H13 UNL     1     -13.572  -1.950 -30.424  1.00  0.00     0.275 HD
ATOM     15  H12 UNL     1     -13.805  -3.070 -31.476  1.00  0.00     0.275 HD
ATOM     16  H11 UNL     1     -14.721  -1.667 -31.619  1.00  0.00     0.275 HD
ENDBRANCH   6  13
BRANCH   1  17
HETATM   17  C3  UNL     1     -15.872  -4.763 -26.197  1.00  0.00     0.010 C 
BRANCH  17  18
HETATM   18  C2  UNL     1     -16.427  -6.116 -26.263  1.00  0.00    -0.004 C 
HETATM   19  C1  UNL     1     -17.921  -6.203 -26.101  1.00  0.00     0.005 C 
ENDBRANCH  17  18
ENDBRANCH   1  17
TORSDOF 3
ENDMDL
MODEL 4
REMARK VINA RESULT: -7.215124148      2.151      4.082
REMARK  3 active torsions:
REMARK  status: ('A' for Active; 'I' for Inactive)
REMARK    1  A    between atoms: C2_2  and  C3_3 
REMARK    2  A    between atoms: C3_3  and  C4_4 
REMARK    3  A    between atoms: C9_9  and  N1_10 
ROOT
HETATM    1  C4  UNL     1     -16.729  -3.604 -27.111  1.00  0.00    -0.033 C 
HETATM    2  C5  UNL     1     -17.884  -2.652 -27.220  1.00  0.00     0.011 C 
HETATM    3  C6  UNL     1     -17.037  -1.635 -26.494  1.00  0.00     0.006 C 
HETATM    4  C7  UNL     1     -15.855  -2.347 -27.176  1.00  0.00    -0.003 C 
HETATM    5  C8  UNL     1     -15.589  -1.787 -28.489  1.00  0.00     0.044 C 
HETATM    6  C9  UNL     1     -15.911  -2.539 -29.711  1.00  0.00     0.124 C 
HETATM    7  C10 UNL     1     -14.588  -2.996 -30.353  1.00  0.00     0.039 C 
HETATM    8  C11 UNL     1     -14.284  -4.323 -29.778  1.00  0.00     0.007 C 
HETATM    9  C12 UNL     1     -14.794  -4.594 -28.393  1.00  0.00    -0.014 C 
HETATM   10  C13 UNL     1     -14.424  -6.062 -28.131  1.00  0.00     0.010 C 
HETATM   11  C14 UNL     1     -16.319  -4.423 -28.273  1.00  0.00     0.000 C 
HETATM   12  C15 UNL     1     -16.729  -3.763 -29.577  1.00  0.00     0.044 C 
ENDROOT
BRANCH   6  13
HETATM   13  N1  UNL     1     -16.556  -1.698 -30.736  1.00  0.00    -0.070 N 
ATOM     14  H13 UNL     1     -16.900  -2.262 -31.513  1.00  0.00     0.275 HD
ATOM     15  H12 UNL     1     -17.445  -1.325 -30.400  1.00  0.00     0.275 HD
ATOM     16  H11 UNL     1     -15.947  -0.950 -31.066  1.00  0.00     0.275 HD
ENDBRANCH   6  13
BRANCH   1  17
HETATM   17  C3  UNL     1     -16.620  -4.298 -25.812  1.00  0.00     0.010 C 
BRANCH  17  18
HETATM   18  C2  UNL     1     -16.833  -5.742 -25.699  1.00  0.00    -0.004 C 
HETATM   19  C1  UNL     1     -18.207  -6.218 -26.086  1.00  0.00     0.005 C 
ENDBRANCH  17  18
ENDBRANCH   1  17
TORSDOF 3
ENDMDL
MODEL 5
REMARK VINA RESULT: -6.684122582      1.386      3.232
REMARK  3 active torsions:
REMARK  status: ('A' for Active; 'I' for Inactive)
REMARK    1  A    between atoms: C2_2  and  C3_3 
REMARK    2  A    between atoms: C3_3  and  C4_4 
REMARK    3  A    between atoms: C9_9  and  N1_10 
ROOT
HETATM    1  C4  UNL     1     -15.566  -2.963 -29.133  1.00  0.00    -0.033 C 
HETATM    2  C5  UNL     1     -15.982  -4.101 -30.019  1.00  0.00     0.011 C 
HETATM    3  C6  UNL     1     -14.565  -4.610 -29.929  1.00  0.00     0.006 C 
HETATM    4  C7  UNL     1     -14.574  -3.965 -28.532  1.00  0.00    -0.003 C 
HETATM    5  C8  UNL     1     -15.081  -4.886 -27.530  1.00  0.00     0.044 C 
HETATM    6  C9  UNL     1     -16.406  -4.689 -26.924  1.00  0.00     0.124 C 
HETATM    7  C10 UNL     1     -16.202  -4.236 -25.466  1.00  0.00     0.039 C 
HETATM    8  C11 UNL     1     -16.145  -2.759 -25.495  1.00  0.00     0.007 C 
HETATM    9  C12 UNL     1     -15.627  -2.125 -26.754  1.00  0.00    -0.014 C 
HETATM   10  C13 UNL     1     -15.796  -0.616 -26.518  1.00  0.00     0.010 C 
HETATM   11  C14 UNL     1     -16.424  -2.540 -28.004  1.00  0.00     0.000 C 
HETATM   12  C15 UNL     1     -17.304  -3.682 -27.530  1.00  0.00     0.044 C 
ENDROOT
BRANCH   6  13
HETATM   13  N1  UNL     1     -17.172  -5.945 -26.824  1.00  0.00    -0.070 N 
ATOM     14  H13 UNL     1     -16.873  -6.495 -26.018  1.00  0.00     0.275 HD
ATOM     15  H12 UNL     1     -18.138  -5.767 -26.550  1.00  0.00     0.275 HD
ATOM     16  H11 UNL     1     -17.129  -6.496 -27.681  1.00  0.00     0.275 HD
ENDBRANCH   6  13
BRANCH   1  17
HETATM   17  C3  UNL     1     -14.889  -1.851 -29.830  1.00  0.00     0.010 C 
BRANCH  17  18
HETATM   18  C2  UNL     1     -15.327  -1.401 -31.152  1.00  0.00    -0.004 C 
HETATM   19  C1  UNL     1     -14.367  -1.686 -32.275  1.00  0.00     0.005 C 
ENDBRANCH  17  18
ENDBRANCH   1  17
TORSDOF 3
ENDMDL
