MODEL 1
REMARK VINA RESULT: -7.821782561      0.000      0.000
REMARK  2 active torsions:
REMARK  status: ('A' for Active; 'I' for Inactive)
REMARK    1  A    between atoms: C2_2  and  N1_4 
REMARK    2  A    between atoms: N1_4  and  C4_7 
ROOT
HETATM    1  C4  UNL     1     -16.607  -3.553 -29.426  1.00  0.00     0.191 C 
HETATM    2  C5  UNL     1     -15.343  -4.229 -29.145  1.00  0.00     0.034 C 
HETATM    3  C6  UNL     1     -15.252  -5.143 -27.989  1.00  0.00     0.011 C 
HETATM    4  C7  UNL     1     -15.588  -4.573 -26.648  1.00  0.00    -0.043 C 
HETATM    5  C8  UNL     1     -14.382  -3.800 -26.125  1.00  0.00     0.015 C 
HETATM    6  C9  UNL     1     -15.661  -5.825 -25.749  1.00  0.00     0.015 C 
HETATM    7  C10 UNL     1     -16.868  -3.907 -26.499  1.00  0.00     0.002 C 
HETATM    8  C11 UNL     1     -17.884  -4.514 -27.473  1.00  0.00     0.013 C 
HETATM    9  C12 UNL     1     -17.582  -3.334 -28.358  1.00  0.00     0.025 C 
HETATM   10  C13 UNL     1     -17.143  -2.618 -27.133  1.00  0.00    -0.038 C 
HETATM   11  C14 UNL     1     -18.413  -2.005 -26.496  1.00  0.00     0.015 C 
HETATM   12  C15 UNL     1     -16.150  -1.546 -27.226  1.00  0.00     0.015 C 
ENDROOT
BRANCH   1  13
HETATM   13  N1  UNL     1     -16.306  -2.223 -29.989  1.00  0.00    -0.067 N 
ATOM     14  H12 UNL     1     -15.552  -1.749 -29.491  1.00  0.00     0.278 HD
ATOM     15  H11 UNL     1     -17.045  -1.544 -29.805  1.00  0.00     0.278 HD
BRANCH  13  16
HETATM   16  C2  UNL     1     -16.032  -2.372 -31.396  1.00  0.00     0.178 C 
HETATM   17  C1  UNL     1     -17.134  -1.921 -32.298  1.00  0.00     0.039 C 
HETATM   18  C3  UNL     1     -14.712  -1.684 -31.759  1.00  0.00     0.039 C 
ENDBRANCH  13  16
ENDBRANCH   1  13
TORSDOF 2
ENDMDL
MODEL 2
REMARK VINA RESULT: -7.507494196      1.277      2.918
REMARK  2 active torsions:
REMARK  status: ('A' for Active; 'I' for Inactive)
REMARK    1  A    between atoms: C2_2  and  N1_4 
REMARK    2  A    between atoms: N1_4  and  C4_7 
ROOT
HETATM    1  C4  UNL     1     -15.276  -3.291 -29.323  1.00  0.00     0.191 C 
HETATM    2  C5  UNL     1     -15.634  -1.925 -28.947  1.00  0.00     0.034 C 
HETATM    3  C6  UNL     1     -15.345  -1.453 -27.579  1.00  0.00     0.011 C 
HETATM    4  C7  UNL     1     -15.940  -2.236 -26.452  1.00  0.00    -0.043 C 
HETATM    5  C8  UNL     1     -17.399  -1.824 -26.282  1.00  0.00     0.015 C 
HETATM    6  C9  UNL     1     -15.229  -1.653 -25.212  1.00  0.00     0.015 C 
HETATM    7  C10 UNL     1     -15.687  -3.664 -26.415  1.00  0.00     0.002 C 
HETATM    8  C11 UNL     1     -14.339  -3.968 -27.079  1.00  0.00     0.013 C 
HETATM    9  C12 UNL     1     -15.142  -4.329 -28.301  1.00  0.00     0.025 C 
HETATM   10  C13 UNL     1     -16.287  -4.577 -27.388  1.00  0.00    -0.038 C 
HETATM   11  C14 UNL     1     -16.140  -6.029 -26.873  1.00  0.00     0.015 C 
HETATM   12  C15 UNL     1     -17.660  -4.433 -27.877  1.00  0.00     0.015 C 
ENDROOT
BRANCH   1  13
HETATM   13  N1  UNL     1     -16.280  -3.785 -30.284  1.00  0.00    -0.067 N 
ATOM     14  H12 UNL     1     -16.955  -4.418 -29.854  1.00  0.00     0.278 HD
ATOM     15  H11 UNL     1     -15.885  -4.439 -30.960  1.00  0.00     0.278 HD
BRANCH  13  16
HETATM   16  C2  UNL     1     -16.909  -2.652 -30.914  1.00  0.00     0.178 C 
HETATM   17  C1  UNL     1     -16.306  -2.249 -32.220  1.00  0.00     0.039 C 
HETATM   18  C3  UNL     1     -18.415  -2.889 -31.058  1.00  0.00     0.039 C 
ENDBRANCH  13  16
ENDBRANCH   1  13
TORSDOF 2
ENDMDL
MODEL 3
REMARK VINA RESULT: -7.402207544      0.567      1.031
REMARK  2 active torsions:
REMARK  status: ('A' for Active; 'I' for Inactive)
REMARK    1  A    between atoms: C2_2  and  N1_4 
REMARK    2  A    between atoms: N1_4  and  C4_7 
ROOT
HETATM    1  C4  UNL     1     -16.272  -3.199 -29.622  1.00  0.00     0.191 C 
HETATM    2  C5  UNL     1     -15.165  -4.095 -29.298  1.00  0.00     0.034 C 
HETATM    3  C6  UNL     1     -15.391  -5.215 -28.364  1.00  0.00     0.011 C 
HETATM    4  C7  UNL     1     -15.899  -4.868 -27.000  1.00  0.00    -0.043 C 
HETATM    5  C8  UNL     1     -14.729  -4.395 -26.144  1.00  0.00     0.015 C 
HETATM    6  C9  UNL     1     -16.276  -6.244 -26.411  1.00  0.00     0.015 C 
HETATM    7  C10 UNL     1     -17.101  -4.062 -26.914  1.00  0.00     0.002 C 
HETATM    8  C11 UNL     1     -17.985  -4.315 -28.141  1.00  0.00     0.013 C 
HETATM    9  C12 UNL     1     -17.395  -3.046 -28.696  1.00  0.00     0.025 C 
HETATM   10  C13 UNL     1     -17.109  -2.649 -27.294  1.00  0.00    -0.038 C 
HETATM   11  C14 UNL     1     -18.397  -1.988 -26.747  1.00  0.00     0.015 C 
HETATM   12  C15 UNL     1     -16.002  -1.737 -27.001  1.00  0.00     0.015 C 
ENDROOT
BRANCH   1  13
HETATM   13  N1  UNL     1     -15.726  -1.845 -29.835  1.00  0.00    -0.067 N 
ATOM     14  H12 UNL     1     -14.774  -1.748 -29.481  1.00  0.00     0.278 HD
ATOM     15  H11 UNL     1     -16.170  -1.147 -29.239  1.00  0.00     0.278 HD
BRANCH  13  16
HETATM   16  C2  UNL     1     -15.831  -1.524 -31.235  1.00  0.00     0.178 C 
HETATM   17  C1  UNL     1     -14.603  -1.812 -32.036  1.00  0.00     0.039 C 
HETATM   18  C3  UNL     1     -17.056  -2.207 -31.850  1.00  0.00     0.039 C 
ENDBRANCH  13  16
ENDBRANCH   1  13
TORSDOF 2
ENDMDL
MODEL 4
REMARK VINA RESULT: -7.372372185      1.587      4.599
REMARK  2 active torsions:
REMARK  status: ('A' for Active; 'I' for Inactive)
REMARK    1  A    between atoms: C2_2  and  N1_4 
REMARK    2  A    between atoms: N1_4  and  C4_7 
ROOT
HETATM    1  C4  UNL     1     -15.135  -4.683 -27.815  1.00  0.00     0.191 C 
HETATM    2  C5  UNL     1     -14.828  -4.718 -29.243  1.00  0.00     0.034 C 
HETATM    3  C6  UNL     1     -14.659  -3.450 -29.978  1.00  0.00     0.011 C 
HETATM    4  C7  UNL     1     -15.807  -2.491 -29.946  1.00  0.00    -0.043 C 
HETATM    5  C8  UNL     1     -16.851  -2.937 -30.964  1.00  0.00     0.015 C 
HETATM    6  C9  UNL     1     -15.201  -1.207 -30.553  1.00  0.00     0.015 C 
HETATM    7  C10 UNL     1     -16.327  -2.104 -28.648  1.00  0.00     0.002 C 
HETATM    8  C11 UNL     1     -15.208  -2.169 -27.602  1.00  0.00     0.013 C 
HETATM    9  C12 UNL     1     -15.781  -3.509 -27.226  1.00  0.00     0.025 C 
HETATM   10  C13 UNL     1     -17.067  -3.043 -27.805  1.00  0.00    -0.038 C 
HETATM   11  C14 UNL     1     -17.796  -2.253 -26.692  1.00  0.00     0.015 C 
HETATM   12  C15 UNL     1     -18.025  -4.012 -28.340  1.00  0.00     0.015 C 
ENDROOT
BRANCH   1  13
HETATM   13  N1  UNL     1     -16.002  -5.834 -27.499  1.00  0.00    -0.067 N 
ATOM     14  H12 UNL     1     -15.908  -6.592 -28.175  1.00  0.00     0.278 HD
ATOM     15  H11 UNL     1     -16.991  -5.632 -27.651  1.00  0.00     0.278 HD
BRANCH  13  16
HETATM   16  C2  UNL     1     -15.727  -6.258 -26.150  1.00  0.00     0.178 C 
HETATM   17  C1  UNL     1     -16.933  -6.387 -25.277  1.00  0.00     0.039 C 
HETATM   18  C3  UNL     1     -14.914  -7.556 -26.153  1.00  0.00     0.039 C 
ENDBRANCH  13  16
ENDBRANCH   1  13
TORSDOF 2
ENDMDL
MODEL 5
REMARK VINA RESULT: -7.237234648      1.680      4.539
REMARK  2 active torsions:
REMARK  status: ('A' for Active; 'I' for Inactive)
REMARK    1  A    between atoms: C2_2  and  N1_4 
REMARK    2  A    between atoms: N1_4  and  C4_7 
ROOT
HETATM    1  C4  UNL     1     -14.976  -4.273 -27.259  1.00  0.00     0.191 C 
HETATM    2  C5  UNL     1     -15.380  -4.940 -28.494  1.00  0.00     0.034 C 
HETATM    3  C6  UNL     1     -15.601  -4.136 -29.711  1.00  0.00     0.011 C 
HETATM    4  C7  UNL     1     -16.613  -3.038 -29.623  1.00  0.00    -0.043 C 
HETATM    5  C8  UNL     1     -18.007  -3.638 -29.772  1.00  0.00     0.015 C 
HETATM    6  C9  UNL     1     -16.389  -2.255 -30.935  1.00  0.00     0.015 C 
HETATM    7  C10 UNL     1     -16.463  -2.066 -28.556  1.00  0.00     0.002 C 
HETATM    8  C11 UNL     1     -14.981  -1.926 -28.188  1.00  0.00     0.013 C 
HETATM    9  C12 UNL     1     -15.286  -2.858 -27.046  1.00  0.00     0.025 C 
HETATM   10  C13 UNL     1     -16.700  -2.419 -27.156  1.00  0.00    -0.038 C 
HETATM   11  C14 UNL     1     -16.829  -1.120 -26.325  1.00  0.00     0.015 C 
HETATM   12  C15 UNL     1     -17.781  -3.309 -26.729  1.00  0.00     0.015 C 
ENDROOT
BRANCH   1  13
HETATM   13  N1  UNL     1     -15.571  -5.001 -26.122  1.00  0.00    -0.067 N 
ATOM     14  H12 UNL     1     -16.341  -4.489 -25.690  1.00  0.00     0.278 HD
ATOM     15  H11 UNL     1     -14.952  -5.034 -25.312  1.00  0.00     0.278 HD
BRANCH  13  16
HETATM   16  C2  UNL     1     -15.962  -6.313 -26.572  1.00  0.00     0.178 C 
HETATM   17  C1  UNL     1     -14.941  -7.380 -26.349  1.00  0.00     0.039 C 
HETATM   18  C3  UNL     1     -17.308  -6.708 -25.959  1.00  0.00     0.039 C 
ENDBRANCH  13  16
ENDBRANCH   1  13
TORSDOF 2
ENDMDL
