MODEL 1
REMARK VINA RESULT: -7.925761112      0.000      0.000
REMARK  11 active torsions:
REMARK  status: ('A' for Active; 'I' for Inactive)
REMARK    1  A    between atoms: C2_2  and  O1_3 
REMARK    2  A    between atoms: O1_3  and  C3_4 
REMARK    3  A    between atoms: C3_4  and  C4_6 
REMARK    4  A    between atoms: C4_6  and  S1_7 
REMARK    5  A    between atoms: S1_7  and  C5_8 
REMARK    6  A    between atoms: C7_13  and  C8_14 
REMARK    7  A    between atoms: C8_14  and  N2_16 
REMARK    8  A    between atoms: N2_16  and  N3_18 
REMARK       I    between atoms: N3_18  and  C10_20 
REMARK    9  A    between atoms: C11_23  and  N5_24 
REMARK   10  A    between atoms: N5_24  and  N6_25 
REMARK   11  A    between atoms: N6_25  and  C12_27 
ROOT
HETATM    1  C5  UNL     1      23.642  19.772  11.083  1.00  0.00     0.149 A 
HETATM    2  N1  UNL     1      22.555  19.968  11.831  1.00  0.00    -0.303 N 
ATOM      3  H1  UNL     1      21.888  19.208  11.959  1.00  0.00     0.171 HD
HETATM    4  C6  UNL     1      22.333  21.147  12.413  1.00  0.00     0.264 A 
HETATM    5  O3  UNL     1      21.305  21.342  13.123  1.00  0.00    -0.267 OA
HETATM    6  C7  UNL     1      23.206  22.244  12.284  1.00  0.00     0.116 A 
HETATM    7  C11 UNL     1      24.332  22.036  11.508  1.00  0.00     0.223 A 
HETATM    8  N12 UNL     1      24.488  20.774  10.936  1.00  0.00    -0.309 N 
ATOM      9  H12 UNL     1      25.317  20.614  10.363  1.00  0.00     0.170 HD
ENDROOT
BRANCH   7  10
HETATM   10  N5  UNL     1      25.297  22.926  11.244  1.00  0.00    -0.304 NA
BRANCH  10  11
HETATM   11  N6  UNL     1      26.093  23.726  11.083  1.00  0.00    -0.215 N 
ATOM     12  H6  UNL     1      25.961  24.507  11.725  1.00  0.00     0.203 HD
BRANCH  11  13
HETATM   13  C12 UNL     1      27.199  23.943  10.256  1.00  0.00     0.163 A 
HETATM   14  N7  UNL     1      27.425  24.945   9.376  1.00  0.00    -0.280 N 
HETATM   15  N8  UNL     1      28.590  24.793   8.786  1.00  0.00    -0.278 N 
ATOM     16  H7  UNL     1      26.780  25.714   9.195  1.00  0.00     0.189 HD
HETATM   17  C13 UNL     1      29.229  25.636   7.775  1.00  0.00     0.179 C 
HETATM   18  C14 UNL     1      29.181  23.676   9.258  1.00  0.00     0.143 A 
HETATM   19  N9  UNL     1      30.360  23.068   8.996  1.00  0.00    -0.292 N 
HETATM   20  C17 UNL     1      28.315  23.130  10.185  1.00  0.00     0.101 A 
HETATM   21  C15 UNL     1      30.706  21.935   9.624  1.00  0.00     0.327 A 
ATOM     22  H9  UNL     1      30.996  23.476   8.310  1.00  0.00     0.172 HD
HETATM   23  O5  UNL     1      31.807  21.381   9.370  1.00  0.00    -0.247 OA
HETATM   24  N10 UNL     1      29.885  21.388  10.525  1.00  0.00    -0.294 N 
HETATM   25  C16 UNL     1      28.689  21.976  10.812  1.00  0.00     0.120 A 
ATOM     26  H10 UNL     1      30.154  20.526  11.000  1.00  0.00     0.172 HD
HETATM   27  N11 UNL     1      27.976  21.386  11.680  1.00  0.00    -0.384 N 
ATOM     28 2H11 UNL     1      28.255  20.525  12.149  1.00  0.00     0.157 HD
ATOM     29 1H11 UNL     1      27.082  21.827  11.895  1.00  0.00     0.157 HD
ENDBRANCH  11  13
ENDBRANCH  10  11
ENDBRANCH   7  10
BRANCH   6  30
HETATM   30  C8  UNL     1      22.903  23.483  12.938  1.00  0.00     0.042 C 
HETATM   31  C9  UNL     1      22.284  24.640  12.325  1.00  0.00     0.071 C 
BRANCH  30  32
HETATM   32  N2  UNL     1      23.215  23.572  14.201  1.00  0.00    -0.300 N 
ATOM     33  H2  UNL     1      24.202  23.587  14.459  1.00  0.00     0.186 HD
BRANCH  32  34
HETATM   34  N3  UNL     1      22.265  23.648  15.212  1.00  0.00    -0.254 N 
HETATM   35  C10 UNL     1      22.234  22.748  16.280  1.00  0.00     0.347 C 
HETATM   36  N4  UNL     1      21.237  22.875  17.286  1.00  0.00    -0.038 NA
HETATM   37  O4  UNL     1      23.065  21.817  16.389  1.00  0.00    -0.249 OA
ATOM     38  H3  UNL     1      21.565  24.388  15.173  1.00  0.00     0.191 HD
ENDBRANCH  32  34
ENDBRANCH  30  32
ENDBRANCH   6  30
BRANCH   1  39
HETATM   39  S1  UNL     1      23.974  18.196  10.285  1.00  0.00    -0.084 SA
BRANCH  39  40
HETATM   40  C4  UNL     1      25.301  17.318  11.132  1.00  0.00     0.193 C 
BRANCH  40  41
HETATM   41  C3  UNL     1      26.573  17.599  10.448  1.00  0.00     0.268 C 
HETATM   42  O2  UNL     1      26.997  18.771  10.391  1.00  0.00    -0.264 OA
BRANCH  41  43
HETATM   43  O1  UNL     1      27.291  16.575   9.875  1.00  0.00    -0.321 OA
BRANCH  43  44
HETATM   44  C2  UNL     1      26.908  15.213   9.980  1.00  0.00     0.174 C 
HETATM   45  C1  UNL     1      28.087  14.418  10.507  1.00  0.00     0.034 C 
ENDBRANCH  43  44
ENDBRANCH  41  43
ENDBRANCH  40  41
ENDBRANCH  39  40
ENDBRANCH   1  39
TORSDOF 11
ENDMDL
MODEL 2
REMARK VINA RESULT: -7.904568394      5.048      8.228
REMARK  11 active torsions:
REMARK  status: ('A' for Active; 'I' for Inactive)
REMARK    1  A    between atoms: C2_2  and  O1_3 
REMARK    2  A    between atoms: O1_3  and  C3_4 
REMARK    3  A    between atoms: C3_4  and  C4_6 
REMARK    4  A    between atoms: C4_6  and  S1_7 
REMARK    5  A    between atoms: S1_7  and  C5_8 
REMARK    6  A    between atoms: C7_13  and  C8_14 
REMARK    7  A    between atoms: C8_14  and  N2_16 
REMARK    8  A    between atoms: N2_16  and  N3_18 
REMARK       I    between atoms: N3_18  and  C10_20 
REMARK    9  A    between atoms: C11_23  and  N5_24 
REMARK   10  A    between atoms: N5_24  and  N6_25 
REMARK   11  A    between atoms: N6_25  and  C12_27 
ROOT
HETATM    1  C5  UNL     1      24.514  15.288  12.587  1.00  0.00     0.149 A 
HETATM    2  N1  UNL     1      24.583  14.101  13.192  1.00  0.00    -0.303 N 
ATOM      3  H1  UNL     1      25.043  13.322  12.722  1.00  0.00     0.171 HD
HETATM    4  C6  UNL     1      24.057  13.924  14.404  1.00  0.00     0.264 A 
HETATM    5  O3  UNL     1      24.118  12.802  14.985  1.00  0.00    -0.267 OA
HETATM    6  C7  UNL     1      23.407  14.949  15.118  1.00  0.00     0.116 A 
HETATM    7  C11 UNL     1      23.338  16.178  14.486  1.00  0.00     0.223 A 
HETATM    8  N12 UNL     1      23.912  16.278  13.221  1.00  0.00    -0.309 N 
ATOM      9  H12 UNL     1      23.865  17.181  12.750  1.00  0.00     0.170 HD
ENDROOT
BRANCH   7  10
HETATM   10  N5  UNL     1      22.772  17.292  14.966  1.00  0.00    -0.304 NA
BRANCH  10  11
HETATM   11  N6  UNL     1      22.220  18.204  15.371  1.00  0.00    -0.215 N 
ATOM     12  H6  UNL     1      21.508  17.928  16.048  1.00  0.00     0.203 HD
BRANCH  11  13
HETATM   13  C12 UNL     1      22.240  19.591  15.206  1.00  0.00     0.163 A 
HETATM   14  N7  UNL     1      22.791  20.326  14.214  1.00  0.00    -0.280 N 
HETATM   15  N8  UNL     1      22.595  21.610  14.420  1.00  0.00    -0.278 N 
ATOM     16  H7  UNL     1      23.291  19.938  13.414  1.00  0.00     0.189 HD
HETATM   17  C13 UNL     1      23.018  22.751  13.607  1.00  0.00     0.179 C 
HETATM   18  C14 UNL     1      21.901  21.771  15.567  1.00  0.00     0.143 A 
HETATM   19  N9  UNL     1      21.445  22.857  16.230  1.00  0.00    -0.292 N 
HETATM   20  C17 UNL     1      21.671  20.508  16.073  1.00  0.00     0.101 A 
HETATM   21  C15 UNL     1      20.768  22.728  17.380  1.00  0.00     0.327 A 
ATOM     22  H9  UNL     1      21.618  23.789  15.851  1.00  0.00     0.172 HD
HETATM   23  O5  UNL     1      20.349  23.749  17.986  1.00  0.00    -0.247 OA
HETATM   24  N10 UNL     1      20.532  21.516  17.889  1.00  0.00    -0.294 N 
HETATM   25  C16 UNL     1      20.978  20.401  17.244  1.00  0.00     0.120 A 
ATOM     26  H10 UNL     1      20.016  21.424  18.765  1.00  0.00     0.172 HD
HETATM   27  N11 UNL     1      20.708  19.293  17.801  1.00  0.00    -0.384 N 
ATOM     28 2H11 UNL     1      20.191  19.213  18.677  1.00  0.00     0.157 HD
ATOM     29 1H11 UNL     1      21.042  18.459  17.319  1.00  0.00     0.157 HD
ENDBRANCH  11  13
ENDBRANCH  10  11
ENDBRANCH   7  10
BRANCH   6  30
HETATM   30  C8  UNL     1      22.865  14.686  16.418  1.00  0.00     0.042 C 
HETATM   31  C9  UNL     1      23.605  14.678  17.663  1.00  0.00     0.071 C 
BRANCH  30  32
HETATM   32  N2  UNL     1      21.588  14.431  16.482  1.00  0.00    -0.300 N 
ATOM     33  H2  UNL     1      21.191  13.764  15.820  1.00  0.00     0.186 HD
BRANCH  32  34
HETATM   34  N3  UNL     1      20.743  15.025  17.411  1.00  0.00    -0.254 N 
HETATM   35  C10 UNL     1      19.815  16.008  17.057  1.00  0.00     0.347 C 
HETATM   36  N4  UNL     1      18.976  16.581  18.052  1.00  0.00    -0.038 NA
HETATM   37  O4  UNL     1      19.689  16.410  15.878  1.00  0.00    -0.249 OA
ATOM     38  H3  UNL     1      20.802  14.734  18.386  1.00  0.00     0.191 HD
ENDBRANCH  32  34
ENDBRANCH  30  32
ENDBRANCH   6  30
BRANCH   1  39
HETATM   39  S1  UNL     1      25.212  15.563  10.954  1.00  0.00    -0.084 SA
BRANCH  39  40
HETATM   40  C4  UNL     1      26.272  14.187  10.473  1.00  0.00     0.193 C 
BRANCH  40  41
HETATM   41  C3  UNL     1      27.639  14.688  10.258  1.00  0.00     0.268 C 
HETATM   42  O2  UNL     1      28.178  15.399  11.129  1.00  0.00    -0.264 OA
BRANCH  41  43
HETATM   43  O1  UNL     1      28.317  14.373   9.104  1.00  0.00    -0.321 OA
BRANCH  43  44
HETATM   44  C2  UNL     1      27.905  13.338   8.225  1.00  0.00     0.174 C 
HETATM   45  C1  UNL     1      28.999  12.290   8.163  1.00  0.00     0.034 C 
ENDBRANCH  43  44
ENDBRANCH  41  43
ENDBRANCH  40  41
ENDBRANCH  39  40
ENDBRANCH   1  39
TORSDOF 11
ENDMDL
MODEL 3
REMARK VINA RESULT: -7.865577164      4.240      7.353
REMARK  11 active torsions:
REMARK  status: ('A' for Active; 'I' for Inactive)
REMARK    1  A    between atoms: C2_2  and  O1_3 
REMARK    2  A    between atoms: O1_3  and  C3_4 
REMARK    3  A    between atoms: C3_4  and  C4_6 
REMARK    4  A    between atoms: C4_6  and  S1_7 
REMARK    5  A    between atoms: S1_7  and  C5_8 
REMARK    6  A    between atoms: C7_13  and  C8_14 
REMARK    7  A    between atoms: C8_14  and  N2_16 
REMARK    8  A    between atoms: N2_16  and  N3_18 
REMARK       I    between atoms: N3_18  and  C10_20 
REMARK    9  A    between atoms: C11_23  and  N5_24 
REMARK   10  A    between atoms: N5_24  and  N6_25 
REMARK   11  A    between atoms: N6_25  and  C12_27 
ROOT
HETATM    1  C5  UNL     1      24.745  14.190  12.755  1.00  0.00     0.149 A 
HETATM    2  N1  UNL     1      24.599  13.179  13.613  1.00  0.00    -0.303 N 
ATOM      3  H1  UNL     1      24.950  12.254  13.366  1.00  0.00     0.171 HD
HETATM    4  C6  UNL     1      24.001  13.365  14.789  1.00  0.00     0.264 A 
HETATM    5  O3  UNL     1      23.859  12.412  15.608  1.00  0.00    -0.267 OA
HETATM    6  C7  UNL     1      23.491  14.610  15.204  1.00  0.00     0.116 A 
HETATM    7  C11 UNL     1      23.644  15.656  14.311  1.00  0.00     0.223 A 
HETATM    8  N12 UNL     1      24.281  15.375  13.104  1.00  0.00    -0.309 N 
ATOM      9  H12 UNL     1      24.397  16.142  12.441  1.00  0.00     0.170 HD
ENDROOT
BRANCH   7  10
HETATM   10  N5  UNL     1      23.241  16.921  14.485  1.00  0.00    -0.304 NA
BRANCH  10  11
HETATM   11  N6  UNL     1      22.938  18.017  14.568  1.00  0.00    -0.215 N 
ATOM     12  H6  UNL     1      22.467  18.199  15.454  1.00  0.00     0.203 HD
BRANCH  11  13
HETATM   13  C12 UNL     1      23.027  19.182  13.802  1.00  0.00     0.163 A 
HETATM   14  N7  UNL     1      23.287  19.320  12.482  1.00  0.00    -0.280 N 
HETATM   15  N8  UNL     1      23.286  20.589  12.137  1.00  0.00    -0.278 N 
ATOM     16  H7  UNL     1      23.462  18.546  11.842  1.00  0.00     0.189 HD
HETATM   17  C13 UNL     1      23.520  21.188  10.822  1.00  0.00     0.179 C 
HETATM   18  C14 UNL     1      23.022  21.342  13.225  1.00  0.00     0.143 A 
HETATM   19  N9  UNL     1      22.906  22.674  13.427  1.00  0.00    -0.292 N 
HETATM   20  C17 UNL     1      22.857  20.469  14.282  1.00  0.00     0.101 A 
HETATM   21  C15 UNL     1      22.633  23.165  14.643  1.00  0.00     0.327 A 
ATOM     22  H9  UNL     1      23.029  23.314  12.642  1.00  0.00     0.172 HD
HETATM   23  O5  UNL     1      22.528  24.408  14.815  1.00  0.00    -0.247 OA
HETATM   24  N10 UNL     1      22.469  22.341  15.681  1.00  0.00    -0.294 N 
HETATM   25  C16 UNL     1      22.578  20.992  15.511  1.00  0.00     0.120 A 
ATOM     26  H10 UNL     1      22.261  22.721  16.605  1.00  0.00     0.172 HD
HETATM   27  N11 UNL     1      22.407  20.288  16.552  1.00  0.00    -0.384 N 
ATOM     28 2H11 UNL     1      22.199  20.679  17.471  1.00  0.00     0.157 HD
ATOM     29 1H11 UNL     1      22.488  19.279  16.425  1.00  0.00     0.157 HD
ENDBRANCH  11  13
ENDBRANCH  10  11
ENDBRANCH   7  10
BRANCH   6  30
HETATM   30  C8  UNL     1      22.859  14.737  16.484  1.00  0.00     0.042 C 
HETATM   31  C9  UNL     1      23.522  14.674  17.770  1.00  0.00     0.071 C 
BRANCH  30  32
HETATM   32  N2  UNL     1      21.569  14.926  16.486  1.00  0.00    -0.300 N 
ATOM     33  H2  UNL     1      21.036  14.654  15.661  1.00  0.00     0.186 HD
BRANCH  32  34
HETATM   34  N3  UNL     1      20.888  15.482  17.562  1.00  0.00    -0.254 N 
HETATM   35  C10 UNL     1      20.484  16.819  17.583  1.00  0.00     0.347 C 
HETATM   36  N4  UNL     1      19.790  17.332  18.713  1.00  0.00    -0.038 NA
HETATM   37  O4  UNL     1      20.713  17.597  16.629  1.00  0.00    -0.249 OA
ATOM     38  H3  UNL     1      20.674  14.892  18.365  1.00  0.00     0.191 HD
ENDBRANCH  32  34
ENDBRANCH  30  32
ENDBRANCH   6  30
BRANCH   1  39
HETATM   39  S1  UNL     1      25.547  13.975  11.161  1.00  0.00    -0.084 SA
BRANCH  39  40
HETATM   40  C4  UNL     1      25.530  15.515  10.225  1.00  0.00     0.193 C 
BRANCH  40  41
HETATM   41  C3  UNL     1      26.835  16.178  10.370  1.00  0.00     0.268 C 
HETATM   42  O2  UNL     1      27.812  15.529  10.797  1.00  0.00    -0.264 OA
BRANCH  41  43
HETATM   43  O1  UNL     1      26.978  17.504  10.036  1.00  0.00    -0.321 OA
BRANCH  43  44
HETATM   44  C2  UNL     1      26.080  18.511  10.475  1.00  0.00     0.174 C 
HETATM   45  C1  UNL     1      26.802  19.408  11.462  1.00  0.00     0.034 C 
ENDBRANCH  43  44
ENDBRANCH  41  43
ENDBRANCH  40  41
ENDBRANCH  39  40
ENDBRANCH   1  39
TORSDOF 11
ENDMDL
MODEL 4
REMARK VINA RESULT: -7.667863869      4.337      8.317
REMARK  11 active torsions:
REMARK  status: ('A' for Active; 'I' for Inactive)
REMARK    1  A    between atoms: C2_2  and  O1_3 
REMARK    2  A    between atoms: O1_3  and  C3_4 
REMARK    3  A    between atoms: C3_4  and  C4_6 
REMARK    4  A    between atoms: C4_6  and  S1_7 
REMARK    5  A    between atoms: S1_7  and  C5_8 
REMARK    6  A    between atoms: C7_13  and  C8_14 
REMARK    7  A    between atoms: C8_14  and  N2_16 
REMARK    8  A    between atoms: N2_16  and  N3_18 
REMARK       I    between atoms: N3_18  and  C10_20 
REMARK    9  A    between atoms: C11_23  and  N5_24 
REMARK   10  A    between atoms: N5_24  and  N6_25 
REMARK   11  A    between atoms: N6_25  and  C12_27 
ROOT
HETATM    1  C5  UNL     1      24.406  15.268  12.727  1.00  0.00     0.149 A 
HETATM    2  N1  UNL     1      24.490  14.087  13.341  1.00  0.00    -0.303 N 
ATOM      3  H1  UNL     1      24.946  13.305  12.871  1.00  0.00     0.171 HD
HETATM    4  C6  UNL     1      23.986  13.918  14.564  1.00  0.00     0.264 A 
HETATM    5  O3  UNL     1      24.061  12.803  15.154  1.00  0.00    -0.267 OA
HETATM    6  C7  UNL     1      23.342  14.947  15.278  1.00  0.00     0.116 A 
HETATM    7  C11 UNL     1      23.257  16.170  14.636  1.00  0.00     0.223 A 
HETATM    8  N12 UNL     1      23.811  16.260  13.361  1.00  0.00    -0.309 N 
ATOM      9  H12 UNL     1      23.752  17.159  12.882  1.00  0.00     0.170 HD
ENDROOT
BRANCH   7  10
HETATM   10  N5  UNL     1      22.694  17.286  15.115  1.00  0.00    -0.304 NA
BRANCH  10  11
HETATM   11  N6  UNL     1      22.145  18.208  15.501  1.00  0.00    -0.215 N 
ATOM     12  H6  UNL     1      21.424  17.947  16.174  1.00  0.00     0.203 HD
BRANCH  11  13
HETATM   13  C12 UNL     1      22.176  19.593  15.315  1.00  0.00     0.163 A 
HETATM   14  N7  UNL     1      22.736  20.309  14.314  1.00  0.00    -0.280 N 
HETATM   15  N8  UNL     1      22.550  21.596  14.501  1.00  0.00    -0.278 N 
ATOM     16  H7  UNL     1      23.235  19.905  13.521  1.00  0.00     0.189 HD
HETATM   17  C13 UNL     1      22.984  22.722  13.671  1.00  0.00     0.179 C 
HETATM   18  C14 UNL     1      21.854  21.780  15.642  1.00  0.00     0.143 A 
HETATM   19  N9  UNL     1      21.405  22.880  16.288  1.00  0.00    -0.292 N 
HETATM   20  C17 UNL     1      21.612  20.526  16.166  1.00  0.00     0.101 A 
HETATM   21  C15 UNL     1      20.724  22.773  17.438  1.00  0.00     0.327 A 
ATOM     22  H9  UNL     1      21.587  23.804  15.896  1.00  0.00     0.172 HD
HETATM   23  O5  UNL     1      20.311  23.806  18.028  1.00  0.00    -0.247 OA
HETATM   24  N10 UNL     1      20.477  21.571  17.964  1.00  0.00    -0.294 N 
HETATM   25  C16 UNL     1      20.916  20.442  17.337  1.00  0.00     0.120 A 
ATOM     26  H10 UNL     1      19.957  21.496  18.839  1.00  0.00     0.172 HD
HETATM   27  N11 UNL     1      20.635  19.345  17.910  1.00  0.00    -0.384 N 
ATOM     28 2H11 UNL     1      20.115  19.283  18.785  1.00  0.00     0.157 HD
ATOM     29 1H11 UNL     1      20.963  18.502  17.441  1.00  0.00     0.157 HD
ENDBRANCH  11  13
ENDBRANCH  10  11
ENDBRANCH   7  10
BRANCH   6  30
HETATM   30  C8  UNL     1      22.823  14.694  16.590  1.00  0.00     0.042 C 
HETATM   31  C9  UNL     1      23.583  14.710  17.823  1.00  0.00     0.071 C 
BRANCH  30  32
HETATM   32  N2  UNL     1      21.550  14.426  16.676  1.00  0.00    -0.300 N 
ATOM     33  H2  UNL     1      21.161  13.710  16.063  1.00  0.00     0.186 HD
BRANCH  32  34
HETATM   34  N3  UNL     1      20.700  15.071  17.565  1.00  0.00    -0.254 N 
HETATM   35  C10 UNL     1      19.757  16.015  17.150  1.00  0.00     0.347 C 
HETATM   36  N4  UNL     1      18.913  16.643  18.106  1.00  0.00    -0.038 NA
HETATM   37  O4  UNL     1      19.623  16.334  15.946  1.00  0.00    -0.249 OA
ATOM     38  H3  UNL     1      20.766  14.847  18.558  1.00  0.00     0.191 HD
ENDBRANCH  32  34
ENDBRANCH  30  32
ENDBRANCH   6  30
BRANCH   1  39
HETATM   39  S1  UNL     1      25.076  15.530  11.079  1.00  0.00    -0.084 SA
BRANCH  39  40
HETATM   40  C4  UNL     1      25.220  17.291  10.723  1.00  0.00     0.193 C 
BRANCH  40  41
HETATM   41  C3  UNL     1      26.585  17.574  10.250  1.00  0.00     0.268 C 
HETATM   42  O2  UNL     1      27.241  16.674   9.688  1.00  0.00    -0.264 OA
BRANCH  41  43
HETATM   43  O1  UNL     1      27.133  18.822  10.427  1.00  0.00    -0.321 OA
BRANCH  43  44
HETATM   44  C2  UNL     1      26.830  19.646  11.541  1.00  0.00     0.174 C 
HETATM   45  C1  UNL     1      27.403  21.028  11.293  1.00  0.00     0.034 C 
ENDBRANCH  43  44
ENDBRANCH  41  43
ENDBRANCH  40  41
ENDBRANCH  39  40
ENDBRANCH   1  39
TORSDOF 11
ENDMDL
MODEL 5
REMARK VINA RESULT: -7.489189863      5.139      8.303
REMARK  11 active torsions:
REMARK  status: ('A' for Active; 'I' for Inactive)
REMARK    1  A    between atoms: C2_2  and  O1_3 
REMARK    2  A    between atoms: O1_3  and  C3_4 
REMARK    3  A    between atoms: C3_4  and  C4_6 
REMARK    4  A    between atoms: C4_6  and  S1_7 
REMARK    5  A    between atoms: S1_7  and  C5_8 
REMARK    6  A    between atoms: C7_13  and  C8_14 
REMARK    7  A    between atoms: C8_14  and  N2_16 
REMARK    8  A    between atoms: N2_16  and  N3_18 
REMARK       I    between atoms: N3_18  and  C10_20 
REMARK    9  A    between atoms: C11_23  and  N5_24 
REMARK   10  A    between atoms: N5_24  and  N6_25 
REMARK   11  A    between atoms: N6_25  and  C12_27 
ROOT
HETATM    1  C5  UNL     1      24.492  15.295  12.618  1.00  0.00     0.149 A 
HETATM    2  N1  UNL     1      24.582  14.116  13.234  1.00  0.00    -0.303 N 
ATOM      3  H1  UNL     1      25.060  13.341  12.775  1.00  0.00     0.171 HD
HETATM    4  C6  UNL     1      24.055  13.939  14.446  1.00  0.00     0.264 A 
HETATM    5  O3  UNL     1      24.135  12.825  15.038  1.00  0.00    -0.267 OA
HETATM    6  C7  UNL     1      23.380  14.958  15.146  1.00  0.00     0.116 A 
HETATM    7  C11 UNL     1      23.289  16.179  14.501  1.00  0.00     0.223 A 
HETATM    8  N12 UNL     1      23.867  16.278  13.238  1.00  0.00    -0.309 N 
ATOM      9  H12 UNL     1      23.804  17.176  12.758  1.00  0.00     0.170 HD
ENDROOT
BRANCH   7  10
HETATM   10  N5  UNL     1      22.698  17.286  14.968  1.00  0.00    -0.304 NA
BRANCH  10  11
HETATM   11  N6  UNL     1      22.220  18.209  15.437  1.00  0.00    -0.215 N 
ATOM     12  H6  UNL     1      21.604  17.949  16.207  1.00  0.00     0.203 HD
BRANCH  11  13
HETATM   13  C12 UNL     1      22.239  19.595  15.260  1.00  0.00     0.163 A 
HETATM   14  N7  UNL     1      22.791  20.322  14.262  1.00  0.00    -0.280 N 
HETATM   15  N8  UNL     1      22.594  21.607  14.457  1.00  0.00    -0.278 N 
ATOM     16  H7  UNL     1      23.293  19.928  13.466  1.00  0.00     0.189 HD
HETATM   17  C13 UNL     1      23.017  22.741  13.634  1.00  0.00     0.179 C 
HETATM   18  C14 UNL     1      21.898  21.778  15.600  1.00  0.00     0.143 A 
HETATM   19  N9  UNL     1      21.439  22.869  16.253  1.00  0.00    -0.292 N 
HETATM   20  C17 UNL     1      21.667  20.518  16.117  1.00  0.00     0.101 A 
HETATM   21  C15 UNL     1      20.760  22.749  17.403  1.00  0.00     0.327 A 
ATOM     22  H9  UNL     1      21.612  23.797  15.866  1.00  0.00     0.172 HD
HETATM   23  O5  UNL     1      20.338  23.775  17.999  1.00  0.00    -0.247 OA
HETATM   24  N10 UNL     1      20.524  21.542  17.922  1.00  0.00    -0.294 N 
HETATM   25  C16 UNL     1      20.973  20.421  17.288  1.00  0.00     0.120 A 
ATOM     26  H10 UNL     1      20.006  21.457  18.797  1.00  0.00     0.172 HD
HETATM   27  N11 UNL     1      20.703  19.319  17.855  1.00  0.00    -0.384 N 
ATOM     28 2H11 UNL     1      20.184  19.246  18.730  1.00  0.00     0.157 HD
ATOM     29 1H11 UNL     1      21.038  18.481  17.380  1.00  0.00     0.157 HD
ENDBRANCH  11  13
ENDBRANCH  10  11
ENDBRANCH   7  10
BRANCH   6  30
HETATM   30  C8  UNL     1      22.837  14.697  16.446  1.00  0.00     0.042 C 
HETATM   31  C9  UNL     1      23.576  14.691  17.692  1.00  0.00     0.071 C 
BRANCH  30  32
HETATM   32  N2  UNL     1      21.560  14.442  16.510  1.00  0.00    -0.300 N 
ATOM     33  H2  UNL     1      21.164  13.771  15.851  1.00  0.00     0.186 HD
BRANCH  32  34
HETATM   34  N3  UNL     1      20.713  15.042  17.433  1.00  0.00    -0.254 N 
HETATM   35  C10 UNL     1      19.777  16.014  17.070  1.00  0.00     0.347 C 
HETATM   36  N4  UNL     1      18.936  16.593  18.060  1.00  0.00    -0.038 NA
HETATM   37  O4  UNL     1      19.646  16.400  15.886  1.00  0.00    -0.249 OA
ATOM     38  H3  UNL     1      20.777  14.763  18.411  1.00  0.00     0.191 HD
ENDBRANCH  32  34
ENDBRANCH  30  32
ENDBRANCH   6  30
BRANCH   1  39
HETATM   39  S1  UNL     1      25.193  15.568  10.985  1.00  0.00    -0.084 SA
BRANCH  39  40
HETATM   40  C4  UNL     1      25.872  14.038  10.318  1.00  0.00     0.193 C 
BRANCH  40  41
HETATM   41  C3  UNL     1      26.661  14.348   9.115  1.00  0.00     0.268 C 
HETATM   42  O2  UNL     1      27.742  14.961   9.228  1.00  0.00    -0.264 OA
BRANCH  41  43
HETATM   43  O1  UNL     1      26.210  13.966   7.874  1.00  0.00    -0.321 OA
BRANCH  43  44
HETATM   44  C2  UNL     1      24.968  14.395   7.339  1.00  0.00     0.174 C 
HETATM   45  C1  UNL     1      25.077  14.428   5.827  1.00  0.00     0.034 C 
ENDBRANCH  43  44
ENDBRANCH  41  43
ENDBRANCH  40  41
ENDBRANCH  39  40
ENDBRANCH   1  39
TORSDOF 11
ENDMDL
