MODEL 1
REMARK VINA RESULT: -6.542325931      0.000      0.000
REMARK  12 active torsions:
REMARK  status: ('A' for Active; 'I' for Inactive)
REMARK    1  A    between atoms: C2_2  and  S1_3 
REMARK    2  A    between atoms: S1_3  and  C3_4 
REMARK    3  A    between atoms: C4_5  and  C5_6 
REMARK    4  A    between atoms: C5_6  and  O2_8 
REMARK    5  A    between atoms: N3_14  and  C7_15 
REMARK    6  A    between atoms: C8_20  and  N6_21 
REMARK       I    between atoms: N6_21  and  C9_23 
REMARK    7  A    between atoms: C9_23  and  C10_25 
REMARK    8  A    between atoms: C10_25  and  N7_26 
REMARK    9  A    between atoms: C11_28  and  O4_29 
REMARK   10  A    between atoms: C11_28  and  C12_31 
REMARK   11  A    between atoms: C14_37  and  N9_38 
REMARK   12  A    between atoms: C16_43  and  N11_44 
ROOT
HETATM    1  C7  UNL     1      27.569  23.197  10.068  1.00  0.00     0.189 A 
HETATM    2  N4  UNL     1      27.328  23.069  11.384  1.00  0.00    -0.267 N 
ATOM      3  H4  UNL     1      27.900  23.602  12.039  1.00  0.00     0.189 HD
HETATM    4  N5  UNL     1      26.388  22.286  11.864  1.00  0.00    -0.130 N 
ATOM      5  H5  UNL     1      26.262  22.240  12.875  1.00  0.00     0.205 HD
HETATM    6  C8  UNL     1      25.562  21.525  11.062  1.00  0.00     0.701 A 
HETATM    7  N10 UNL     1      25.790  21.642   9.746  1.00  0.00    -0.172 N 
ATOM      8  H10 UNL     1      25.212  21.106   9.100  1.00  0.00     0.186 HD
HETATM    9  C16 UNL     1      26.765  22.453   9.238  1.00  0.00     0.162 A 
ENDROOT
BRANCH   6  10
HETATM   10  N6  UNL     1      24.689  20.796  11.585  1.00  0.00    -0.153 N 
HETATM   11  C9  UNL     1      23.498  20.875  12.227  1.00  0.00     0.275 C 
HETATM   12  O3  UNL     1      23.335  20.057  13.224  1.00  0.00    -0.266 OA
ATOM     13  H6  UNL     1      24.966  19.817  11.500  1.00  0.00     0.187 HD
BRANCH  11  14
HETATM   14  C10 UNL     1      22.349  21.764  11.947  1.00  0.00     0.165 C 
BRANCH  14  15
HETATM   15  N7  UNL     1      22.210  22.794  12.858  1.00  0.00    -0.340 N 
HETATM   16  C11 UNL     1      22.670  24.076  12.834  1.00  0.00     0.170 C 
ATOM     17  H7  UNL     1      21.670  22.554  13.691  1.00  0.00     0.167 HD
BRANCH  16  18
HETATM   18  O4  UNL     1      22.140  24.919  13.780  1.00  0.00    -0.344 OA
ATOM     19  H4  UNL     1      21.970  25.808  13.492  1.00  0.00     0.219 HD
ENDBRANCH  16  18
BRANCH  16  20
HETATM   20  C12 UNL     1      22.979  24.747  11.528  1.00  0.00     0.120 A 
HETATM   21  N8  UNL     1      24.211  24.923  11.114  1.00  0.00    -0.311 N 
HETATM   22  C13 UNL     1      24.441  25.595   9.996  1.00  0.00     0.290 A 
ATOM     23  H8  UNL     1      24.990  24.543  11.651  1.00  0.00     0.170 HD
HETATM   24  O5  UNL     1      25.587  25.847   9.470  1.00  0.00    -0.260 OA
HETATM   25  S2  UNL     1      22.891  26.017   9.473  1.00  0.00    -0.009 SA
HETATM   26  C14 UNL     1      21.973  25.287  10.755  1.00  0.00     0.106 A 
BRANCH  26  27
HETATM   27  N9  UNL     1      20.557  25.276  10.876  1.00  0.00    -0.387 N 
HETATM   28  C15 UNL     1      19.838  24.137  10.335  1.00  0.00     0.147 C 
ATOM     29  H9  UNL     1      20.061  26.044  11.328  1.00  0.00     0.159 HD
ENDBRANCH  26  27
ENDBRANCH  16  20
ENDBRANCH  14  15
ENDBRANCH  11  14
ENDBRANCH   6  10
BRANCH   9  30
HETATM   30  N11 UNL     1      26.957  22.545   7.972  1.00  0.00    -0.382 N 
ATOM     31 2H11 UNL     1      27.144  23.446   7.533  1.00  0.00     0.157 HD
ATOM     32 1H11 UNL     1      26.920  21.688   7.420  1.00  0.00     0.157 HD
ENDBRANCH   9  30
BRANCH   1  33
HETATM   33  N3  UNL     1      28.603  24.043   9.579  1.00  0.00    -0.212 N 
HETATM   34  C3  UNL     1      29.906  23.655   9.431  1.00  0.00     0.131 A 
HETATM   35  C4  UNL     1      30.644  24.697   8.928  1.00  0.00     0.160 A 
HETATM   36  N1  UNL     1      29.740  25.712   8.786  1.00  0.00    -0.278 N 
HETATM   37  N2  UNL     1      28.556  25.301   9.173  1.00  0.00    -0.233 N 
ATOM     38  H1  UNL     1      29.952  26.644   8.433  1.00  0.00     0.189 HD
ATOM     39  H2  UNL     1      27.712  25.875   9.164  1.00  0.00     0.209 HD
BRANCH  34  40
HETATM   40  S1  UNL     1      30.486  22.037   9.895  1.00  0.00    -0.108 SA
BRANCH  40  41
HETATM   41  C2  UNL     1      30.903  21.937  11.650  1.00  0.00     0.076 C 
HETATM   42  C1  UNL     1      32.284  21.471  11.943  1.00  0.00     0.016 C 
ENDBRANCH  40  41
ENDBRANCH  34  40
BRANCH  35  43
HETATM   43  C5  UNL     1      32.051  24.723   8.579  1.00  0.00     0.314 C 
HETATM   44  O1  UNL     1      32.900  25.357   9.248  1.00  0.00    -0.257 OA
BRANCH  43  45
HETATM   45  O2  UNL     1      32.543  24.040   7.471  1.00  0.00    -0.321 OA
HETATM   46  C6  UNL     1      31.802  24.012   6.240  1.00  0.00     0.213 C 
ENDBRANCH  43  45
ENDBRANCH  35  43
ENDBRANCH   1  33
TORSDOF 12
ENDMDL
MODEL 2
REMARK VINA RESULT: -6.431312920      4.740      6.902
REMARK  12 active torsions:
REMARK  status: ('A' for Active; 'I' for Inactive)
REMARK    1  A    between atoms: C2_2  and  S1_3 
REMARK    2  A    between atoms: S1_3  and  C3_4 
REMARK    3  A    between atoms: C4_5  and  C5_6 
REMARK    4  A    between atoms: C5_6  and  O2_8 
REMARK    5  A    between atoms: N3_14  and  C7_15 
REMARK    6  A    between atoms: C8_20  and  N6_21 
REMARK       I    between atoms: N6_21  and  C9_23 
REMARK    7  A    between atoms: C9_23  and  C10_25 
REMARK    8  A    between atoms: C10_25  and  N7_26 
REMARK    9  A    between atoms: C11_28  and  O4_29 
REMARK   10  A    between atoms: C11_28  and  C12_31 
REMARK   11  A    between atoms: C14_37  and  N9_38 
REMARK   12  A    between atoms: C16_43  and  N11_44 
ROOT
HETATM    1  C7  UNL     1      28.560  22.541   9.950  1.00  0.00     0.189 A 
HETATM    2  N4  UNL     1      27.318  22.169   9.596  1.00  0.00    -0.267 N 
ATOM      3  H4  UNL     1      26.865  22.655   8.822  1.00  0.00     0.189 HD
HETATM    4  N5  UNL     1      26.662  21.207  10.204  1.00  0.00    -0.130 N 
ATOM      5  H5  UNL     1      25.722  20.979   9.880  1.00  0.00     0.205 HD
HETATM    6  C8  UNL     1      27.186  20.490  11.260  1.00  0.00     0.701 A 
HETATM    7  N10 UNL     1      28.425  20.848  11.625  1.00  0.00    -0.172 N 
ATOM      8  H10 UNL     1      28.870  20.356  12.399  1.00  0.00     0.186 HD
HETATM    9  C16 UNL     1      29.115  21.848  10.999  1.00  0.00     0.162 A 
ENDROOT
BRANCH   6  10
HETATM   10  N6  UNL     1      26.504  19.588  11.798  1.00  0.00    -0.153 N 
HETATM   11  C9  UNL     1      25.601  18.626  11.490  1.00  0.00     0.275 C 
HETATM   12  O3  UNL     1      24.626  18.470  12.336  1.00  0.00    -0.266 OA
ATOM     13  H6  UNL     1      26.690  19.572  12.801  1.00  0.00     0.187 HD
BRANCH  11  14
HETATM   14  C10 UNL     1      25.571  17.720  10.320  1.00  0.00     0.165 C 
BRANCH  14  15
HETATM   15  N7  UNL     1      26.711  16.951  10.184  1.00  0.00    -0.340 N 
HETATM   16  C11 UNL     1      26.878  15.599  10.150  1.00  0.00     0.170 C 
ATOM     17  H7  UNL     1      27.575  17.487  10.093  1.00  0.00     0.167 HD
BRANCH  16  18
HETATM   18  O4  UNL     1      28.116  15.159   9.749  1.00  0.00    -0.344 OA
ATOM     19  H4  UNL     1      28.118  14.482   9.083  1.00  0.00     0.219 HD
ENDBRANCH  16  18
BRANCH  16  20
HETATM   20  C12 UNL     1      25.750  14.705   9.726  1.00  0.00     0.120 A 
HETATM   21  N8  UNL     1      25.483  14.479   8.462  1.00  0.00    -0.311 N 
HETATM   22  C13 UNL     1      24.427  13.752   8.132  1.00  0.00     0.290 A 
ATOM     23  H8  UNL     1      26.088  14.861   7.735  1.00  0.00     0.170 HD
HETATM   24  O5  UNL     1      24.040  13.449   6.943  1.00  0.00    -0.260 OA
HETATM   25  S2  UNL     1      23.751  13.349   9.628  1.00  0.00    -0.009 SA
HETATM   26  C14 UNL     1      24.892  14.159  10.657  1.00  0.00     0.106 A 
BRANCH  26  27
HETATM   27  N9  UNL     1      24.880  14.174  12.079  1.00  0.00    -0.387 N 
HETATM   28  C15 UNL     1      25.040  12.910  12.773  1.00  0.00     0.147 C 
ATOM     29  H9  UNL     1      24.764  15.046  12.595  1.00  0.00     0.159 HD
ENDBRANCH  26  27
ENDBRANCH  16  20
ENDBRANCH  14  15
ENDBRANCH  11  14
ENDBRANCH   6  10
BRANCH   9  30
HETATM   30  N11 UNL     1      30.302  22.167  11.372  1.00  0.00    -0.382 N 
ATOM     31 2H11 UNL     1      31.121  21.764  10.917  1.00  0.00     0.157 HD
ATOM     32 1H11 UNL     1      30.400  22.837  12.134  1.00  0.00     0.157 HD
ENDBRANCH   9  30
BRANCH   1  33
HETATM   33  N3  UNL     1      29.242  23.596   9.282  1.00  0.00    -0.212 N 
HETATM   34  C3  UNL     1      29.960  23.437   8.129  1.00  0.00     0.131 A 
HETATM   35  C4  UNL     1      30.482  24.645   7.739  1.00  0.00     0.160 A 
HETATM   36  N1  UNL     1      30.052  25.521   8.695  1.00  0.00    -0.278 N 
HETATM   37  N2  UNL     1      29.329  24.881   9.584  1.00  0.00    -0.233 N 
ATOM     38  H1  UNL     1      30.260  26.519   8.715  1.00  0.00     0.189 HD
ATOM     39  H2  UNL     1      28.894  25.315  10.398  1.00  0.00     0.209 HD
BRANCH  34  40
HETATM   40  S1  UNL     1      30.182  21.853   7.346  1.00  0.00    -0.108 SA
BRANCH  40  41
HETATM   41  C2  UNL     1      31.905  21.309   7.378  1.00  0.00     0.076 C 
HETATM   42  C1  UNL     1      32.677  21.736   8.573  1.00  0.00     0.016 C 
ENDBRANCH  40  41
ENDBRANCH  34  40
BRANCH  35  43
HETATM   43  C5  UNL     1      31.272  24.951   6.562  1.00  0.00     0.314 C 
HETATM   44  O1  UNL     1      32.485  24.654   6.470  1.00  0.00    -0.257 OA
BRANCH  43  45
HETATM   45  O2  UNL     1      30.722  25.597   5.459  1.00  0.00    -0.321 OA
HETATM   46  C6  UNL     1      30.522  27.020   5.470  1.00  0.00     0.213 C 
ENDBRANCH  43  45
ENDBRANCH  35  43
ENDBRANCH   1  33
TORSDOF 12
ENDMDL
MODEL 3
REMARK VINA RESULT: -6.420537160      1.189      1.375
REMARK  12 active torsions:
REMARK  status: ('A' for Active; 'I' for Inactive)
REMARK    1  A    between atoms: C2_2  and  S1_3 
REMARK    2  A    between atoms: S1_3  and  C3_4 
REMARK    3  A    between atoms: C4_5  and  C5_6 
REMARK    4  A    between atoms: C5_6  and  O2_8 
REMARK    5  A    between atoms: N3_14  and  C7_15 
REMARK    6  A    between atoms: C8_20  and  N6_21 
REMARK       I    between atoms: N6_21  and  C9_23 
REMARK    7  A    between atoms: C9_23  and  C10_25 
REMARK    8  A    between atoms: C10_25  and  N7_26 
REMARK    9  A    between atoms: C11_28  and  O4_29 
REMARK   10  A    between atoms: C11_28  and  C12_31 
REMARK   11  A    between atoms: C14_37  and  N9_38 
REMARK   12  A    between atoms: C16_43  and  N11_44 
ROOT
HETATM    1  C7  UNL     1      27.722  23.311   9.855  1.00  0.00     0.189 A 
HETATM    2  N4  UNL     1      27.449  23.230  11.169  1.00  0.00    -0.267 N 
ATOM      3  H4  UNL     1      27.880  23.906  11.799  1.00  0.00     0.189 HD
HETATM    4  N5  UNL     1      26.651  22.317  11.676  1.00  0.00    -0.130 N 
ATOM      5  H5  UNL     1      26.491  22.317  12.683  1.00  0.00     0.205 HD
HETATM    6  C8  UNL     1      26.021  21.359  10.908  1.00  0.00     0.701 A 
HETATM    7  N10 UNL     1      26.282  21.427   9.596  1.00  0.00    -0.172 N 
ATOM      8  H10 UNL     1      25.846  20.748   8.973  1.00  0.00     0.186 HD
HETATM    9  C16 UNL     1      27.111  22.372   9.059  1.00  0.00     0.162 A 
ENDROOT
BRANCH   6  10
HETATM   10  N6  UNL     1      25.277  20.515  11.457  1.00  0.00    -0.153 N 
HETATM   11  C9  UNL     1      24.135  20.432  12.183  1.00  0.00     0.275 C 
HETATM   12  O3  UNL     1      24.140  19.564  13.151  1.00  0.00    -0.266 OA
ATOM     13  H6  UNL     1      25.656  19.579  11.308  1.00  0.00     0.187 HD
BRANCH  11  14
HETATM   14  C10 UNL     1      22.875  21.192  12.024  1.00  0.00     0.165 C 
BRANCH  14  15
HETATM   15  N7  UNL     1      22.667  22.133  13.014  1.00  0.00    -0.340 N 
HETATM   16  C11 UNL     1      22.950  23.465  13.054  1.00  0.00     0.170 C 
ATOM     17  H7  UNL     1      22.225  21.769  13.859  1.00  0.00     0.167 HD
BRANCH  16  18
HETATM   18  O4  UNL     1      22.383  24.166  14.089  1.00  0.00    -0.344 OA
ATOM     19  H4  UNL     1      21.550  24.582  13.899  1.00  0.00     0.219 HD
ENDBRANCH  16  18
BRANCH  16  20
HETATM   20  C12 UNL     1      23.073  24.253  11.782  1.00  0.00     0.120 A 
HETATM   21  N8  UNL     1      24.237  24.634  11.313  1.00  0.00    -0.311 N 
HETATM   22  C13 UNL     1      24.294  25.400  10.234  1.00  0.00     0.290 A 
ATOM     23  H8  UNL     1      25.096  24.341  11.777  1.00  0.00     0.170 HD
HETATM   24  O5  UNL     1      25.354  25.850   9.663  1.00  0.00    -0.260 OA
HETATM   25  S2  UNL     1      22.668  25.620   9.830  1.00  0.00    -0.009 SA
HETATM   26  C14 UNL     1      21.951  24.685  11.107  1.00  0.00     0.106 A 
BRANCH  26  27
HETATM   27  N9  UNL     1      20.562  24.458  11.306  1.00  0.00    -0.387 N 
HETATM   28  C15 UNL     1      19.961  23.311  10.652  1.00  0.00     0.147 C 
ATOM     29  H9  UNL     1      20.005  25.082  11.891  1.00  0.00     0.159 HD
ENDBRANCH  26  27
ENDBRANCH  16  20
ENDBRANCH  14  15
ENDBRANCH  11  14
ENDBRANCH   6  10
BRANCH   9  30
HETATM   30  N11 UNL     1      27.340  22.411   7.796  1.00  0.00    -0.382 N 
ATOM     31 2H11 UNL     1      28.184  21.995   7.402  1.00  0.00     0.157 HD
ATOM     32 1H11 UNL     1      26.652  22.870   7.199  1.00  0.00     0.157 HD
ENDBRANCH   9  30
BRANCH   1  33
HETATM   33  N3  UNL     1      28.601  24.302   9.336  1.00  0.00    -0.212 N 
HETATM   34  C3  UNL     1      29.936  24.105   9.116  1.00  0.00     0.131 A 
HETATM   35  C4  UNL     1      30.494  25.249   8.603  1.00  0.00     0.160 A 
HETATM   36  N1  UNL     1      29.450  26.128   8.529  1.00  0.00    -0.278 N 
HETATM   37  N2  UNL     1      28.356  25.548   8.964  1.00  0.00    -0.233 N 
ATOM     38  H1  UNL     1      29.510  27.087   8.188  1.00  0.00     0.189 HD
ATOM     39  H2  UNL     1      27.441  25.996   9.008  1.00  0.00     0.209 HD
BRANCH  34  40
HETATM   40  S1  UNL     1      30.761  22.578   9.513  1.00  0.00    -0.108 SA
BRANCH  40  41
HETATM   41  C2  UNL     1      30.779  21.427   8.120  1.00  0.00     0.076 C 
HETATM   42  C1  UNL     1      31.118  22.035   6.807  1.00  0.00     0.016 C 
ENDBRANCH  40  41
ENDBRANCH  34  40
BRANCH  35  43
HETATM   43  C5  UNL     1      31.864  25.480   8.187  1.00  0.00     0.314 C 
HETATM   44  O1  UNL     1      32.811  25.560   9.002  1.00  0.00    -0.257 OA
BRANCH  43  45
HETATM   45  O2  UNL     1      32.206  25.626   6.846  1.00  0.00    -0.321 OA
HETATM   46  C6  UNL     1      32.562  26.914   6.318  1.00  0.00     0.213 C 
ENDBRANCH  43  45
ENDBRANCH  35  43
ENDBRANCH   1  33
TORSDOF 12
ENDMDL
MODEL 4
REMARK VINA RESULT: -6.400471330      6.799     10.079
REMARK  12 active torsions:
REMARK  status: ('A' for Active; 'I' for Inactive)
REMARK    1  A    between atoms: C2_2  and  S1_3 
REMARK    2  A    between atoms: S1_3  and  C3_4 
REMARK    3  A    between atoms: C4_5  and  C5_6 
REMARK    4  A    between atoms: C5_6  and  O2_8 
REMARK    5  A    between atoms: N3_14  and  C7_15 
REMARK    6  A    between atoms: C8_20  and  N6_21 
REMARK       I    between atoms: N6_21  and  C9_23 
REMARK    7  A    between atoms: C9_23  and  C10_25 
REMARK    8  A    between atoms: C10_25  and  N7_26 
REMARK    9  A    between atoms: C11_28  and  O4_29 
REMARK   10  A    between atoms: C11_28  and  C12_31 
REMARK   11  A    between atoms: C14_37  and  N9_38 
REMARK   12  A    between atoms: C16_43  and  N11_44 
ROOT
HETATM    1  C7  UNL     1      21.865  20.303  15.642  1.00  0.00     0.189 A 
HETATM    2  N4  UNL     1      22.616  21.016  16.500  1.00  0.00    -0.267 N 
ATOM      3  H4  UNL     1      23.608  20.794  16.580  1.00  0.00     0.189 HD
HETATM    4  N5  UNL     1      22.127  21.986  17.239  1.00  0.00    -0.130 N 
ATOM      5  H5  UNL     1      22.758  22.484  17.867  1.00  0.00     0.205 HD
HETATM    6  C8  UNL     1      20.800  22.362  17.204  1.00  0.00     0.701 A 
HETATM    7  N10 UNL     1      20.038  21.661  16.353  1.00  0.00    -0.172 N 
ATOM      8  H10 UNL     1      19.047  21.891  16.280  1.00  0.00     0.186 HD
HETATM    9  C16 UNL     1      20.537  20.650  15.581  1.00  0.00     0.162 A 
ENDROOT
BRANCH   6  10
HETATM   10  N6  UNL     1      20.398  23.292  17.940  1.00  0.00    -0.153 N 
HETATM   11  C9  UNL     1      19.436  23.573  18.852  1.00  0.00     0.275 C 
HETATM   12  O3  UNL     1      18.912  24.760  18.777  1.00  0.00    -0.266 OA
ATOM     13  H6  UNL     1      20.994  24.111  17.809  1.00  0.00     0.187 HD
BRANCH  11  14
HETATM   14  C10 UNL     1      18.898  22.713  19.929  1.00  0.00     0.165 C 
BRANCH  14  15
HETATM   15  N7  UNL     1      19.875  22.107  20.696  1.00  0.00    -0.340 N 
HETATM   16  C11 UNL     1      20.066  20.801  21.032  1.00  0.00     0.170 C 
ATOM     17  H7  UNL     1      20.573  22.748  21.076  1.00  0.00     0.167 HD
BRANCH  16  18
HETATM   18  O4  UNL     1      21.279  20.500  21.599  1.00  0.00    -0.344 OA
ATOM     19  H4  UNL     1      21.719  19.732  21.253  1.00  0.00     0.219 HD
ENDBRANCH  16  18
BRANCH  16  20
HETATM   20  C12 UNL     1      19.513  19.707  20.165  1.00  0.00     0.120 A 
HETATM   21  N8  UNL     1      20.146  19.282  19.098  1.00  0.00    -0.311 N 
HETATM   22  C13 UNL     1      19.582  18.374  18.315  1.00  0.00     0.290 A 
ATOM     23  H8  UNL     1      21.069  19.650  18.871  1.00  0.00     0.170 HD
HETATM   24  O5  UNL     1      20.077  17.868  17.242  1.00  0.00    -0.260 OA
HETATM   25  S2  UNL     1      18.101  18.077  19.073  1.00  0.00    -0.009 SA
HETATM   26  C14 UNL     1      18.268  19.169  20.414  1.00  0.00     0.106 A 
BRANCH  26  27
HETATM   27  N9  UNL     1      17.327  19.366  21.461  1.00  0.00    -0.387 N 
HETATM   28  C15 UNL     1      16.305  20.379  21.274  1.00  0.00     0.147 C 
ATOM     29  H9  UNL     1      17.368  18.813  22.317  1.00  0.00     0.159 HD
ENDBRANCH  26  27
ENDBRANCH  16  20
ENDBRANCH  14  15
ENDBRANCH  11  14
ENDBRANCH   6  10
BRANCH   9  30
HETATM   30  N11 UNL     1      19.780  19.998  14.774  1.00  0.00    -0.382 N 
ATOM     31 2H11 UNL     1      19.374  19.102  15.043  1.00  0.00     0.157 HD
ATOM     32 1H11 UNL     1      19.596  20.405  13.857  1.00  0.00     0.157 HD
ENDBRANCH   9  30
BRANCH   1  33
HETATM   33  N3  UNL     1      22.419  19.250  14.864  1.00  0.00    -0.212 N 
HETATM   34  C3  UNL     1      23.006  19.426  13.641  1.00  0.00     0.131 A 
HETATM   35  C4  UNL     1      23.446  18.217  13.161  1.00  0.00     0.160 A 
HETATM   36  N1  UNL     1      23.100  17.323  14.135  1.00  0.00    -0.278 N 
HETATM   37  N2  UNL     1      22.502  17.954  15.117  1.00  0.00    -0.233 N 
ATOM     38  H1  UNL     1      23.280  16.320  14.104  1.00  0.00     0.189 HD
ATOM     39  H2  UNL     1      22.149  17.506  15.963  1.00  0.00     0.209 HD
BRANCH  34  40
HETATM   40  S1  UNL     1      23.096  21.012  12.837  1.00  0.00    -0.108 SA
BRANCH  40  41
HETATM   41  C2  UNL     1      21.576  21.415  11.947  1.00  0.00     0.076 C 
HETATM   42  C1  UNL     1      20.874  20.253  11.342  1.00  0.00     0.016 C 
ENDBRANCH  40  41
ENDBRANCH  34  40
BRANCH  35  43
HETATM   43  C5  UNL     1      24.157  17.938  11.928  1.00  0.00     0.314 C 
HETATM   44  O1  UNL     1      23.575  17.837  10.824  1.00  0.00    -0.257 OA
BRANCH  43  45
HETATM   45  O2  UNL     1      25.537  17.765  11.902  1.00  0.00    -0.321 OA
HETATM   46  C6  UNL     1      26.377  18.694  11.197  1.00  0.00     0.213 C 
ENDBRANCH  43  45
ENDBRANCH  35  43
ENDBRANCH   1  33
TORSDOF 12
ENDMDL
MODEL 5
REMARK VINA RESULT: -6.293504362      4.675      6.978
REMARK  12 active torsions:
REMARK  status: ('A' for Active; 'I' for Inactive)
REMARK    1  A    between atoms: C2_2  and  S1_3 
REMARK    2  A    between atoms: S1_3  and  C3_4 
REMARK    3  A    between atoms: C4_5  and  C5_6 
REMARK    4  A    between atoms: C5_6  and  O2_8 
REMARK    5  A    between atoms: N3_14  and  C7_15 
REMARK    6  A    between atoms: C8_20  and  N6_21 
REMARK       I    between atoms: N6_21  and  C9_23 
REMARK    7  A    between atoms: C9_23  and  C10_25 
REMARK    8  A    between atoms: C10_25  and  N7_26 
REMARK    9  A    between atoms: C11_28  and  O4_29 
REMARK   10  A    between atoms: C11_28  and  C12_31 
REMARK   11  A    between atoms: C14_37  and  N9_38 
REMARK   12  A    between atoms: C16_43  and  N11_44 
ROOT
HETATM    1  C7  UNL     1      28.313  22.548   9.808  1.00  0.00     0.189 A 
HETATM    2  N4  UNL     1      27.048  22.155   9.579  1.00  0.00    -0.267 N 
ATOM      3  H4  UNL     1      26.492  22.673   8.898  1.00  0.00     0.189 HD
HETATM    4  N5  UNL     1      26.496  21.134  10.195  1.00  0.00    -0.130 N 
ATOM      5  H5  UNL     1      25.530  20.894   9.969  1.00  0.00     0.205 HD
HETATM    6  C8  UNL     1      27.162  20.371  11.132  1.00  0.00     0.701 A 
HETATM    7  N10 UNL     1      28.425  20.750  11.371  1.00  0.00    -0.172 N 
ATOM      8  H10 UNL     1      28.973  20.226  12.053  1.00  0.00     0.186 HD
HETATM    9  C16 UNL     1      29.008  21.810  10.737  1.00  0.00     0.162 A 
ENDROOT
BRANCH   6  10
HETATM   10  N6  UNL     1      26.574  19.414  11.685  1.00  0.00    -0.153 N 
HETATM   11  C9  UNL     1      25.648  18.459  11.430  1.00  0.00     0.275 C 
HETATM   12  O3  UNL     1      24.805  18.214  12.390  1.00  0.00    -0.266 OA
ATOM     13  H6  UNL     1      26.902  19.324  12.647  1.00  0.00     0.187 HD
BRANCH  11  14
HETATM   14  C10 UNL     1      25.462  17.648  10.206  1.00  0.00     0.165 C 
BRANCH  14  15
HETATM   15  N7  UNL     1      26.584  16.928   9.842  1.00  0.00    -0.340 N 
HETATM   16  C11 UNL     1      26.939  15.638  10.098  1.00  0.00     0.170 C 
ATOM     17  H7  UNL     1      27.261  17.451   9.287  1.00  0.00     0.167 HD
BRANCH  16  18
HETATM   18  O4  UNL     1      28.003  15.156   9.376  1.00  0.00    -0.344 OA
ATOM     19  H4  UNL     1      27.829  14.388   8.845  1.00  0.00     0.219 HD
ENDBRANCH  16  18
BRANCH  16  20
HETATM   20  C12 UNL     1      25.891  14.606  10.395  1.00  0.00     0.120 A 
HETATM   21  N8  UNL     1      25.674  14.169  11.612  1.00  0.00    -0.311 N 
HETATM   22  C13 UNL     1      24.798  13.197  11.817  1.00  0.00     0.290 A 
ATOM     23  H8  UNL     1      26.179  14.576  12.399  1.00  0.00     0.170 HD
HETATM   24  O5  UNL     1      24.484  12.668  12.946  1.00  0.00    -0.260 OA
HETATM   25  S2  UNL     1      24.232  12.852  10.262  1.00  0.00    -0.009 SA
HETATM   26  C14 UNL     1      25.176  14.012   9.377  1.00  0.00     0.106 A 
BRANCH  26  27
HETATM   27  N9  UNL     1      25.132  14.237   7.974  1.00  0.00    -0.387 N 
HETATM   28  C15 UNL     1      24.279  15.303   7.483  1.00  0.00     0.147 C 
ATOM     29  H9  UNL     1      25.683  13.667   7.332  1.00  0.00     0.159 HD
ENDBRANCH  26  27
ENDBRANCH  16  20
ENDBRANCH  14  15
ENDBRANCH  11  14
ENDBRANCH   6  10
BRANCH   9  30
HETATM   30  N11 UNL     1      30.221  22.147  10.987  1.00  0.00    -0.382 N 
ATOM     31 2H11 UNL     1      30.433  22.944  11.588  1.00  0.00     0.157 HD
ATOM     32 1H11 UNL     1      30.968  21.592  10.569  1.00  0.00     0.157 HD
ENDBRANCH   9  30
BRANCH   1  33
HETATM   33  N3  UNL     1      28.880  23.666   9.136  1.00  0.00    -0.212 N 
HETATM   34  C3  UNL     1      29.503  23.595   7.921  1.00  0.00     0.131 A 
HETATM   35  C4  UNL     1      29.928  24.845   7.545  1.00  0.00     0.160 A 
HETATM   36  N1  UNL     1      29.539  25.655   8.575  1.00  0.00    -0.278 N 
HETATM   37  N2  UNL     1      28.929  24.939   9.490  1.00  0.00    -0.233 N 
ATOM     38  H1  UNL     1      29.698  26.661   8.625  1.00  0.00     0.189 HD
ATOM     39  H2  UNL     1      28.544  25.314  10.357  1.00  0.00     0.209 HD
BRANCH  34  40
HETATM   40  S1  UNL     1      29.736  22.061   7.047  1.00  0.00    -0.108 SA
BRANCH  40  41
HETATM   41  C2  UNL     1      31.265  21.226   7.525  1.00  0.00     0.076 C 
HETATM   42  C1  UNL     1      32.476  22.087   7.531  1.00  0.00     0.016 C 
ENDBRANCH  40  41
ENDBRANCH  34  40
BRANCH  35  43
HETATM   43  C5  UNL     1      30.597  25.244   6.322  1.00  0.00     0.314 C 
HETATM   44  O1  UNL     1      29.983  25.412   5.243  1.00  0.00    -0.257 OA
BRANCH  43  45
HETATM   45  O2  UNL     1      31.970  25.465   6.278  1.00  0.00    -0.321 OA
HETATM   46  C6  UNL     1      32.501  26.794   6.396  1.00  0.00     0.213 C 
ENDBRANCH  43  45
ENDBRANCH  35  43
ENDBRANCH   1  33
TORSDOF 12
ENDMDL
