MODEL 1
REMARK VINA RESULT: -7.182586644      0.000      0.000
REMARK  16 active torsions:
REMARK  status: ('A' for Active; 'I' for Inactive)
REMARK    1  A    between atoms: C2_2  and  C3_3 
REMARK    2  A    between atoms: C3_3  and  C4_4 
REMARK    3  A    between atoms: C4_4  and  C5_5 
REMARK    4  A    between atoms: C5_5  and  C6_6 
REMARK    5  A    between atoms: C6_6  and  C7_7 
REMARK    6  A    between atoms: C10_12  and  C11_13 
REMARK    7  A    between atoms: C12_15  and  C13_16 
REMARK    8  A    between atoms: C13_16  and  O2_17 
REMARK    9  A    between atoms: C13_16  and  C14_19 
REMARK   10  A    between atoms: C14_19  and  O3_20 
REMARK   11  A    between atoms: O3_20  and  C15_21 
REMARK   12  A    between atoms: C18_26  and  O4_27 
REMARK   13  A    between atoms: C19_29  and  O5_30 
REMARK   14  A    between atoms: C20_32  and  O6_33 
REMARK   15  A    between atoms: C21_35  and  O7_36 
REMARK   16  A    between atoms: C22_38  and  O8_39 
ROOT
HETATM    1  C11 UNL     1      -9.659  73.519 119.408  1.00  0.00     0.188 C 
HETATM    2  O1  UNL     1     -10.950  73.103 119.232  1.00  0.00    -0.368 OA
HETATM    3  C12 UNL     1     -11.102  71.781 118.844  1.00  0.00     0.184 C 
HETATM    4  C20 UNL     1      -9.844  70.976 119.067  1.00  0.00     0.181 C 
HETATM    5  C21 UNL     1      -9.333  71.356 120.468  1.00  0.00     0.181 C 
HETATM    6  C22 UNL     1      -8.926  72.804 120.518  1.00  0.00     0.183 C 
ENDROOT
BRANCH   3   7
HETATM    7  C13 UNL     1     -11.560  71.780 117.412  1.00  0.00     0.173 C 
BRANCH   7   8
HETATM    8  O2  UNL     1     -12.072  73.068 117.077  1.00  0.00    -0.391 OA
ATOM      9  H2  UNL     1     -12.815  72.970 116.493  1.00  0.00     0.210 HD
ENDBRANCH   7   8
BRANCH   7  10
HETATM   10  C14 UNL     1     -10.513  71.490 116.413  1.00  0.00     0.205 C 
BRANCH  10  11
HETATM   11  O3  UNL     1     -10.331  70.207 116.007  1.00  0.00    -0.361 OA
BRANCH  11  12
HETATM   12  C15 UNL     1      -9.081  69.885 115.561  1.00  0.00     0.251 C 
HETATM   13  N2  UNL     1      -8.651  68.798 116.466  1.00  0.00    -0.374 N 
HETATM   14  C16 UNL     1      -9.042  67.601 116.239  1.00  0.00     0.060 C 
ATOM     15  H2  UNL     1      -8.049  69.000 117.264  1.00  0.00     0.161 HD
HETATM   16  C17 UNL     1      -9.912  67.179 115.122  1.00  0.00     0.078 C 
HETATM   17  C18 UNL     1     -10.141  68.234 114.085  1.00  0.00     0.156 C 
HETATM   18  C19 UNL     1      -9.013  69.242 114.200  1.00  0.00     0.195 C 
BRANCH  17  19
HETATM   19  O4  UNL     1     -11.390  68.785 114.220  1.00  0.00    -0.393 OA
ATOM     20  H4  UNL     1     -11.577  69.374 113.499  1.00  0.00     0.210 HD
ENDBRANCH  17  19
BRANCH  18  21
HETATM   21  O5  UNL     1      -8.980  70.106 113.140  1.00  0.00    -0.389 OA
ATOM     22  H5  UNL     1      -9.695  70.729 113.096  1.00  0.00     0.210 HD
ENDBRANCH  18  21
ENDBRANCH  11  12
ENDBRANCH  10  11
ENDBRANCH   7  10
ENDBRANCH   3   7
BRANCH   4  23
HETATM   23  O6  UNL     1     -10.105  69.610 119.178  1.00  0.00    -0.390 OA
ATOM     24  H6  UNL     1      -9.899  69.138 118.380  1.00  0.00     0.210 HD
ENDBRANCH   4  23
BRANCH   1  25
HETATM   25  C10 UNL     1      -9.712  74.967 119.783  1.00  0.00    -0.011 A 
HETATM   26  C9  UNL     1      -8.604  75.779 119.584  1.00  0.00     0.097 A 
HETATM   27  N1  UNL     1      -8.645  77.086 119.919  1.00  0.00    -0.374 N 
HETATM   28  C8  UNL     1      -9.744  77.650 120.451  1.00  0.00     0.094 A 
ATOM     29  H1  UNL     1      -7.818  77.663 119.764  1.00  0.00     0.164 HD
HETATM   30  C7  UNL     1     -10.877  76.888 120.671  1.00  0.00    -0.042 A 
HETATM   31  C23 UNL     1     -10.836  75.549 120.328  1.00  0.00     0.019 A 
BRANCH  30  32
HETATM   32  C6  UNL     1     -12.115  77.461 121.256  1.00  0.00     0.040 C 
BRANCH  32  33
HETATM   33  C5  UNL     1     -13.257  77.222 120.286  1.00  0.00     0.005 C 
BRANCH  33  34
HETATM   34  C4  UNL     1     -13.248  78.202 119.155  1.00  0.00     0.000 C 
BRANCH  34  35
HETATM   35  C3  UNL     1     -13.113  77.531 117.813  1.00  0.00    -0.000 C 
BRANCH  35  36
HETATM   36  C2  UNL     1     -11.773  77.810 117.219  1.00  0.00    -0.005 C 
HETATM   37  C1  UNL     1     -11.201  76.480 116.744  1.00  0.00     0.005 C 
ENDBRANCH  35  36
ENDBRANCH  34  35
ENDBRANCH  33  34
ENDBRANCH  32  33
ENDBRANCH  30  32
ENDBRANCH   1  25
BRANCH   5  38
HETATM   38  O7  UNL     1     -10.421  71.178 121.320  1.00  0.00    -0.390 OA
ATOM     39  H7  UNL     1     -10.053  71.143 122.196  1.00  0.00     0.210 HD
ENDBRANCH   5  38
BRANCH   6  40
HETATM   40  O8  UNL     1      -9.326  73.315 121.752  1.00  0.00    -0.390 OA
ATOM     41  H8  UNL     1      -8.829  74.099 121.951  1.00  0.00     0.210 HD
ENDBRANCH   6  40
TORSDOF 16
ENDMDL
MODEL 2
REMARK VINA RESULT: -6.802695017      1.346      2.202
REMARK  16 active torsions:
REMARK  status: ('A' for Active; 'I' for Inactive)
REMARK    1  A    between atoms: C2_2  and  C3_3 
REMARK    2  A    between atoms: C3_3  and  C4_4 
REMARK    3  A    between atoms: C4_4  and  C5_5 
REMARK    4  A    between atoms: C5_5  and  C6_6 
REMARK    5  A    between atoms: C6_6  and  C7_7 
REMARK    6  A    between atoms: C10_12  and  C11_13 
REMARK    7  A    between atoms: C12_15  and  C13_16 
REMARK    8  A    between atoms: C13_16  and  O2_17 
REMARK    9  A    between atoms: C13_16  and  C14_19 
REMARK   10  A    between atoms: C14_19  and  O3_20 
REMARK   11  A    between atoms: O3_20  and  C15_21 
REMARK   12  A    between atoms: C18_26  and  O4_27 
REMARK   13  A    between atoms: C19_29  and  O5_30 
REMARK   14  A    between atoms: C20_32  and  O6_33 
REMARK   15  A    between atoms: C21_35  and  O7_36 
REMARK   16  A    between atoms: C22_38  and  O8_39 
ROOT
HETATM    1  C11 UNL     1      -9.701  73.555 119.300  1.00  0.00     0.188 C 
HETATM    2  O1  UNL     1     -10.993  73.142 119.123  1.00  0.00    -0.368 OA
HETATM    3  C12 UNL     1     -11.148  71.816 118.754  1.00  0.00     0.184 C 
HETATM    4  C20 UNL     1      -9.896  71.008 118.996  1.00  0.00     0.181 C 
HETATM    5  C21 UNL     1      -9.390  71.406 120.393  1.00  0.00     0.181 C 
HETATM    6  C22 UNL     1      -8.978  72.853 120.425  1.00  0.00     0.183 C 
ENDROOT
BRANCH   3   7
HETATM    7  C13 UNL     1     -11.598  71.796 117.319  1.00  0.00     0.173 C 
BRANCH   7   8
HETATM    8  O2  UNL     1     -12.102  73.081 116.963  1.00  0.00    -0.391 OA
ATOM      9  H2  UNL     1     -12.420  73.059 116.067  1.00  0.00     0.210 HD
ENDBRANCH   7   8
BRANCH   7  10
HETATM   10  C14 UNL     1     -10.547  71.486 116.330  1.00  0.00     0.205 C 
BRANCH  10  11
HETATM   11  O3  UNL     1     -10.349  70.193 115.967  1.00  0.00    -0.361 OA
BRANCH  11  12
HETATM   12  C15 UNL     1      -9.097  69.873 115.527  1.00  0.00     0.251 C 
HETATM   13  N2  UNL     1      -8.669  68.787 116.434  1.00  0.00    -0.374 N 
HETATM   14  C16 UNL     1      -9.057  67.589 116.205  1.00  0.00     0.060 C 
ATOM     15  H2  UNL     1      -8.071  68.990 117.234  1.00  0.00     0.161 HD
HETATM   16  C17 UNL     1      -9.920  67.167 115.083  1.00  0.00     0.078 C 
HETATM   17  C18 UNL     1     -10.146  68.221 114.045  1.00  0.00     0.156 C 
HETATM   18  C19 UNL     1      -9.021  69.231 114.166  1.00  0.00     0.195 C 
BRANCH  17  19
HETATM   19  O4  UNL     1     -11.397  68.770 114.175  1.00  0.00    -0.393 OA
ATOM     20  H4  UNL     1     -11.352  69.718 114.142  1.00  0.00     0.210 HD
ENDBRANCH  17  19
BRANCH  18  21
HETATM   21  O5  UNL     1      -8.984  70.095 113.106  1.00  0.00    -0.389 OA
ATOM     22  H5  UNL     1      -9.565  69.884 112.384  1.00  0.00     0.210 HD
ENDBRANCH  18  21
ENDBRANCH  11  12
ENDBRANCH  10  11
ENDBRANCH   7  10
ENDBRANCH   3   7
BRANCH   4  23
HETATM   23  O6  UNL     1     -10.163  69.645 119.125  1.00  0.00    -0.390 OA
ATOM     24  H6  UNL     1     -10.247  69.380 120.033  1.00  0.00     0.210 HD
ENDBRANCH   4  23
BRANCH   1  25
HETATM   25  C10 UNL     1      -9.750  75.009 119.654  1.00  0.00    -0.011 A 
HETATM   26  C9  UNL     1      -8.573  75.733 119.790  1.00  0.00     0.097 A 
HETATM   27  N1  UNL     1      -8.610  77.044 120.108  1.00  0.00    -0.374 N 
HETATM   28  C8  UNL     1      -9.769  77.697 120.303  1.00  0.00     0.094 A 
ATOM     29  H1  UNL     1      -7.732  77.555 120.203  1.00  0.00     0.164 HD
HETATM   30  C7  UNL     1     -10.972  77.025 120.181  1.00  0.00    -0.042 A 
HETATM   31  C23 UNL     1     -10.936  75.681 119.855  1.00  0.00     0.019 A 
BRANCH  30  32
HETATM   32  C6  UNL     1     -12.279  77.698 120.387  1.00  0.00     0.040 C 
BRANCH  32  33
HETATM   33  C5  UNL     1     -12.678  77.534 121.842  1.00  0.00     0.005 C 
BRANCH  33  34
HETATM   34  C4  UNL     1     -14.082  77.987 122.094  1.00  0.00     0.000 C 
BRANCH  34  35
HETATM   35  C3  UNL     1     -14.140  79.302 122.826  1.00  0.00    -0.000 C 
BRANCH  35  36
HETATM   36  C2  UNL     1     -14.870  80.321 122.016  1.00  0.00    -0.005 C 
HETATM   37  C1  UNL     1     -14.990  81.578 122.868  1.00  0.00     0.005 C 
ENDBRANCH  35  36
ENDBRANCH  34  35
ENDBRANCH  33  34
ENDBRANCH  32  33
ENDBRANCH  30  32
ENDBRANCH   1  25
BRANCH   5  38
HETATM   38  O7  UNL     1     -10.484  71.245 121.242  1.00  0.00    -0.390 OA
ATOM     39  H7  UNL     1     -10.320  70.437 121.715  1.00  0.00     0.210 HD
ENDBRANCH   5  38
BRANCH   6  40
HETATM   40  O8  UNL     1      -9.383  73.384 121.649  1.00  0.00    -0.390 OA
ATOM     41  H8  UNL     1      -9.537  72.680 122.268  1.00  0.00     0.210 HD
ENDBRANCH   6  40
TORSDOF 16
ENDMDL
MODEL 3
REMARK VINA RESULT: -6.775736592      2.933      4.627
REMARK  16 active torsions:
REMARK  status: ('A' for Active; 'I' for Inactive)
REMARK    1  A    between atoms: C2_2  and  C3_3 
REMARK    2  A    between atoms: C3_3  and  C4_4 
REMARK    3  A    between atoms: C4_4  and  C5_5 
REMARK    4  A    between atoms: C5_5  and  C6_6 
REMARK    5  A    between atoms: C6_6  and  C7_7 
REMARK    6  A    between atoms: C10_12  and  C11_13 
REMARK    7  A    between atoms: C12_15  and  C13_16 
REMARK    8  A    between atoms: C13_16  and  O2_17 
REMARK    9  A    between atoms: C13_16  and  C14_19 
REMARK   10  A    between atoms: C14_19  and  O3_20 
REMARK   11  A    between atoms: O3_20  and  C15_21 
REMARK   12  A    between atoms: C18_26  and  O4_27 
REMARK   13  A    between atoms: C19_29  and  O5_30 
REMARK   14  A    between atoms: C20_32  and  O6_33 
REMARK   15  A    between atoms: C21_35  and  O7_36 
REMARK   16  A    between atoms: C22_38  and  O8_39 
ROOT
HETATM    1  C11 UNL     1     -11.386  76.654 119.620  1.00  0.00     0.188 C 
HETATM    2  O1  UNL     1     -11.378  75.489 120.336  1.00  0.00    -0.368 OA
HETATM    3  C12 UNL     1     -10.398  74.578 119.978  1.00  0.00     0.184 C 
HETATM    4  C20 UNL     1      -9.312  75.211 119.142  1.00  0.00     0.181 C 
HETATM    5  C21 UNL     1      -8.966  76.546 119.825  1.00  0.00     0.181 C 
HETATM    6  C22 UNL     1     -10.138  77.489 119.787  1.00  0.00     0.183 C 
ENDROOT
BRANCH   3   7
HETATM    7  C13 UNL     1     -11.079  73.427 119.291  1.00  0.00     0.173 C 
BRANCH   7   8
HETATM    8  O2  UNL     1     -10.574  73.301 117.964  1.00  0.00    -0.391 OA
ATOM      9  H2  UNL     1     -11.243  73.569 117.345  1.00  0.00     0.210 HD
ENDBRANCH   7   8
BRANCH   7  10
HETATM   10  C14 UNL     1     -10.886  72.107 119.924  1.00  0.00     0.205 C 
BRANCH  10  11
HETATM   11  O3  UNL     1     -10.417  71.081 119.168  1.00  0.00    -0.361 OA
BRANCH  11  12
HETATM   12  C15 UNL     1      -9.115  70.724 119.373  1.00  0.00     0.251 C 
HETATM   13  N2  UNL     1      -9.188  69.284 119.700  1.00  0.00    -0.374 N 
HETATM   14  C16 UNL     1      -9.275  68.430 118.751  1.00  0.00     0.060 C 
ATOM     15  H2  UNL     1      -9.171  68.975 120.671  1.00  0.00     0.161 HD
HETATM   16  C17 UNL     1      -9.309  68.749 117.309  1.00  0.00     0.078 C 
HETATM   17  C18 UNL     1      -8.992  70.175 116.984  1.00  0.00     0.156 C 
HETATM   18  C19 UNL     1      -8.225  70.753 118.158  1.00  0.00     0.195 C 
BRANCH  17  19
HETATM   19  O4  UNL     1     -10.136  70.868 116.677  1.00  0.00    -0.393 OA
ATOM     20  H4  UNL     1     -10.260  71.593 117.277  1.00  0.00     0.210 HD
ENDBRANCH  17  19
BRANCH  18  21
HETATM   21  O5  UNL     1      -7.666  71.966 117.864  1.00  0.00    -0.389 OA
ATOM     22  H5  UNL     1      -6.898  72.199 118.374  1.00  0.00     0.210 HD
ENDBRANCH  18  21
ENDBRANCH  11  12
ENDBRANCH  10  11
ENDBRANCH   7  10
ENDBRANCH   3   7
BRANCH   4  23
HETATM   23  O6  UNL     1      -8.114  74.498 119.204  1.00  0.00    -0.390 OA
ATOM     24  H6  UNL     1      -7.761  74.313 118.342  1.00  0.00     0.210 HD
ENDBRANCH   4  23
BRANCH   1  25
HETATM   25  C10 UNL     1     -12.530  77.475 120.131  1.00  0.00    -0.011 A 
HETATM   26  C9  UNL     1     -12.843  77.468 121.483  1.00  0.00     0.097 A 
HETATM   27  N1  UNL     1     -13.872  78.206 121.950  1.00  0.00    -0.374 N 
HETATM   28  C8  UNL     1     -14.627  78.969 121.140  1.00  0.00     0.094 A 
ATOM     29  H1  UNL     1     -14.084  78.185 122.948  1.00  0.00     0.164 HD
HETATM   30  C7  UNL     1     -14.360  79.014 119.784  1.00  0.00    -0.042 A 
HETATM   31  C23 UNL     1     -13.305  78.258 119.303  1.00  0.00     0.019 A 
BRANCH  30  32
HETATM   32  C6  UNL     1     -15.162  79.839 118.845  1.00  0.00     0.040 C 
BRANCH  32  33
HETATM   33  C5  UNL     1     -16.270  80.516 119.630  1.00  0.00     0.005 C 
BRANCH  33  34
HETATM   34  C4  UNL     1     -16.301  81.994 119.397  1.00  0.00     0.000 C 
BRANCH  34  35
HETATM   35  C3  UNL     1     -15.532  82.758 120.442  1.00  0.00    -0.000 C 
BRANCH  35  36
HETATM   36  C2  UNL     1     -15.976  82.366 121.812  1.00  0.00    -0.005 C 
HETATM   37  C1  UNL     1     -14.804  82.602 122.755  1.00  0.00     0.005 C 
ENDBRANCH  35  36
ENDBRANCH  34  35
ENDBRANCH  33  34
ENDBRANCH  32  33
ENDBRANCH  30  32
ENDBRANCH   1  25
BRANCH   5  38
HETATM   38  O7  UNL     1      -8.707  76.225 121.156  1.00  0.00    -0.390 OA
ATOM     39  H7  UNL     1      -8.066  76.862 121.449  1.00  0.00     0.210 HD
ENDBRANCH   5  38
BRANCH   6  40
HETATM   40  O8  UNL     1     -10.182  78.163 121.006  1.00  0.00    -0.390 OA
ATOM     41  H8  UNL     1      -9.451  78.767 121.065  1.00  0.00     0.210 HD
ENDBRANCH   6  40
TORSDOF 16
ENDMDL
MODEL 4
REMARK VINA RESULT: -6.742503237      2.565      4.269
REMARK  16 active torsions:
REMARK  status: ('A' for Active; 'I' for Inactive)
REMARK    1  A    between atoms: C2_2  and  C3_3 
REMARK    2  A    between atoms: C3_3  and  C4_4 
REMARK    3  A    between atoms: C4_4  and  C5_5 
REMARK    4  A    between atoms: C5_5  and  C6_6 
REMARK    5  A    between atoms: C6_6  and  C7_7 
REMARK    6  A    between atoms: C10_12  and  C11_13 
REMARK    7  A    between atoms: C12_15  and  C13_16 
REMARK    8  A    between atoms: C13_16  and  O2_17 
REMARK    9  A    between atoms: C13_16  and  C14_19 
REMARK   10  A    between atoms: C14_19  and  O3_20 
REMARK   11  A    between atoms: O3_20  and  C15_21 
REMARK   12  A    between atoms: C18_26  and  O4_27 
REMARK   13  A    between atoms: C19_29  and  O5_30 
REMARK   14  A    between atoms: C20_32  and  O6_33 
REMARK   15  A    between atoms: C21_35  and  O7_36 
REMARK   16  A    between atoms: C22_38  and  O8_39 
ROOT
HETATM    1  C11 UNL     1      -9.465  73.731 119.293  1.00  0.00     0.188 C 
HETATM    2  O1  UNL     1     -10.757  73.429 118.962  1.00  0.00    -0.368 OA
HETATM    3  C12 UNL     1     -10.967  72.141 118.497  1.00  0.00     0.184 C 
HETATM    4  C20 UNL     1      -9.807  71.227 118.812  1.00  0.00     0.181 C 
HETATM    5  C21 UNL     1      -9.423  71.508 120.275  1.00  0.00     0.181 C 
HETATM    6  C22 UNL     1      -8.915  72.914 120.439  1.00  0.00     0.183 C 
ENDROOT
BRANCH   3   7
HETATM    7  C13 UNL     1     -11.266  72.234 117.026  1.00  0.00     0.173 C 
BRANCH   7   8
HETATM    8  O2  UNL     1     -10.670  71.129 116.351  1.00  0.00    -0.391 OA
ATOM      9  H2  UNL     1     -10.120  71.449 115.645  1.00  0.00     0.210 HD
ENDBRANCH   7   8
BRANCH   7  10
HETATM   10  C14 UNL     1     -12.697  72.202 116.667  1.00  0.00     0.205 C 
BRANCH  10  11
HETATM   11  O3  UNL     1     -13.622  72.177 117.662  1.00  0.00    -0.361 OA
BRANCH  11  12
HETATM   12  C15 UNL     1     -14.061  73.390 118.110  1.00  0.00     0.251 C 
HETATM   13  N2  UNL     1     -15.345  73.585 117.404  1.00  0.00    -0.374 N 
HETATM   14  C16 UNL     1     -16.404  73.031 117.864  1.00  0.00     0.060 C 
ATOM     15  H2  UNL     1     -15.388  74.155 116.560  1.00  0.00     0.161 HD
HETATM   16  C17 UNL     1     -16.473  72.185 119.073  1.00  0.00     0.078 C 
HETATM   17  C18 UNL     1     -15.230  72.194 119.906  1.00  0.00     0.156 C 
HETATM   18  C19 UNL     1     -14.457  73.452 119.562  1.00  0.00     0.195 C 
BRANCH  17  19
HETATM   19  O4  UNL     1     -14.514  71.038 119.720  1.00  0.00    -0.393 OA
ATOM     20  H4  UNL     1     -13.953  70.867 120.468  1.00  0.00     0.210 HD
ENDBRANCH  17  19
BRANCH  18  21
HETATM   21  O5  UNL     1     -13.437  73.690 120.442  1.00  0.00    -0.389 OA
ATOM     22  H5  UNL     1     -13.430  73.144 121.220  1.00  0.00     0.210 HD
ENDBRANCH  18  21
ENDBRANCH  11  12
ENDBRANCH  10  11
ENDBRANCH   7  10
ENDBRANCH   3   7
BRANCH   4  23
HETATM   23  O6  UNL     1     -10.183  69.883 118.829  1.00  0.00    -0.390 OA
ATOM     24  H6  UNL     1     -10.529  69.618 119.673  1.00  0.00     0.210 HD
ENDBRANCH   4  23
BRANCH   1  25
HETATM   25  C10 UNL     1      -9.447  75.162 119.730  1.00  0.00    -0.011 A 
HETATM   26  C9  UNL     1      -8.246  75.856 119.793  1.00  0.00     0.097 A 
HETATM   27  N1  UNL     1      -8.223  77.148 120.185  1.00  0.00    -0.374 N 
HETATM   28  C8  UNL     1      -9.343  77.808 120.526  1.00  0.00     0.094 A 
ATOM     29  H1  UNL     1      -7.328  77.637 120.224  1.00  0.00     0.164 HD
HETATM   30  C7  UNL     1     -10.567  77.167 120.482  1.00  0.00    -0.042 A 
HETATM   31  C23 UNL     1     -10.593  75.843 120.080  1.00  0.00     0.019 A 
BRANCH  30  32
HETATM   32  C6  UNL     1     -11.833  77.849 120.849  1.00  0.00     0.040 C 
BRANCH  32  33
HETATM   33  C5  UNL     1     -12.789  77.746 119.675  1.00  0.00     0.005 C 
BRANCH  33  34
HETATM   34  C4  UNL     1     -12.398  78.653 118.551  1.00  0.00     0.000 C 
BRANCH  34  35
HETATM   35  C3  UNL     1     -12.562  78.003 117.202  1.00  0.00    -0.000 C 
BRANCH  35  36
HETATM   36  C2  UNL     1     -11.285  77.363 116.770  1.00  0.00    -0.005 C 
HETATM   37  C1  UNL     1     -11.585  75.898 116.479  1.00  0.00     0.005 C 
ENDBRANCH  35  36
ENDBRANCH  34  35
ENDBRANCH  33  34
ENDBRANCH  32  33
ENDBRANCH  30  32
ENDBRANCH   1  25
BRANCH   5  38
HETATM   38  O7  UNL     1     -10.608  71.385 120.999  1.00  0.00    -0.390 OA
ATOM     39  H7  UNL     1     -10.419  70.763 121.691  1.00  0.00     0.210 HD
ENDBRANCH   5  38
BRANCH   6  40
HETATM   40  O8  UNL     1      -9.406  73.407 121.646  1.00  0.00    -0.390 OA
ATOM     41  H8  UNL     1      -8.687  73.727 122.178  1.00  0.00     0.210 HD
ENDBRANCH   6  40
TORSDOF 16
ENDMDL
MODEL 5
REMARK VINA RESULT: -6.714014161      2.515      9.081
REMARK  16 active torsions:
REMARK  status: ('A' for Active; 'I' for Inactive)
REMARK    1  A    between atoms: C2_2  and  C3_3 
REMARK    2  A    between atoms: C3_3  and  C4_4 
REMARK    3  A    between atoms: C4_4  and  C5_5 
REMARK    4  A    between atoms: C5_5  and  C6_6 
REMARK    5  A    between atoms: C6_6  and  C7_7 
REMARK    6  A    between atoms: C10_12  and  C11_13 
REMARK    7  A    between atoms: C12_15  and  C13_16 
REMARK    8  A    between atoms: C13_16  and  O2_17 
REMARK    9  A    between atoms: C13_16  and  C14_19 
REMARK   10  A    between atoms: C14_19  and  O3_20 
REMARK   11  A    between atoms: O3_20  and  C15_21 
REMARK   12  A    between atoms: C18_26  and  O4_27 
REMARK   13  A    between atoms: C19_29  and  O5_30 
REMARK   14  A    between atoms: C20_32  and  O6_33 
REMARK   15  A    between atoms: C21_35  and  O7_36 
REMARK   16  A    between atoms: C22_38  and  O8_39 
ROOT
HETATM    1  C11 UNL     1      -9.831  70.268 117.843  1.00  0.00     0.188 C 
HETATM    2  O1  UNL     1     -10.464  71.445 117.551  1.00  0.00    -0.368 OA
HETATM    3  C12 UNL     1     -10.690  72.283 118.632  1.00  0.00     0.184 C 
HETATM    4  C20 UNL     1      -9.858  71.899 119.831  1.00  0.00     0.181 C 
HETATM    5  C21 UNL     1      -8.440  71.626 119.301  1.00  0.00     0.181 C 
HETATM    6  C22 UNL     1      -8.429  70.438 118.378  1.00  0.00     0.183 C 
ENDROOT
BRANCH   3   7
HETATM    7  C13 UNL     1     -12.168  72.273 118.909  1.00  0.00     0.173 C 
BRANCH   7   8
HETATM    8  O2  UNL     1     -12.398  71.823 120.242  1.00  0.00    -0.391 OA
ATOM      9  H2  UNL     1     -13.315  71.600 120.346  1.00  0.00     0.210 HD
ENDBRANCH   7   8
BRANCH   7  10
HETATM   10  C14 UNL     1     -12.840  73.584 118.804  1.00  0.00     0.205 C 
BRANCH  10  11
HETATM   11  O3  UNL     1     -12.281  74.658 119.418  1.00  0.00    -0.361 OA
BRANCH  11  12
HETATM   12  C15 UNL     1     -11.627  75.544 118.610  1.00  0.00     0.251 C 
HETATM   13  N2  UNL     1     -12.553  76.693 118.521  1.00  0.00    -0.374 N 
HETATM   14  C16 UNL     1     -12.569  77.560 119.461  1.00  0.00     0.060 C 
ATOM     15  H2  UNL     1     -13.173  76.793 117.718  1.00  0.00     0.161 HD
HETATM   16  C17 UNL     1     -11.724  77.528 120.672  1.00  0.00     0.078 C 
HETATM   17  C18 UNL     1     -10.631  76.506 120.637  1.00  0.00     0.156 C 
HETATM   18  C19 UNL     1     -10.376  76.158 119.183  1.00  0.00     0.195 C 
BRANCH  17  19
HETATM   19  O4  UNL     1     -10.955  75.423 121.415  1.00  0.00    -0.393 OA
ATOM     20  H4  UNL     1     -10.279  75.261 122.062  1.00  0.00     0.210 HD
ENDBRANCH  17  19
BRANCH  18  21
HETATM   21  O5  UNL     1      -9.231  75.428 119.018  1.00  0.00    -0.389 OA
ATOM     22  H5  UNL     1      -8.433  75.934 118.919  1.00  0.00     0.210 HD
ENDBRANCH  18  21
ENDBRANCH  11  12
ENDBRANCH  10  11
ENDBRANCH   7  10
ENDBRANCH   3   7
BRANCH   4  23
HETATM   23  O6  UNL     1      -9.674  72.968 120.710  1.00  0.00    -0.390 OA
ATOM     24  H6  UNL     1      -9.303  73.728 120.278  1.00  0.00     0.210 HD
ENDBRANCH   4  23
BRANCH   1  25
HETATM   25  C10 UNL     1      -9.718  69.502 116.561  1.00  0.00    -0.011 A 
HETATM   26  C9  UNL     1     -10.133  70.076 115.367  1.00  0.00     0.097 A 
HETATM   27  N1  UNL     1     -10.033  69.391 114.208  1.00  0.00    -0.374 N 
HETATM   28  C8  UNL     1      -9.534  68.144 114.160  1.00  0.00     0.094 A 
ATOM     29  H1  UNL     1     -10.345  69.834 113.343  1.00  0.00     0.164 HD
HETATM   30  C7  UNL     1      -9.106  67.523 115.319  1.00  0.00    -0.042 A 
HETATM   31  C23 UNL     1      -9.208  68.223 116.507  1.00  0.00     0.019 A 
BRANCH  30  32
HETATM   32  C6  UNL     1      -8.548  66.147 115.321  1.00  0.00     0.040 C 
BRANCH  32  33
HETATM   33  C5  UNL     1      -7.458  66.071 114.268  1.00  0.00     0.005 C 
BRANCH  33  34
HETATM   34  C4  UNL     1      -7.188  64.663 113.839  1.00  0.00     0.000 C 
BRANCH  34  35
HETATM   35  C3  UNL     1      -7.335  63.678 114.969  1.00  0.00    -0.000 C 
BRANCH  35  36
HETATM   36  C2  UNL     1      -6.004  63.138 115.372  1.00  0.00    -0.005 C 
HETATM   37  C1  UNL     1      -6.106  62.719 116.833  1.00  0.00     0.005 C 
ENDBRANCH  35  36
ENDBRANCH  34  35
ENDBRANCH  33  34
ENDBRANCH  32  33
ENDBRANCH  30  32
ENDBRANCH   1  25
BRANCH   5  38
HETATM   38  O7  UNL     1      -8.097  72.757 118.562  1.00  0.00    -0.390 OA
ATOM     39  H7  UNL     1      -7.539  73.273 119.133  1.00  0.00     0.210 HD
ENDBRANCH   5  38
BRANCH   6  40
HETATM   40  O8  UNL     1      -7.555  70.722 117.329  1.00  0.00    -0.390 OA
ATOM     41  H8  UNL     1      -7.883  70.335 116.526  1.00  0.00     0.210 HD
ENDBRANCH   6  40
TORSDOF 16
ENDMDL
