MODEL 1
REMARK VINA RESULT: -7.092292695      0.000      0.000
REMARK  7 active torsions:
REMARK  status: ('A' for Active; 'I' for Inactive)
REMARK    1  A    between atoms: N1_2  and  N2_3 
REMARK    2  A    between atoms: N1_2  and  S1_20 
REMARK    3  A    between atoms: N2_3  and  C2_5 
REMARK    4  A    between atoms: C3_7  and  O2_8 
REMARK    5  A    between atoms: C4_10  and  C5_11 
REMARK       I    between atoms: C5_11  and  N3_13 
REMARK    6  A    between atoms: N3_13  and  N4_15 
REMARK    7  A    between atoms: S1_20  and  N6_21 
ROOT
HETATM    1  C2  UNL     1      28.203  48.193   8.675  1.00  0.00     0.187 A 
HETATM    2  O1  UNL     1      27.196  47.530   9.163  1.00  0.00    -0.267 OA
HETATM    3  C3  UNL     1      26.726  46.669   8.337  1.00  0.00     0.203 A 
HETATM    4  C4  UNL     1      27.502  46.757   7.157  1.00  0.00     0.120 A 
HETATM    5  C6  UNL     1      28.443  47.731   7.378  1.00  0.00     0.119 A 
HETATM    6  N5  UNL     1      29.481  48.239   6.535  1.00  0.00    -0.097 NA
ENDROOT
BRANCH   1   7
HETATM    7  N2  UNL     1      28.957  49.212   9.311  1.00  0.00    -0.283 N 
ATOM      8  H2  UNL     1      28.974  50.150   8.910  1.00  0.00     0.184 HD
BRANCH   7   9
HETATM    9  N1  UNL     1      29.668  48.949  10.470  1.00  0.00    -0.106 NA
HETATM   10  C1  UNL     1      30.371  50.196  10.806  1.00  0.00     0.158 C 
BRANCH   9  11
HETATM   11  S1  UNL     1      30.854  47.713  10.204  1.00  0.00     0.313 S 
HETATM   12  O4  UNL     1      31.915  47.737  11.278  1.00  0.00    -0.187 OA
HETATM   13  O5  UNL     1      30.195  46.374  10.224  1.00  0.00    -0.187 OA
BRANCH  11  14
HETATM   14  N6  UNL     1      31.667  47.924   8.696  1.00  0.00    -0.314 N 
ATOM     15  H62 UNL     1      32.406  48.612   8.549  1.00  0.00     0.170 HD
ATOM     16  H61 UNL     1      31.316  47.281   7.986  1.00  0.00     0.170 HD
ENDBRANCH  11  14
ENDBRANCH   9  11
ENDBRANCH   7   9
ENDBRANCH   1   7
BRANCH   3  17
HETATM   17  O2  UNL     1      25.665  45.772   8.472  1.00  0.00    -0.340 OA
ATOM     18  H2  UNL     1      24.989  45.520   7.853  1.00  0.00     0.220 HD
ENDBRANCH   3  17
BRANCH   4  19
HETATM   19  C5  UNL     1      27.327  45.968   5.979  1.00  0.00     0.276 C 
HETATM   20  O3  UNL     1      26.697  44.856   6.092  1.00  0.00    -0.266 OA
HETATM   21  N3  UNL     1      27.782  46.293   4.708  1.00  0.00    -0.272 N 
ATOM     22  H3  UNL     1      28.288  47.167   4.566  1.00  0.00     0.189 HD
BRANCH  21  23
HETATM   23  N4  UNL     1      27.554  45.427   3.594  1.00  0.00    -0.342 N 
ATOM     24  H42 UNL     1      26.800  44.742   3.658  1.00  0.00     0.176 HD
ATOM     25  H41 UNL     1      28.126  45.486   2.751  1.00  0.00     0.176 HD
ENDBRANCH  21  23
ENDBRANCH   4  19
TORSDOF 7
ENDMDL
MODEL 2
REMARK VINA RESULT: -6.924858022      5.112      6.844
REMARK  7 active torsions:
REMARK  status: ('A' for Active; 'I' for Inactive)
REMARK    1  A    between atoms: N1_2  and  N2_3 
REMARK    2  A    between atoms: N1_2  and  S1_20 
REMARK    3  A    between atoms: N2_3  and  C2_5 
REMARK    4  A    between atoms: C3_7  and  O2_8 
REMARK    5  A    between atoms: C4_10  and  C5_11 
REMARK       I    between atoms: C5_11  and  N3_13 
REMARK    6  A    between atoms: N3_13  and  N4_15 
REMARK    7  A    between atoms: S1_20  and  N6_21 
ROOT
HETATM    1  C2  UNL     1      29.755  43.279   3.631  1.00  0.00     0.187 A 
HETATM    2  O1  UNL     1      30.685  42.394   3.420  1.00  0.00    -0.267 OA
HETATM    3  C3  UNL     1      30.212  41.264   3.040  1.00  0.00     0.203 A 
HETATM    4  C4  UNL     1      28.804  41.398   2.987  1.00  0.00     0.120 A 
HETATM    5  C6  UNL     1      28.518  42.686   3.365  1.00  0.00     0.119 A 
HETATM    6  N5  UNL     1      27.267  43.368   3.494  1.00  0.00    -0.097 NA
ENDROOT
BRANCH   1   7
HETATM    7  N2  UNL     1      29.920  44.622   4.055  1.00  0.00    -0.283 N 
ATOM      8  H2  UNL     1      29.608  45.383   3.452  1.00  0.00     0.184 HD
BRANCH   7   9
HETATM    9  N1  UNL     1      30.501  44.912   5.279  1.00  0.00    -0.106 NA
HETATM   10  C1  UNL     1      29.390  45.203   6.197  1.00  0.00     0.158 C 
BRANCH   9  11
HETATM   11  S1  UNL     1      31.501  46.324   5.174  1.00  0.00     0.313 S 
HETATM   12  O4  UNL     1      30.809  47.526   5.771  1.00  0.00    -0.187 OA
HETATM   13  O5  UNL     1      32.773  46.094   5.919  1.00  0.00    -0.187 OA
BRANCH  11  14
HETATM   14  N6  UNL     1      31.867  46.724   3.535  1.00  0.00    -0.314 N 
ATOM     15  H62 UNL     1      31.542  46.176   2.738  1.00  0.00     0.170 HD
ATOM     16  H61 UNL     1      32.440  47.565   3.472  1.00  0.00     0.170 HD
ENDBRANCH  11  14
ENDBRANCH   9  11
ENDBRANCH   7   9
ENDBRANCH   1   7
BRANCH   3  17
HETATM   17  O2  UNL     1      30.866  40.074   2.716  1.00  0.00    -0.340 OA
ATOM     18  H2  UNL     1      30.551  39.177   2.724  1.00  0.00     0.220 HD
ENDBRANCH   3  17
BRANCH   4  19
HETATM   19  C5  UNL     1      27.881  40.379   2.601  1.00  0.00     0.276 C 
HETATM   20  O3  UNL     1      28.280  39.497   1.759  1.00  0.00    -0.266 OA
HETATM   21  N3  UNL     1      26.576  40.251   3.057  1.00  0.00    -0.272 N 
ATOM     22  H3  UNL     1      26.212  40.926   3.729  1.00  0.00     0.189 HD
BRANCH  21  23
HETATM   23  N4  UNL     1      25.731  39.190   2.603  1.00  0.00    -0.342 N 
ATOM     24  H42 UNL     1      26.020  38.229   2.788  1.00  0.00     0.176 HD
ATOM     25  H41 UNL     1      24.860  39.380   2.107  1.00  0.00     0.176 HD
ENDBRANCH  21  23
ENDBRANCH   4  19
TORSDOF 7
ENDMDL
MODEL 3
REMARK VINA RESULT: -6.903121523      2.795      6.197
REMARK  7 active torsions:
REMARK  status: ('A' for Active; 'I' for Inactive)
REMARK    1  A    between atoms: N1_2  and  N2_3 
REMARK    2  A    between atoms: N1_2  and  S1_20 
REMARK    3  A    between atoms: N2_3  and  C2_5 
REMARK    4  A    between atoms: C3_7  and  O2_8 
REMARK    5  A    between atoms: C4_10  and  C5_11 
REMARK       I    between atoms: C5_11  and  N3_13 
REMARK    6  A    between atoms: N3_13  and  N4_15 
REMARK    7  A    between atoms: S1_20  and  N6_21 
ROOT
HETATM    1  C2  UNL     1      29.625  48.023   6.728  1.00  0.00     0.187 A 
HETATM    2  O1  UNL     1      30.906  48.186   6.569  1.00  0.00    -0.267 OA
HETATM    3  C3  UNL     1      31.438  48.865   7.518  1.00  0.00     0.203 A 
HETATM    4  C4  UNL     1      30.401  49.201   8.422  1.00  0.00     0.120 A 
HETATM    5  C6  UNL     1      29.247  48.660   7.912  1.00  0.00     0.119 A 
HETATM    6  N5  UNL     1      27.904  48.688   8.404  1.00  0.00    -0.097 NA
ENDROOT
BRANCH   1   7
HETATM    7  N2  UNL     1      28.731  47.327   5.876  1.00  0.00    -0.283 N 
ATOM      8  H2  UNL     1      28.389  47.779   5.028  1.00  0.00     0.184 HD
BRANCH   7   9
HETATM    9  N1  UNL     1      28.316  46.041   6.181  1.00  0.00    -0.106 NA
HETATM   10  C1  UNL     1      28.695  45.209   5.030  1.00  0.00     0.158 C 
BRANCH   9  11
HETATM   11  S1  UNL     1      26.594  45.969   6.359  1.00  0.00     0.313 S 
HETATM   12  O4  UNL     1      25.921  47.084   5.594  1.00  0.00    -0.187 OA
HETATM   13  O5  UNL     1      26.089  44.667   5.833  1.00  0.00    -0.187 OA
BRANCH  11  14
HETATM   14  N6  UNL     1      26.116  46.139   8.009  1.00  0.00    -0.314 N 
ATOM     15  H62 UNL     1      26.716  45.888   8.795  1.00  0.00     0.170 HD
ATOM     16  H61 UNL     1      25.172  46.518   8.091  1.00  0.00     0.170 HD
ENDBRANCH  11  14
ENDBRANCH   9  11
ENDBRANCH   7   9
ENDBRANCH   1   7
BRANCH   3  17
HETATM   17  O2  UNL     1      32.763  49.255   7.719  1.00  0.00    -0.340 OA
ATOM     18  H2  UNL     1      33.129  50.104   7.938  1.00  0.00     0.220 HD
ENDBRANCH   3  17
BRANCH   4  19
HETATM   19  C5  UNL     1      30.553  49.949   9.629  1.00  0.00     0.276 C 
HETATM   20  O3  UNL     1      31.515  50.796   9.692  1.00  0.00    -0.266 OA
HETATM   21  N3  UNL     1      29.748  49.845  10.756  1.00  0.00    -0.272 N 
ATOM     22  H3  UNL     1      28.969  49.186  10.755  1.00  0.00     0.189 HD
BRANCH  21  23
HETATM   23  N4  UNL     1      29.990  50.642  11.917  1.00  0.00    -0.342 N 
ATOM     24  H42 UNL     1      30.712  51.362  11.870  1.00  0.00     0.176 HD
ATOM     25  H41 UNL     1      29.458  50.502  12.777  1.00  0.00     0.176 HD
ENDBRANCH  21  23
ENDBRANCH   4  19
TORSDOF 7
ENDMDL
MODEL 4
REMARK VINA RESULT: -6.881496294      3.911      6.928
REMARK  7 active torsions:
REMARK  status: ('A' for Active; 'I' for Inactive)
REMARK    1  A    between atoms: N1_2  and  N2_3 
REMARK    2  A    between atoms: N1_2  and  S1_20 
REMARK    3  A    between atoms: N2_3  and  C2_5 
REMARK    4  A    between atoms: C3_7  and  O2_8 
REMARK    5  A    between atoms: C4_10  and  C5_11 
REMARK       I    between atoms: C5_11  and  N3_13 
REMARK    6  A    between atoms: N3_13  and  N4_15 
REMARK    7  A    between atoms: S1_20  and  N6_21 
ROOT
HETATM    1  C2  UNL     1      28.389  44.446   4.573  1.00  0.00     0.187 A 
HETATM    2  O1  UNL     1      27.108  44.667   4.635  1.00  0.00    -0.267 OA
HETATM    3  C3  UNL     1      26.770  45.317   5.687  1.00  0.00     0.203 A 
HETATM    4  C4  UNL     1      27.955  45.564   6.422  1.00  0.00     0.120 A 
HETATM    5  C6  UNL     1      28.984  45.006   5.706  1.00  0.00     0.119 A 
HETATM    6  N5  UNL     1      30.388  44.952   5.973  1.00  0.00    -0.097 NA
ENDROOT
BRANCH   1   7
HETATM    7  N2  UNL     1      29.100  43.762   3.554  1.00  0.00    -0.283 N 
ATOM      8  H2  UNL     1      29.340  44.252   2.693  1.00  0.00     0.184 HD
BRANCH   7   9
HETATM    9  N1  UNL     1      29.471  42.438   3.716  1.00  0.00    -0.106 NA
HETATM   10  C1  UNL     1      30.636  42.233   2.842  1.00  0.00     0.158 C 
BRANCH   9  11
HETATM   11  S1  UNL     1      28.208  41.371   3.195  1.00  0.00     0.313 S 
HETATM   12  O4  UNL     1      28.709  40.406   2.146  1.00  0.00    -0.187 OA
HETATM   13  O5  UNL     1      27.707  40.582   4.358  1.00  0.00    -0.187 OA
BRANCH  11  14
HETATM   14  N6  UNL     1      26.894  42.237   2.486  1.00  0.00    -0.314 N 
ATOM     15  H62 UNL     1      26.981  43.186   2.120  1.00  0.00     0.170 HD
ATOM     16  H61 UNL     1      26.037  41.685   2.484  1.00  0.00     0.170 HD
ENDBRANCH  11  14
ENDBRANCH   9  11
ENDBRANCH   7   9
ENDBRANCH   1   7
BRANCH   3  17
HETATM   17  O2  UNL     1      25.515  45.747   6.121  1.00  0.00    -0.340 OA
ATOM     18  H2  UNL     1      24.657  45.353   6.010  1.00  0.00     0.220 HD
ENDBRANCH   3  17
BRANCH   4  19
HETATM   19  C5  UNL     1      28.038  46.270   7.661  1.00  0.00     0.276 C 
HETATM   20  O3  UNL     1      28.987  47.122   7.802  1.00  0.00    -0.266 OA
HETATM   21  N3  UNL     1      27.180  46.118   8.742  1.00  0.00    -0.272 N 
ATOM     22  H3  UNL     1      26.409  45.453   8.679  1.00  0.00     0.189 HD
BRANCH  21  23
HETATM   23  N4  UNL     1      27.355  46.875   9.942  1.00  0.00    -0.342 N 
ATOM     24  H42 UNL     1      27.594  47.864   9.860  1.00  0.00     0.176 HD
ATOM     25  H41 UNL     1      27.245  46.446  10.861  1.00  0.00     0.176 HD
ENDBRANCH  21  23
ENDBRANCH   4  19
TORSDOF 7
ENDMDL
MODEL 5
REMARK VINA RESULT: -6.875020187      2.465      5.758
REMARK  7 active torsions:
REMARK  status: ('A' for Active; 'I' for Inactive)
REMARK    1  A    between atoms: N1_2  and  N2_3 
REMARK    2  A    between atoms: N1_2  and  S1_20 
REMARK    3  A    between atoms: N2_3  and  C2_5 
REMARK    4  A    between atoms: C3_7  and  O2_8 
REMARK    5  A    between atoms: C4_10  and  C5_11 
REMARK       I    between atoms: C5_11  and  N3_13 
REMARK    6  A    between atoms: N3_13  and  N4_15 
REMARK    7  A    between atoms: S1_20  and  N6_21 
ROOT
HETATM    1  C2  UNL     1      29.254  46.087   7.948  1.00  0.00     0.187 A 
HETATM    2  O1  UNL     1      29.251  45.265   8.957  1.00  0.00    -0.267 OA
HETATM    3  C3  UNL     1      29.537  45.843  10.065  1.00  0.00     0.203 A 
HETATM    4  C4  UNL     1      29.760  47.211   9.776  1.00  0.00     0.120 A 
HETATM    5  C6  UNL     1      29.578  47.360   8.424  1.00  0.00     0.119 A 
HETATM    6  N5  UNL     1      29.676  48.517   7.588  1.00  0.00    -0.097 NA
ENDROOT
BRANCH   1   7
HETATM    7  N2  UNL     1      28.982  45.788   6.589  1.00  0.00    -0.283 N 
ATOM      8  H2  UNL     1      29.659  46.049   5.871  1.00  0.00     0.184 HD
BRANCH   7   9
HETATM    9  N1  UNL     1      27.810  45.147   6.225  1.00  0.00    -0.106 NA
HETATM   10  C1  UNL     1      27.832  45.064   4.757  1.00  0.00     0.158 C 
BRANCH   9  11
HETATM   11  S1  UNL     1      26.423  46.073   6.695  1.00  0.00     0.313 S 
HETATM   12  O4  UNL     1      26.537  47.503   6.223  1.00  0.00    -0.187 OA
HETATM   13  O5  UNL     1      25.194  45.476   6.094  1.00  0.00    -0.187 OA
BRANCH  11  14
HETATM   14  N6  UNL     1      26.247  46.129   8.411  1.00  0.00    -0.314 N 
ATOM     15  H62 UNL     1      25.400  46.456   8.878  1.00  0.00     0.170 HD
ATOM     16  H61 UNL     1      27.086  45.797   8.887  1.00  0.00     0.170 HD
ENDBRANCH  11  14
ENDBRANCH   9  11
ENDBRANCH   7   9
ENDBRANCH   1   7
BRANCH   3  17
HETATM   17  O2  UNL     1      29.638  45.324  11.357  1.00  0.00    -0.340 OA
ATOM     18  H2  UNL     1      28.965  44.998  11.943  1.00  0.00     0.220 HD
ENDBRANCH   3  17
BRANCH   4  19
HETATM   19  C5  UNL     1      30.097  48.223  10.725  1.00  0.00     0.276 C 
HETATM   20  O3  UNL     1      30.818  47.884  11.732  1.00  0.00    -0.266 OA
HETATM   21  N3  UNL     1      29.714  49.556  10.663  1.00  0.00    -0.272 N 
ATOM     22  H3  UNL     1      29.141  49.876   9.882  1.00  0.00     0.189 HD
BRANCH  21  23
HETATM   23  N4  UNL     1      30.106  50.490  11.672  1.00  0.00    -0.342 N 
ATOM     24  H42 UNL     1      29.937  51.482  11.505  1.00  0.00     0.176 HD
ATOM     25  H41 UNL     1      30.544  50.180  12.540  1.00  0.00     0.176 HD
ENDBRANCH  21  23
ENDBRANCH   4  19
TORSDOF 7
ENDMDL
