MODEL 1
REMARK VINA RESULT: -7.634157390      0.000      0.000
REMARK  6 active torsions:
REMARK  status: ('A' for Active; 'I' for Inactive)
REMARK    1  A    between atoms: N1_1  and  C1_4 
REMARK    2  A    between atoms: C2_7  and  N3_8 
REMARK    3  A    between atoms: C3_11  and  N4_12 
REMARK       I    between atoms: N4_12  and  C4_14 
REMARK    4  A    between atoms: C4_14  and  C5_16 
REMARK    5  A    between atoms: C6_22  and  N7_23 
REMARK    6  A    between atoms: C7_26  and  N8_27 
ROOT
HETATM    1  C1  UNL     1      30.410  47.334   6.634  1.00  0.00     0.679 A 
HETATM    2  N2  UNL     1      29.108  47.063   6.712  1.00  0.00    -0.169 N 
ATOM      3  H2  UNL     1      28.569  47.368   7.523  1.00  0.00     0.186 HD
HETATM    4  C2  UNL     1      28.501  46.378   5.705  1.00  0.00     0.218 A 
HETATM    5  C3  UNL     1      29.205  45.956   4.605  1.00  0.00     0.131 A 
HETATM    6  C7  UNL     1      30.573  46.264   4.568  1.00  0.00     0.145 A 
HETATM    7  N9  UNL     1      31.141  46.943   5.582  1.00  0.00    -0.175 N 
ATOM      8  H9  UNL     1      32.137  47.162   5.549  1.00  0.00     0.186 HD
ENDROOT
BRANCH   5   9
HETATM    9  N4  UNL     1      28.634  45.252   3.511  1.00  0.00    -0.315 N 
HETATM   10  C4  UNL     1      28.741  43.842   3.464  1.00  0.00     0.278 C 
HETATM   11  O3  UNL     1      29.338  43.246   4.390  1.00  0.00    -0.265 OA
ATOM     12  H4  UNL     1      28.151  45.757   2.768  1.00  0.00     0.169 HD
BRANCH  10  13
HETATM   13  C5  UNL     1      28.186  43.040   2.383  1.00  0.00     0.169 A 
HETATM   14  N5  UNL     1      28.496  43.162   1.072  1.00  0.00    -0.233 N 
HETATM   15  O4  UNL     1      27.816  42.288   0.396  1.00  0.00    -0.155 OA
ATOM     16  H5  UNL     1      29.157  43.832   0.680  1.00  0.00     0.197 HD
HETATM   17  N6  UNL     1      27.058  41.578   1.186  1.00  0.00    -0.224 N 
HETATM   18  C6  UNL     1      27.265  42.023   2.439  1.00  0.00     0.155 A 
ATOM     19  H6  UNL     1      26.426  40.827   0.906  1.00  0.00     0.198 HD
BRANCH  18  20
HETATM   20  N7  UNL     1      26.708  41.584   3.508  1.00  0.00    -0.382 N 
ATOM     21  H72 UNL     1      26.806  41.970   4.447  1.00  0.00     0.157 HD
ATOM     22  H71 UNL     1      26.085  40.778   3.561  1.00  0.00     0.157 HD
ENDBRANCH  18  20
ENDBRANCH  10  13
ENDBRANCH   5   9
BRANCH   4  23
HETATM   23  N3  UNL     1      27.112  46.074   5.778  1.00  0.00    -0.095 N 
HETATM   24  O1  UNL     1      26.295  47.009   5.682  1.00  0.00    -0.530 OA
HETATM   25  O2  UNL     1      26.613  44.816   5.948  1.00  0.00    -0.530 OA
ENDBRANCH   4  23
BRANCH   6  26
HETATM   26  N8  UNL     1      31.259  45.875   3.539  1.00  0.00    -0.383 N 
ATOM     27  H82 UNL     1      31.225  44.912   3.205  1.00  0.00     0.157 HD
ATOM     28  H81 UNL     1      31.841  46.564   3.062  1.00  0.00     0.157 HD
ENDBRANCH   6  26
BRANCH   1  29
HETATM   29  N1  UNL     1      30.994  47.990   7.596  1.00  0.00    -0.234 N 
ATOM     30  H12 UNL     1      30.517  48.074   8.494  1.00  0.00     0.174 HD
ATOM     31  H11 UNL     1      31.910  48.409   7.440  1.00  0.00     0.174 HD
ENDBRANCH   1  29
TORSDOF 6
ENDMDL
MODEL 2
REMARK VINA RESULT: -7.449342289      1.831      2.405
REMARK  6 active torsions:
REMARK  status: ('A' for Active; 'I' for Inactive)
REMARK    1  A    between atoms: N1_1  and  C1_4 
REMARK    2  A    between atoms: C2_7  and  N3_8 
REMARK    3  A    between atoms: C3_11  and  N4_12 
REMARK       I    between atoms: N4_12  and  C4_14 
REMARK    4  A    between atoms: C4_14  and  C5_16 
REMARK    5  A    between atoms: C6_22  and  N7_23 
REMARK    6  A    between atoms: C7_26  and  N8_27 
ROOT
HETATM    1  C1  UNL     1      28.506  48.502   8.284  1.00  0.00     0.679 A 
HETATM    2  N2  UNL     1      27.412  47.953   7.758  1.00  0.00    -0.169 N 
ATOM      3  H2  UNL     1      26.513  48.046   8.232  1.00  0.00     0.186 HD
HETATM    4  C2  UNL     1      27.499  47.267   6.585  1.00  0.00     0.218 A 
HETATM    5  C3  UNL     1      28.697  47.128   5.930  1.00  0.00     0.131 A 
HETATM    6  C7  UNL     1      29.821  47.721   6.522  1.00  0.00     0.145 A 
HETATM    7  N9  UNL     1      29.699  48.392   7.683  1.00  0.00    -0.175 N 
ATOM      8  H9  UNL     1      30.521  48.820   8.109  1.00  0.00     0.186 HD
ENDROOT
BRANCH   5   9
HETATM    9  N4  UNL     1      28.857  46.441   4.696  1.00  0.00    -0.315 N 
HETATM   10  C4  UNL     1      29.126  45.052   4.707  1.00  0.00     0.278 C 
HETATM   11  O3  UNL     1      29.215  44.458   5.806  1.00  0.00    -0.265 OA
ATOM     12  H4  UNL     1      28.780  46.944   3.812  1.00  0.00     0.169 HD
BRANCH  10  13
HETATM   13  C5  UNL     1      29.304  44.268   3.493  1.00  0.00     0.169 A 
HETATM   14  N5  UNL     1      30.311  43.396   3.260  1.00  0.00    -0.233 N 
HETATM   15  O4  UNL     1      30.154  42.878   2.080  1.00  0.00    -0.155 OA
ATOM     16  H5  UNL     1      31.069  43.179   3.906  1.00  0.00     0.197 HD
HETATM   17  N6  UNL     1      29.089  43.360   1.500  1.00  0.00    -0.224 N 
HETATM   18  C6  UNL     1      28.532  44.235   2.359  1.00  0.00     0.155 A 
ATOM     19  H6  UNL     1      28.743  43.119   0.571  1.00  0.00     0.198 HD
BRANCH  18  20
HETATM   20  N7  UNL     1      27.466  44.922   2.165  1.00  0.00    -0.382 N 
ATOM     21  H72 UNL     1      27.408  45.843   1.732  1.00  0.00     0.157 HD
ATOM     22  H71 UNL     1      26.522  44.634   2.423  1.00  0.00     0.157 HD
ENDBRANCH  18  20
ENDBRANCH  10  13
ENDBRANCH   5   9
BRANCH   4  23
HETATM   23  N3  UNL     1      26.340  46.669   6.015  1.00  0.00    -0.095 N 
HETATM   24  O1  UNL     1      26.047  46.950   4.838  1.00  0.00    -0.530 OA
HETATM   25  O2  UNL     1      25.523  45.802   6.680  1.00  0.00    -0.530 OA
ENDBRANCH   4  23
BRANCH   6  26
HETATM   26  N8  UNL     1      30.962  47.602   5.921  1.00  0.00    -0.383 N 
ATOM     27  H82 UNL     1      31.455  46.709   5.879  1.00  0.00     0.157 HD
ATOM     28  H81 UNL     1      31.365  48.431   5.484  1.00  0.00     0.157 HD
ENDBRANCH   6  26
BRANCH   1  29
HETATM   29  N1  UNL     1      28.426  49.158   9.406  1.00  0.00    -0.234 N 
ATOM     30  H12 UNL     1      27.508  49.447   9.743  1.00  0.00     0.174 HD
ATOM     31  H11 UNL     1      29.275  49.375   9.928  1.00  0.00     0.174 HD
ENDBRANCH   1  29
TORSDOF 6
ENDMDL
MODEL 3
REMARK VINA RESULT: -7.302693267      1.858      2.451
REMARK  6 active torsions:
REMARK  status: ('A' for Active; 'I' for Inactive)
REMARK    1  A    between atoms: N1_1  and  C1_4 
REMARK    2  A    between atoms: C2_7  and  N3_8 
REMARK    3  A    between atoms: C3_11  and  N4_12 
REMARK       I    between atoms: N4_12  and  C4_14 
REMARK    4  A    between atoms: C4_14  and  C5_16 
REMARK    5  A    between atoms: C6_22  and  N7_23 
REMARK    6  A    between atoms: C7_26  and  N8_27 
ROOT
HETATM    1  C1  UNL     1      28.203  48.206   8.168  1.00  0.00     0.679 A 
HETATM    2  N2  UNL     1      27.245  47.565   7.498  1.00  0.00    -0.169 N 
ATOM      3  H2  UNL     1      26.295  47.534   7.866  1.00  0.00     0.186 HD
HETATM    4  C2  UNL     1      27.544  46.952   6.319  1.00  0.00     0.218 A 
HETATM    5  C3  UNL     1      28.816  46.979   5.805  1.00  0.00     0.131 A 
HETATM    6  C7  UNL     1      29.789  47.664   6.546  1.00  0.00     0.145 A 
HETATM    7  N9  UNL     1      29.460  48.259   7.708  1.00  0.00    -0.175 N 
ATOM      8  H9  UNL     1      30.174  48.754   8.243  1.00  0.00     0.186 HD
ENDROOT
BRANCH   5   9
HETATM    9  N4  UNL     1      29.193  46.375   4.575  1.00  0.00    -0.315 N 
HETATM   10  C4  UNL     1      29.572  45.012   4.560  1.00  0.00     0.278 C 
HETATM   11  O3  UNL     1      29.565  44.367   5.634  1.00  0.00    -0.265 OA
ATOM     12  H4  UNL     1      29.191  46.918   3.712  1.00  0.00     0.169 HD
BRANCH  10  13
HETATM   13  C5  UNL     1      29.973  44.313   3.348  1.00  0.00     0.169 A 
HETATM   14  N5  UNL     1      30.580  44.876   2.279  1.00  0.00    -0.233 N 
HETATM   15  O4  UNL     1      30.791  43.960   1.383  1.00  0.00    -0.155 OA
ATOM     16  H5  UNL     1      30.832  45.860   2.190  1.00  0.00     0.197 HD
HETATM   17  N6  UNL     1      30.354  42.801   1.795  1.00  0.00    -0.224 N 
HETATM   18  C6  UNL     1      29.835  42.987   3.023  1.00  0.00     0.155 A 
ATOM     19  H6  UNL     1      30.397  41.921   1.281  1.00  0.00     0.198 HD
BRANCH  18  20
HETATM   20  N7  UNL     1      29.302  42.090   3.770  1.00  0.00    -0.382 N 
ATOM     21  H72 UNL     1      29.445  41.083   3.707  1.00  0.00     0.157 HD
ATOM     22  H71 UNL     1      28.656  42.270   4.539  1.00  0.00     0.157 HD
ENDBRANCH  18  20
ENDBRANCH  10  13
ENDBRANCH   5   9
BRANCH   4  23
HETATM   23  N3  UNL     1      26.534  46.257   5.596  1.00  0.00    -0.095 N 
HETATM   24  O1  UNL     1      25.813  46.905   4.814  1.00  0.00    -0.530 OA
HETATM   25  O2  UNL     1      26.301  44.918   5.705  1.00  0.00    -0.530 OA
ENDBRANCH   4  23
BRANCH   6  26
HETATM   26  N8  UNL     1      30.997  47.702   6.080  1.00  0.00    -0.383 N 
ATOM     27  H82 UNL     1      31.328  48.481   5.510  1.00  0.00     0.157 HD
ATOM     28  H81 UNL     1      31.622  46.925   6.298  1.00  0.00     0.157 HD
ENDBRANCH   6  26
BRANCH   1  29
HETATM   29  N1  UNL     1      27.921  48.794   9.296  1.00  0.00    -0.234 N 
ATOM     30  H12 UNL     1      27.215  48.378   9.904  1.00  0.00     0.174 HD
ATOM     31  H11 UNL     1      28.403  49.654   9.553  1.00  0.00     0.174 HD
ENDBRANCH   1  29
TORSDOF 6
ENDMDL
MODEL 4
REMARK VINA RESULT: -7.293487426      2.048      2.886
REMARK  6 active torsions:
REMARK  status: ('A' for Active; 'I' for Inactive)
REMARK    1  A    between atoms: N1_1  and  C1_4 
REMARK    2  A    between atoms: C2_7  and  N3_8 
REMARK    3  A    between atoms: C3_11  and  N4_12 
REMARK       I    between atoms: N4_12  and  C4_14 
REMARK    4  A    between atoms: C4_14  and  C5_16 
REMARK    5  A    between atoms: C6_22  and  N7_23 
REMARK    6  A    between atoms: C7_26  and  N8_27 
ROOT
HETATM    1  C1  UNL     1      28.189  46.433   9.091  1.00  0.00     0.679 A 
HETATM    2  N2  UNL     1      27.210  46.182   8.222  1.00  0.00    -0.169 N 
ATOM      3  H2  UNL     1      26.259  46.023   8.554  1.00  0.00     0.186 HD
HETATM    4  C2  UNL     1      27.487  46.137   6.890  1.00  0.00     0.218 A 
HETATM    5  C3  UNL     1      28.760  46.346   6.420  1.00  0.00     0.131 A 
HETATM    6  C7  UNL     1      29.757  46.606   7.372  1.00  0.00     0.145 A 
HETATM    7  N9  UNL     1      29.447  46.642   8.682  1.00  0.00    -0.175 N 
ATOM      8  H9  UNL     1      30.178  46.830   9.370  1.00  0.00     0.186 HD
ENDROOT
BRANCH   5   9
HETATM    9  N4  UNL     1      29.117  46.330   5.045  1.00  0.00    -0.315 N 
HETATM   10  C4  UNL     1      29.442  45.099   4.428  1.00  0.00     0.278 C 
HETATM   11  O3  UNL     1      29.406  44.049   5.110  1.00  0.00    -0.265 OA
ATOM     12  H4  UNL     1      29.139  47.197   4.508  1.00  0.00     0.169 HD
BRANCH  10  13
HETATM   13  C5  UNL     1      29.818  44.990   3.026  1.00  0.00     0.169 A 
HETATM   14  N5  UNL     1      31.080  45.049   2.542  1.00  0.00    -0.233 N 
HETATM   15  O4  UNL     1      31.042  44.914   1.252  1.00  0.00    -0.155 OA
ATOM     16  H5  UNL     1      31.923  45.178   3.101  1.00  0.00     0.197 HD
HETATM   17  N6  UNL     1      29.814  44.767   0.837  1.00  0.00    -0.224 N 
HETATM   18  C6  UNL     1      29.020  44.809   1.924  1.00  0.00     0.155 A 
ATOM     19  H6  UNL     1      29.512  44.643  -0.130  1.00  0.00     0.198 HD
BRANCH  18  20
HETATM   20  N7  UNL     1      27.742  44.701   1.941  1.00  0.00    -0.382 N 
ATOM     21  H72 UNL     1      27.158  44.284   1.217  1.00  0.00     0.157 HD
ATOM     22  H71 UNL     1      27.133  45.021   2.694  1.00  0.00     0.157 HD
ENDBRANCH  18  20
ENDBRANCH  10  13
ENDBRANCH   5   9
BRANCH   4  23
HETATM   23  N3  UNL     1      26.454  45.862   5.950  1.00  0.00    -0.095 N 
HETATM   24  O1  UNL     1      25.890  46.823   5.392  1.00  0.00    -0.530 OA
HETATM   25  O2  UNL     1      26.037  44.607   5.620  1.00  0.00    -0.530 OA
ENDBRANCH   4  23
BRANCH   6  26
HETATM   26  N8  UNL     1      30.966  46.805   6.952  1.00  0.00    -0.383 N 
ATOM     27  H82 UNL     1      31.353  46.282   6.167  1.00  0.00     0.157 HD
ATOM     28  H81 UNL     1      31.531  47.508   7.429  1.00  0.00     0.157 HD
ENDBRANCH   6  26
BRANCH   1  29
HETATM   29  N1  UNL     1      27.927  46.476  10.367  1.00  0.00    -0.234 N 
ATOM     30  H12 UNL     1      28.326  45.761  10.975  1.00  0.00     0.174 HD
ATOM     31  H11 UNL     1      27.330  47.215  10.737  1.00  0.00     0.174 HD
ENDBRANCH   1  29
TORSDOF 6
ENDMDL
MODEL 5
REMARK VINA RESULT: -7.266454304      3.547      5.404
REMARK  6 active torsions:
REMARK  status: ('A' for Active; 'I' for Inactive)
REMARK    1  A    between atoms: N1_1  and  C1_4 
REMARK    2  A    between atoms: C2_7  and  N3_8 
REMARK    3  A    between atoms: C3_11  and  N4_12 
REMARK       I    between atoms: N4_12  and  C4_14 
REMARK    4  A    between atoms: C4_14  and  C5_16 
REMARK    5  A    between atoms: C6_22  and  N7_23 
REMARK    6  A    between atoms: C7_26  and  N8_27 
ROOT
HETATM    1  C1  UNL     1      29.745  49.730  11.126  1.00  0.00     0.679 A 
HETATM    2  N2  UNL     1      29.670  48.440  11.455  1.00  0.00    -0.169 N 
ATOM      3  H2  UNL     1      29.785  48.151  12.426  1.00  0.00     0.186 HD
HETATM    4  C2  UNL     1      29.438  47.511  10.487  1.00  0.00     0.218 A 
HETATM    5  C3  UNL     1      29.280  47.876   9.173  1.00  0.00     0.131 A 
HETATM    6  C7  UNL     1      29.369  49.244   8.876  1.00  0.00     0.145 A 
HETATM    7  N9  UNL     1      29.599  50.136   9.858  1.00  0.00    -0.175 N 
ATOM      8  H9  UNL     1      29.664  51.129   9.635  1.00  0.00     0.186 HD
ENDROOT
BRANCH   5   9
HETATM    9  N4  UNL     1      29.021  46.963   8.115  1.00  0.00    -0.315 N 
HETATM   10  C4  UNL     1      30.061  46.632   7.216  1.00  0.00     0.278 C 
HETATM   11  O3  UNL     1      31.190  47.152   7.373  1.00  0.00    -0.265 OA
ATOM     12  H4  UNL     1      28.095  46.551   8.006  1.00  0.00     0.169 HD
BRANCH  10  13
HETATM   13  C5  UNL     1      29.885  45.707   6.105  1.00  0.00     0.169 A 
HETATM   14  N5  UNL     1      29.350  44.468   6.190  1.00  0.00    -0.233 N 
HETATM   15  O4  UNL     1      29.348  43.929   5.009  1.00  0.00    -0.155 OA
ATOM     16  H5  UNL     1      29.005  44.028   7.043  1.00  0.00     0.197 HD
HETATM   17  N6  UNL     1      29.858  44.744   4.127  1.00  0.00    -0.224 N 
HETATM   18  C6  UNL     1      30.205  45.869   4.780  1.00  0.00     0.155 A 
ATOM     19  H6  UNL     1      29.971  44.563   3.129  1.00  0.00     0.198 HD
BRANCH  18  20
HETATM   20  N7  UNL     1      30.739  46.916   4.268  1.00  0.00    -0.382 N 
ATOM     21  H72 UNL     1      31.668  46.982   3.852  1.00  0.00     0.157 HD
ATOM     22  H71 UNL     1      30.300  47.835   4.207  1.00  0.00     0.157 HD
ENDBRANCH  18  20
ENDBRANCH  10  13
ENDBRANCH   5   9
BRANCH   4  23
HETATM   23  N3  UNL     1      29.363  46.130  10.821  1.00  0.00    -0.095 N 
HETATM   24  O1  UNL     1      30.419  45.531  11.100  1.00  0.00    -0.530 OA
HETATM   25  O2  UNL     1      28.203  45.414  10.854  1.00  0.00    -0.530 OA
ENDBRANCH   4  23
BRANCH   6  26
HETATM   26  N8  UNL     1      29.224  49.612   7.642  1.00  0.00    -0.383 N 
ATOM     27  H82 UNL     1      28.457  50.217   7.350  1.00  0.00     0.157 HD
ATOM     28  H81 UNL     1      29.904  49.279   6.958  1.00  0.00     0.157 HD
ENDBRANCH   6  26
BRANCH   1  29
HETATM   29  N1  UNL     1      29.966  50.621  12.050  1.00  0.00    -0.234 N 
ATOM     30  H12 UNL     1      29.694  51.589  11.876  1.00  0.00     0.174 HD
ATOM     31  H11 UNL     1      30.407  50.344  12.927  1.00  0.00     0.174 HD
ENDBRANCH   1  29
TORSDOF 6
ENDMDL
