MODEL 1
REMARK VINA RESULT: -7.994617501      0.000      0.000
REMARK  7 active torsions:
REMARK  status: ('A' for Active; 'I' for Inactive)
REMARK    1  A    between atoms: N1_1  and  N2_4 
REMARK    2  A    between atoms: N2_4  and  N3_5 
REMARK    3  A    between atoms: N3_5  and  C1_7 
REMARK    4  A    between atoms: C4_16  and  N7_17 
REMARK    5  A    between atoms: N7_17  and  N8_18 
REMARK    6  A    between atoms: N8_18  and  C5_20 
REMARK    7  A    between atoms: C7_27  and  N11_28 
ROOT
HETATM    1  C1  UNL     1      30.404  48.749  10.133  1.00  0.00     0.207 C 
HETATM    2  C2  UNL     1      30.887  47.575  10.902  1.00  0.00     0.122 C 
HETATM    3  N4  UNL     1      32.253  47.310  11.286  1.00  0.00    -0.085 NA
HETATM    4  N5  UNL     1      29.886  46.805  11.189  1.00  0.00    -0.335 N 
ATOM      5  H5  UNL     1      29.943  45.932  11.713  1.00  0.00     0.168 HD
HETATM    6  C3  UNL     1      28.679  47.376  10.651  1.00  0.00     0.100 C 
HETATM    7  N6  UNL     1      27.490  47.243  11.066  1.00  0.00    -0.387 N 
ATOM      8  H61 UNL     1      26.635  47.647  10.685  1.00  0.00     0.157 HD
ATOM      9  H62 UNL     1      27.162  46.699  11.865  1.00  0.00     0.157 HD
HETATM   10  C4  UNL     1      29.154  48.162   9.496  1.00  0.00     0.199 C 
ENDROOT
BRANCH  10  11
HETATM   11  N7  UNL     1      28.260  49.145   8.999  1.00  0.00    -0.111 NA
BRANCH  11  12
HETATM   12  N8  UNL     1      27.317  48.559   8.165  1.00  0.00    -0.135 N 
ATOM     13  H8  UNL     1      26.331  48.774   8.316  1.00  0.00     0.201 HD
BRANCH  12  14
HETATM   14  C5  UNL     1      27.669  47.670   7.106  1.00  0.00     0.712 A 
HETATM   15  N9  UNL     1      26.943  46.578   6.816  1.00  0.00    -0.139 N 
HETATM   16  C6  UNL     1      27.316  45.770   5.806  1.00  0.00     0.352 A 
ATOM     17  H9  UNL     1      26.108  46.361   7.361  1.00  0.00     0.189 HD
HETATM   18  O1  UNL     1      26.666  44.730   5.495  1.00  0.00    -0.246 OA
HETATM   19  N10 UNL     1      28.422  46.023   5.053  1.00  0.00    -0.141 N 
HETATM   20  C7  UNL     1      29.147  47.114   5.343  1.00  0.00     0.694 A 
ATOM     21  H10 UNL     1      28.692  45.401   4.290  1.00  0.00     0.189 HD
HETATM   22  N12 UNL     1      28.752  47.902   6.354  1.00  0.00    -0.021 N 
ATOM     23  H12 UNL     1      29.311  48.729   6.562  1.00  0.00     0.203 HD
BRANCH  20  24
HETATM   24  N11 UNL     1      30.202  47.367   4.633  1.00  0.00    -0.234 N 
ATOM     25 2H11 UNL     1      30.209  47.291   3.616  1.00  0.00     0.174 HD
ATOM     26 1H11 UNL     1      31.057  47.650   5.111  1.00  0.00     0.174 HD
ENDBRANCH  20  24
ENDBRANCH  12  14
ENDBRANCH  11  12
ENDBRANCH  10  11
BRANCH   1  27
HETATM   27  N3  UNL     1      30.086  49.784  11.088  1.00  0.00    -0.239 N 
ATOM     28  H3  UNL     1      29.241  49.742  11.657  1.00  0.00     0.198 HD
BRANCH  27  29
HETATM   29  N2  UNL     1      30.882  50.719  11.182  1.00  0.00    -0.248 NA
BRANCH  29  30
HETATM   30  N1  UNL     1      31.484  51.773  10.983  1.00  0.00    -0.261 N 
ATOM     31  H12 UNL     1      31.755  51.541  10.028  1.00  0.00     0.193 HD
ATOM     32  H11 UNL     1      31.891  52.699  11.108  1.00  0.00     0.193 HD
ENDBRANCH  29  30
ENDBRANCH  27  29
ENDBRANCH   1  27
TORSDOF 7
ENDMDL
MODEL 2
REMARK VINA RESULT: -7.923348930      2.318      6.592
REMARK  7 active torsions:
REMARK  status: ('A' for Active; 'I' for Inactive)
REMARK    1  A    between atoms: N1_1  and  N2_4 
REMARK    2  A    between atoms: N2_4  and  N3_5 
REMARK    3  A    between atoms: N3_5  and  C1_7 
REMARK    4  A    between atoms: C4_16  and  N7_17 
REMARK    5  A    between atoms: N7_17  and  N8_18 
REMARK    6  A    between atoms: N8_18  and  C5_20 
REMARK    7  A    between atoms: C7_27  and  N11_28 
ROOT
HETATM    1  C1  UNL     1      28.032  44.973   4.723  1.00  0.00     0.207 C 
HETATM    2  C2  UNL     1      29.339  44.278   4.619  1.00  0.00     0.122 C 
HETATM    3  N4  UNL     1      29.538  42.867   4.387  1.00  0.00    -0.085 NA
HETATM    4  N5  UNL     1      30.298  45.135   4.767  1.00  0.00    -0.335 N 
ATOM      5  H5  UNL     1      31.294  44.918   4.737  1.00  0.00     0.168 HD
HETATM    6  C3  UNL     1      29.736  46.443   4.980  1.00  0.00     0.100 C 
HETATM    7  N6  UNL     1      30.240  47.572   4.707  1.00  0.00    -0.387 N 
ATOM      8  H61 UNL     1      29.842  48.499   4.858  1.00  0.00     0.157 HD
ATOM      9  H62 UNL     1      31.148  47.768   4.285  1.00  0.00     0.157 HD
HETATM   10  C4  UNL     1      28.423  46.160   5.591  1.00  0.00     0.199 C 
ENDROOT
BRANCH  10  11
HETATM   11  N7  UNL     1      27.478  47.217   5.560  1.00  0.00    -0.111 NA
BRANCH  11  12
HETATM   12  N8  UNL     1      26.775  47.268   6.756  1.00  0.00    -0.135 N 
ATOM     13  H8  UNL     1      25.757  47.211   6.727  1.00  0.00     0.201 HD
BRANCH  12  14
HETATM   14  C5  UNL     1      27.416  47.396   8.025  1.00  0.00     0.712 A 
HETATM   15  N9  UNL     1      27.405  46.411   8.936  1.00  0.00    -0.139 N 
HETATM   16  C6  UNL     1      28.025  46.581  10.119  1.00  0.00     0.352 A 
ATOM     17  H9  UNL     1      26.928  45.533   8.732  1.00  0.00     0.189 HD
HETATM   18  O1  UNL     1      28.043  45.683  11.010  1.00  0.00    -0.246 OA
HETATM   19  N10 UNL     1      28.676  47.736  10.432  1.00  0.00    -0.141 N 
HETATM   20  C7  UNL     1      28.686  48.721   9.520  1.00  0.00     0.694 A 
ATOM     21  H10 UNL     1      29.141  47.850  11.332  1.00  0.00     0.189 HD
HETATM   22  N12 UNL     1      28.061  48.524   8.350  1.00  0.00    -0.021 N 
ATOM     23  H12 UNL     1      28.078  49.280   7.665  1.00  0.00     0.203 HD
BRANCH  20  24
HETATM   24  N11 UNL     1      29.301  49.825   9.805  1.00  0.00    -0.234 N 
ATOM     25 2H11 UNL     1      30.113  50.152   9.281  1.00  0.00     0.174 HD
ATOM     26 1H11 UNL     1      28.962  50.387  10.586  1.00  0.00     0.174 HD
ENDBRANCH  20  24
ENDBRANCH  12  14
ENDBRANCH  11  12
ENDBRANCH  10  11
BRANCH   1  27
HETATM   27  N3  UNL     1      27.658  45.383   3.390  1.00  0.00    -0.239 N 
ATOM     28  H3  UNL     1      27.598  46.367   3.132  1.00  0.00     0.198 HD
BRANCH  27  29
HETATM   29  N2  UNL     1      27.415  44.487   2.579  1.00  0.00    -0.248 NA
BRANCH  29  30
HETATM   30  N1  UNL     1      27.494  43.464   1.902  1.00  0.00    -0.261 N 
ATOM     31  H12 UNL     1      28.324  43.761   1.389  1.00  0.00     0.193 HD
ATOM     32  H11 UNL     1      27.310  42.542   1.507  1.00  0.00     0.193 HD
ENDBRANCH  29  30
ENDBRANCH  27  29
ENDBRANCH   1  27
TORSDOF 7
ENDMDL
MODEL 3
REMARK VINA RESULT: -7.786360396      1.448      1.915
REMARK  7 active torsions:
REMARK  status: ('A' for Active; 'I' for Inactive)
REMARK    1  A    between atoms: N1_1  and  N2_4 
REMARK    2  A    between atoms: N2_4  and  N3_5 
REMARK    3  A    between atoms: N3_5  and  C1_7 
REMARK    4  A    between atoms: C4_16  and  N7_17 
REMARK    5  A    between atoms: N7_17  and  N8_18 
REMARK    6  A    between atoms: N8_18  and  C5_20 
REMARK    7  A    between atoms: C7_27  and  N11_28 
ROOT
HETATM    1  C1  UNL     1      30.480  48.717  10.129  1.00  0.00     0.207 C 
HETATM    2  C2  UNL     1      30.939  47.620  11.018  1.00  0.00     0.122 C 
HETATM    3  N4  UNL     1      32.289  47.407  11.482  1.00  0.00    -0.085 NA
HETATM    4  N5  UNL     1      29.934  46.864  11.327  1.00  0.00    -0.335 N 
ATOM      5  H5  UNL     1      29.977  46.040  11.926  1.00  0.00     0.168 HD
HETATM    6  C3  UNL     1      28.747  47.370  10.690  1.00  0.00     0.100 C 
HETATM    7  N6  UNL     1      27.542  47.258  11.063  1.00  0.00    -0.387 N 
ATOM      8  H61 UNL     1      26.701  47.617  10.612  1.00  0.00     0.157 HD
ATOM      9  H62 UNL     1      27.184  46.781  11.891  1.00  0.00     0.157 HD
HETATM   10  C4  UNL     1      29.265  48.061   9.492  1.00  0.00     0.199 C 
ENDROOT
BRANCH  10  11
HETATM   11  N7  UNL     1      28.385  48.985   8.874  1.00  0.00    -0.111 NA
BRANCH  11  12
HETATM   12  N8  UNL     1      28.825  49.283   7.591  1.00  0.00    -0.135 N 
ATOM     13  H8  UNL     1      29.016  50.257   7.354  1.00  0.00     0.201 HD
BRANCH  12  14
HETATM   14  C5  UNL     1      29.022  48.285   6.590  1.00  0.00     0.712 A 
HETATM   15  N9  UNL     1      30.237  47.988   6.103  1.00  0.00    -0.139 N 
HETATM   16  C6  UNL     1      30.370  47.038   5.159  1.00  0.00     0.352 A 
ATOM     17  H9  UNL     1      31.059  48.482   6.450  1.00  0.00     0.189 HD
HETATM   18  O1  UNL     1      31.493  46.721   4.669  1.00  0.00    -0.246 OA
HETATM   19  N10 UNL     1      29.299  46.353   4.670  1.00  0.00    -0.141 N 
HETATM   20  C7  UNL     1      28.085  46.651   5.156  1.00  0.00     0.694 A 
ATOM     21  H10 UNL     1      29.416  45.635   3.955  1.00  0.00     0.189 HD
HETATM   22  N12 UNL     1      27.981  47.601   6.097  1.00  0.00    -0.021 N 
ATOM     23  H12 UNL     1      27.052  47.816   6.460  1.00  0.00     0.203 HD
BRANCH  20  24
HETATM   24  N11 UNL     1      27.057  46.006   4.700  1.00  0.00    -0.234 N 
ATOM     25 2H11 UNL     1      27.107  45.030   4.409  1.00  0.00     0.174 HD
ATOM     26 1H11 UNL     1      26.165  46.496   4.627  1.00  0.00     0.174 HD
ENDBRANCH  20  24
ENDBRANCH  12  14
ENDBRANCH  11  12
ENDBRANCH  10  11
BRANCH   1  27
HETATM   27  N3  UNL     1      30.110  49.826  10.976  1.00  0.00    -0.239 N 
ATOM     28  H3  UNL     1      29.215  49.849  11.463  1.00  0.00     0.198 HD
BRANCH  27  29
HETATM   29  N2  UNL     1      30.926  50.743  11.081  1.00  0.00    -0.248 NA
BRANCH  29  30
HETATM   30  N1  UNL     1      31.464  51.847  11.026  1.00  0.00    -0.261 N 
ATOM     31  H12 UNL     1      31.325  52.063  12.014  1.00  0.00     0.193 HD
ATOM     32  H11 UNL     1      31.944  52.680  10.685  1.00  0.00     0.193 HD
ENDBRANCH  29  30
ENDBRANCH  27  29
ENDBRANCH   1  27
TORSDOF 7
ENDMDL
MODEL 4
REMARK VINA RESULT: -7.690304046      2.545      6.696
REMARK  7 active torsions:
REMARK  status: ('A' for Active; 'I' for Inactive)
REMARK    1  A    between atoms: N1_1  and  N2_4 
REMARK    2  A    between atoms: N2_4  and  N3_5 
REMARK    3  A    between atoms: N3_5  and  C1_7 
REMARK    4  A    between atoms: C4_16  and  N7_17 
REMARK    5  A    between atoms: N7_17  and  N8_18 
REMARK    6  A    between atoms: N8_18  and  C5_20 
REMARK    7  A    between atoms: C7_27  and  N11_28 
ROOT
HETATM    1  C1  UNL     1      28.233  44.923   4.859  1.00  0.00     0.207 C 
HETATM    2  C2  UNL     1      29.669  45.003   4.489  1.00  0.00     0.122 C 
HETATM    3  N4  UNL     1      30.455  43.949   3.894  1.00  0.00    -0.085 NA
HETATM    4  N5  UNL     1      30.126  46.179   4.781  1.00  0.00    -0.335 N 
ATOM      5  H5  UNL     1      31.083  46.496   4.626  1.00  0.00     0.168 HD
HETATM    6  C3  UNL     1      29.070  46.969   5.357  1.00  0.00     0.100 C 
HETATM    7  N6  UNL     1      28.929  48.227   5.344  1.00  0.00    -0.387 N 
ATOM      8  H61 UNL     1      28.180  48.786   5.753  1.00  0.00     0.157 HD
ATOM      9  H62 UNL     1      29.544  48.923   4.922  1.00  0.00     0.157 HD
HETATM   10  C4  UNL     1      28.180  45.962   5.969  1.00  0.00     0.199 C 
ENDROOT
BRANCH  10  11
HETATM   11  N7  UNL     1      26.864  46.394   6.274  1.00  0.00    -0.111 NA
BRANCH  11  12
HETATM   12  N8  UNL     1      26.592  46.190   7.620  1.00  0.00    -0.135 N 
ATOM     13  H8  UNL     1      25.802  45.595   7.874  1.00  0.00     0.201 HD
BRANCH  12  14
HETATM   14  C5  UNL     1      27.369  46.776   8.664  1.00  0.00     0.712 A 
HETATM   15  N9  UNL     1      27.863  48.021   8.578  1.00  0.00    -0.139 N 
HETATM   16  C6  UNL     1      28.590  48.529   9.590  1.00  0.00     0.352 A 
ATOM     17  H9  UNL     1      27.686  48.582   7.744  1.00  0.00     0.189 HD
HETATM   18  O1  UNL     1      29.077  49.696   9.556  1.00  0.00    -0.246 OA
HETATM   19  N10 UNL     1      28.848  47.814  10.720  1.00  0.00    -0.141 N 
HETATM   20  C7  UNL     1      28.355  46.569  10.806  1.00  0.00     0.694 A 
ATOM     21  H10 UNL     1      29.401  48.213  11.480  1.00  0.00     0.189 HD
HETATM   22  N12 UNL     1      27.633  46.089   9.783  1.00  0.00    -0.021 N 
ATOM     23  H12 UNL     1      27.261  45.142   9.862  1.00  0.00     0.203 HD
BRANCH  20  24
HETATM   24  N11 UNL     1      28.593  45.879  11.877  1.00  0.00    -0.234 N 
ATOM     25 2H11 UNL     1      29.463  45.962  12.401  1.00  0.00     0.174 HD
ATOM     26 1H11 UNL     1      27.882  45.225  12.205  1.00  0.00     0.174 HD
ENDBRANCH  20  24
ENDBRANCH  12  14
ENDBRANCH  11  12
ENDBRANCH  10  11
BRANCH   1  27
HETATM   27  N3  UNL     1      27.471  45.333   3.703  1.00  0.00    -0.239 N 
ATOM     28  H3  UNL     1      27.017  46.245   3.659  1.00  0.00     0.198 HD
BRANCH  27  29
HETATM   29  N2  UNL     1      27.394  44.528   2.773  1.00  0.00    -0.248 NA
BRANCH  29  30
HETATM   30  N1  UNL     1      27.681  43.794   1.830  1.00  0.00    -0.261 N 
ATOM     31  H12 UNL     1      28.671  44.041   1.824  1.00  0.00     0.193 HD
ATOM     32  H11 UNL     1      27.618  43.124   1.064  1.00  0.00     0.193 HD
ENDBRANCH  29  30
ENDBRANCH  27  29
ENDBRANCH   1  27
TORSDOF 7
ENDMDL
MODEL 5
REMARK VINA RESULT: -7.645672686      2.715      6.511
REMARK  7 active torsions:
REMARK  status: ('A' for Active; 'I' for Inactive)
REMARK    1  A    between atoms: N1_1  and  N2_4 
REMARK    2  A    between atoms: N2_4  and  N3_5 
REMARK    3  A    between atoms: N3_5  and  C1_7 
REMARK    4  A    between atoms: C4_16  and  N7_17 
REMARK    5  A    between atoms: N7_17  and  N8_18 
REMARK    6  A    between atoms: N8_18  and  C5_20 
REMARK    7  A    between atoms: C7_27  and  N11_28 
ROOT
HETATM    1  C1  UNL     1      28.514  45.196   4.820  1.00  0.00     0.207 C 
HETATM    2  C2  UNL     1      28.581  44.857   3.376  1.00  0.00     0.122 C 
HETATM    3  N4  UNL     1      27.517  44.286   2.585  1.00  0.00    -0.085 NA
HETATM    4  N5  UNL     1      29.754  45.154   2.916  1.00  0.00    -0.335 N 
ATOM      5  H5  UNL     1      30.061  45.022   1.952  1.00  0.00     0.168 HD
HETATM    6  C3  UNL     1      30.556  45.701   3.978  1.00  0.00     0.100 C 
HETATM    7  N6  UNL     1      31.521  46.517   3.898  1.00  0.00    -0.387 N 
ATOM      8  H61 UNL     1      32.089  46.904   4.651  1.00  0.00     0.157 HD
ATOM      9  H62 UNL     1      31.916  46.941   3.059  1.00  0.00     0.157 HD
HETATM   10  C4  UNL     1      29.985  45.087   5.194  1.00  0.00     0.199 C 
ENDROOT
BRANCH  10  11
HETATM   11  N7  UNL     1      30.303  45.720   6.422  1.00  0.00    -0.111 NA
BRANCH  11  12
HETATM   12  N8  UNL     1      29.556  45.169   7.454  1.00  0.00    -0.135 N 
ATOM     13  H8  UNL     1      29.327  44.175   7.415  1.00  0.00     0.201 HD
BRANCH  12  14
HETATM   14  C5  UNL     1      29.094  45.933   8.568  1.00  0.00     0.712 A 
HETATM   15  N9  UNL     1      28.924  45.394   9.785  1.00  0.00    -0.139 N 
HETATM   16  C6  UNL     1      28.486  46.156  10.804  1.00  0.00     0.352 A 
ATOM     17  H9  UNL     1      29.126  44.405   9.938  1.00  0.00     0.189 HD
HETATM   18  O1  UNL     1      28.309  45.695  11.969  1.00  0.00    -0.246 OA
HETATM   19  N10 UNL     1      28.205  47.480  10.644  1.00  0.00    -0.141 N 
HETATM   20  C7  UNL     1      28.376  48.018   9.427  1.00  0.00     0.694 A 
ATOM     21  H10 UNL     1      27.875  48.045  11.426  1.00  0.00     0.189 HD
HETATM   22  N12 UNL     1      28.814  47.235   8.430  1.00  0.00    -0.021 N 
ATOM     23  H12 UNL     1      28.941  47.657   7.510  1.00  0.00     0.203 HD
BRANCH  20  24
HETATM   24  N11 UNL     1      28.112  49.276   9.261  1.00  0.00    -0.234 N 
ATOM     25 2H11 UNL     1      27.462  49.784   9.861  1.00  0.00     0.174 HD
ATOM     26 1H11 UNL     1      28.572  49.776   8.500  1.00  0.00     0.174 HD
ENDBRANCH  20  24
ENDBRANCH  12  14
ENDBRANCH  11  12
ENDBRANCH  10  11
BRANCH   1  27
HETATM   27  N3  UNL     1      28.035  46.554   4.918  1.00  0.00    -0.239 N 
ATOM     28  H3  UNL     1      28.468  47.312   4.391  1.00  0.00     0.198 HD
BRANCH  27  29
HETATM   29  N2  UNL     1      27.078  46.755   5.668  1.00  0.00    -0.248 NA
BRANCH  29  30
HETATM   30  N1  UNL     1      26.147  46.586   6.454  1.00  0.00    -0.261 N 
ATOM     31  H12 UNL     1      25.760  45.781   5.961  1.00  0.00     0.193 HD
ATOM     32  H11 UNL     1      25.506  46.691   7.240  1.00  0.00     0.193 HD
ENDBRANCH  29  30
ENDBRANCH  27  29
ENDBRANCH   1  27
TORSDOF 7
ENDMDL
