MODEL 1
REMARK VINA RESULT: -7.796190060      0.000      0.000
REMARK  4 active torsions:
REMARK  status: ('A' for Active; 'I' for Inactive)
REMARK    1  A    between atoms: C2_7  and  N3_8 
REMARK       I    between atoms: N3_8  and  C3_10 
REMARK       I    between atoms: C3_10  and  N4_11 
REMARK       I    between atoms: C3_10  and  N5_15 
REMARK    2  A    between atoms: C4_21  and  N7_22 
REMARK    3  A    between atoms: N7_22  and  C5_24 
REMARK    4  A    between atoms: C6_27  and  C7_28 
ROOT
HETATM    1  N1  UNL     1      28.872  45.454   0.763  1.00  0.00    -0.386 N 
ATOM      2  H11 UNL     1      29.583  46.185   0.764  1.00  0.00     0.157 HD
ATOM      3  H12 UNL     1      28.250  45.637  -0.025  1.00  0.00     0.157 HD
HETATM    4  C1  UNL     1      28.742  44.472   1.575  1.00  0.00     0.121 C 
HETATM    5  N2  UNL     1      27.761  43.464   1.574  1.00  0.00    -0.315 N 
ATOM      6  H2  UNL     1      27.134  43.259   0.795  1.00  0.00     0.170 HD
HETATM    7  C2  UNL     1      27.770  42.841   2.695  1.00  0.00     0.181 C 
HETATM    8  N6  UNL     1      28.767  43.384   3.549  1.00  0.00    -0.334 N 
ATOM      9  H6  UNL     1      28.856  43.229   4.553  1.00  0.00     0.165 HD
HETATM   10  C4  UNL     1      29.643  44.209   2.717  1.00  0.00     0.254 C 
ENDROOT
BRANCH   7  11
HETATM   11  N3  UNL     1      26.881  41.744   3.019  1.00  0.00    -0.313 N 
HETATM   12  C3  UNL     1      26.912  40.580   2.183  1.00  0.00     0.482 C 
HETATM   13  N4  UNL     1      28.212  39.945   2.152  1.00  0.00    -0.033 N 
HETATM   14  N5  UNL     1      25.904  39.632   2.608  1.00  0.00    -0.033 N 
ATOM     15  H43 UNL     1      28.936  40.609   1.880  1.00  0.00     0.278 HD
ATOM     16  H42 UNL     1      28.533  39.726   3.096  1.00  0.00     0.278 HD
ATOM     17  H41 UNL     1      28.234  39.117   1.557  1.00  0.00     0.278 HD
ATOM     18  H53 UNL     1      25.997  39.394   3.597  1.00  0.00     0.278 HD
ATOM     19  H52 UNL     1      24.976  40.052   2.642  1.00  0.00     0.278 HD
ATOM     20  H51 UNL     1      25.927  38.804   2.013  1.00  0.00     0.278 HD
ATOM     21  H3  UNL     1      26.251  41.798   3.819  1.00  0.00     0.166 HD
ENDBRANCH   7  11
BRANCH  10  22
HETATM   22  N7  UNL     1      29.964  45.456   3.351  1.00  0.00    -0.352 N 
ATOM     23  H7  UNL     1      30.630  46.091   2.911  1.00  0.00     0.163 HD
BRANCH  22  24
HETATM   24  C5  UNL     1      29.350  45.819   4.607  1.00  0.00     0.075 C 
HETATM   25  N8  UNL     1      28.255  46.452   4.685  1.00  0.00    -0.367 N 
HETATM   26  C6  UNL     1      27.806  46.721   6.010  1.00  0.00     0.172 C 
ATOM     27  H8  UNL     1      27.733  46.747   3.859  1.00  0.00     0.161 HD
HETATM   28  C8  UNL     1      29.012  46.424   6.883  1.00  0.00     0.042 C 
HETATM   29  C9  UNL     1      29.834  45.549   5.964  1.00  0.00     0.078 C 
BRANCH  26  30
HETATM   30  C7  UNL     1      26.661  45.860   6.325  1.00  0.00     0.253 C 
HETATM   31  N9  UNL     1      26.372  44.719   5.547  1.00  0.00    -0.060 NA
HETATM   32  O1  UNL     1      25.926  46.137   7.295  1.00  0.00    -0.275 OA
ENDBRANCH  26  30
ENDBRANCH  22  24
ENDBRANCH  10  22
TORSDOF 4
ENDMDL
MODEL 2
REMARK VINA RESULT: -7.609825726      4.288      6.484
REMARK  4 active torsions:
REMARK  status: ('A' for Active; 'I' for Inactive)
REMARK    1  A    between atoms: C2_7  and  N3_8 
REMARK       I    between atoms: N3_8  and  C3_10 
REMARK       I    between atoms: C3_10  and  N4_11 
REMARK       I    between atoms: C3_10  and  N5_15 
REMARK    2  A    between atoms: C4_21  and  N7_22 
REMARK    3  A    between atoms: N7_22  and  C5_24 
REMARK    4  A    between atoms: C6_27  and  C7_28 
ROOT
HETATM    1  N1  UNL     1      27.325  46.080   9.312  1.00  0.00    -0.386 N 
ATOM      2  H11 UNL     1      26.816  46.654   9.983  1.00  0.00     0.157 HD
ATOM      3  H12 UNL     1      27.556  45.202   9.778  1.00  0.00     0.157 HD
HETATM    4  C1  UNL     1      27.638  46.361   8.103  1.00  0.00     0.121 C 
HETATM    5  N2  UNL     1      28.340  45.568   7.177  1.00  0.00    -0.315 N 
ATOM      6  H2  UNL     1      28.517  44.569   7.278  1.00  0.00     0.170 HD
HETATM    7  C2  UNL     1      28.725  46.286   6.186  1.00  0.00     0.181 C 
HETATM    8  N6  UNL     1      28.309  47.633   6.367  1.00  0.00    -0.334 N 
ATOM      9  H6  UNL     1      28.648  48.446   5.853  1.00  0.00     0.165 HD
HETATM   10  C4  UNL     1      27.303  47.634   7.429  1.00  0.00     0.254 C 
ENDROOT
BRANCH   7  11
HETATM   11  N3  UNL     1      29.474  45.774   5.057  1.00  0.00    -0.313 N 
HETATM   12  C3  UNL     1      30.617  46.516   4.611  1.00  0.00     0.482 C 
HETATM   13  N4  UNL     1      31.629  46.656   5.635  1.00  0.00    -0.033 N 
HETATM   14  N5  UNL     1      31.183  45.900   3.430  1.00  0.00    -0.033 N 
ATOM     15  H43 UNL     1      31.237  47.063   6.483  1.00  0.00     0.278 HD
ATOM     16  H42 UNL     1      31.906  45.744   6.002  1.00  0.00     0.278 HD
ATOM     17  H41 UNL     1      32.442  47.184   5.319  1.00  0.00     0.278 HD
ATOM     18  H53 UNL     1      31.404  44.915   3.583  1.00  0.00     0.278 HD
ATOM     19  H52 UNL     1      30.490  45.786   2.691  1.00  0.00     0.278 HD
ATOM     20  H51 UNL     1      31.996  46.429   3.114  1.00  0.00     0.278 HD
ATOM     21  H3  UNL     1      29.196  44.909   4.592  1.00  0.00     0.166 HD
ENDBRANCH   7  11
BRANCH  10  22
HETATM   22  N7  UNL     1      27.502  48.714   8.353  1.00  0.00    -0.352 N 
ATOM     23  H7  UNL     1      26.742  49.368   8.538  1.00  0.00     0.163 HD
BRANCH  22  24
HETATM   24  C5  UNL     1      28.770  48.881   9.023  1.00  0.00     0.075 C 
HETATM   25  N8  UNL     1      28.924  48.702  10.268  1.00  0.00    -0.367 N 
HETATM   26  C6  UNL     1      30.248  48.914  10.749  1.00  0.00     0.172 C 
ATOM     27  H8  UNL     1      28.156  48.427  10.880  1.00  0.00     0.161 HD
HETATM   28  C8  UNL     1      30.955  49.620   9.606  1.00  0.00     0.042 C 
HETATM   29  C9  UNL     1      30.059  49.265   8.440  1.00  0.00     0.078 C 
BRANCH  26  30
HETATM   30  C7  UNL     1      30.864  47.625  11.078  1.00  0.00     0.253 C 
HETATM   31  N9  UNL     1      30.082  46.458  11.216  1.00  0.00    -0.060 NA
HETATM   32  O1  UNL     1      32.099  47.552  11.241  1.00  0.00    -0.275 OA
ENDBRANCH  26  30
ENDBRANCH  22  24
ENDBRANCH  10  22
TORSDOF 4
ENDMDL
MODEL 3
REMARK VINA RESULT: -7.577647532      7.956     10.417
REMARK  4 active torsions:
REMARK  status: ('A' for Active; 'I' for Inactive)
REMARK    1  A    between atoms: C2_7  and  N3_8 
REMARK       I    between atoms: N3_8  and  C3_10 
REMARK       I    between atoms: C3_10  and  N4_11 
REMARK       I    between atoms: C3_10  and  N5_15 
REMARK    2  A    between atoms: C4_21  and  N7_22 
REMARK    3  A    between atoms: N7_22  and  C5_24 
REMARK    4  A    between atoms: C6_27  and  C7_28 
ROOT
HETATM    1  N1  UNL     1      30.091  50.147  11.777  1.00  0.00    -0.386 N 
ATOM      2  H11 UNL     1      30.740  50.529  12.464  1.00  0.00     0.157 HD
ATOM      3  H12 UNL     1      29.315  49.729  12.292  1.00  0.00     0.157 HD
HETATM    4  C1  UNL     1      30.185  50.163  10.500  1.00  0.00     0.121 C 
HETATM    5  N2  UNL     1      29.290  49.636   9.552  1.00  0.00    -0.315 N 
ATOM      6  H2  UNL     1      28.331  49.347   9.750  1.00  0.00     0.170 HD
HETATM    7  C2  UNL     1      29.855  49.570   8.402  1.00  0.00     0.181 C 
HETATM    8  N6  UNL     1      31.189  50.054   8.484  1.00  0.00    -0.334 N 
ATOM      9  H6  UNL     1      31.924  49.926   7.788  1.00  0.00     0.165 HD
HETATM   10  C4  UNL     1      31.310  50.769   9.755  1.00  0.00     0.254 C 
ENDROOT
BRANCH   7  11
HETATM   11  N3  UNL     1      29.204  49.073   7.207  1.00  0.00    -0.313 N 
HETATM   12  C3  UNL     1      29.831  47.997   6.495  1.00  0.00     0.482 C 
HETATM   13  N4  UNL     1      29.984  46.805   7.301  1.00  0.00    -0.033 N 
HETATM   14  N5  UNL     1      29.086  47.694   5.292  1.00  0.00    -0.033 N 
ATOM     15  H43 UNL     1      30.484  47.011   8.165  1.00  0.00     0.278 HD
ATOM     16  H42 UNL     1      29.089  46.511   7.693  1.00  0.00     0.278 HD
ATOM     17  H41 UNL     1      30.430  46.040   6.795  1.00  0.00     0.278 HD
ATOM     18  H53 UNL     1      28.104  47.498   5.491  1.00  0.00     0.278 HD
ATOM     19  H52 UNL     1      28.959  48.517   4.704  1.00  0.00     0.278 HD
ATOM     20  H51 UNL     1      29.532  46.929   4.786  1.00  0.00     0.278 HD
ATOM     21  H3  UNL     1      28.326  49.475   6.881  1.00  0.00     0.166 HD
ENDBRANCH   7  11
BRANCH  10  22
HETATM   22  N7  UNL     1      32.536  50.453  10.430  1.00  0.00    -0.352 N 
ATOM     23  H7  UNL     1      32.662  49.530  10.847  1.00  0.00     0.163 HD
BRANCH  22  24
HETATM   24  C5  UNL     1      33.594  51.432  10.526  1.00  0.00     0.075 C 
HETATM   25  N8  UNL     1      33.594  52.370  11.378  1.00  0.00    -0.367 N 
HETATM   26  C6  UNL     1      34.722  53.238  11.320  1.00  0.00     0.172 C 
ATOM     27  H8  UNL     1      32.841  52.494  12.055  1.00  0.00     0.161 HD
HETATM   28  C8  UNL     1      35.385  52.906   9.995  1.00  0.00     0.042 C 
HETATM   29  C9  UNL     1      34.808  51.536   9.712  1.00  0.00     0.078 C 
BRANCH  26  30
HETATM   30  C7  UNL     1      35.600  52.980  12.466  1.00  0.00     0.253 C 
HETATM   31  N9  UNL     1      36.677  53.840  12.766  1.00  0.00    -0.060 NA
HETATM   32  O1  UNL     1      35.397  51.984  13.190  1.00  0.00    -0.275 OA
ENDBRANCH  26  30
ENDBRANCH  22  24
ENDBRANCH  10  22
TORSDOF 4
ENDMDL
MODEL 4
REMARK VINA RESULT: -7.513360345      4.836      8.586
REMARK  4 active torsions:
REMARK  status: ('A' for Active; 'I' for Inactive)
REMARK    1  A    between atoms: C2_7  and  N3_8 
REMARK       I    between atoms: N3_8  and  C3_10 
REMARK       I    between atoms: C3_10  and  N4_11 
REMARK       I    between atoms: C3_10  and  N5_15 
REMARK    2  A    between atoms: C4_21  and  N7_22 
REMARK    3  A    between atoms: N7_22  and  C5_24 
REMARK    4  A    between atoms: C6_27  and  C7_28 
ROOT
HETATM    1  N1  UNL     1      28.964  45.146  11.590  1.00  0.00    -0.386 N 
ATOM      2  H11 UNL     1      28.327  44.437  11.229  1.00  0.00     0.157 HD
ATOM      3  H12 UNL     1      29.021  45.018  12.601  1.00  0.00     0.157 HD
HETATM    4  C1  UNL     1      29.599  46.048  10.939  1.00  0.00     0.121 C 
HETATM    5  N2  UNL     1      30.479  47.026  11.437  1.00  0.00    -0.315 N 
ATOM      6  H2  UNL     1      30.895  47.019  12.369  1.00  0.00     0.170 HD
HETATM    7  C2  UNL     1      30.682  47.929  10.548  1.00  0.00     0.181 C 
HETATM    8  N6  UNL     1      29.948  47.627   9.369  1.00  0.00    -0.334 N 
ATOM      9  H6  UNL     1      29.757  48.263   8.594  1.00  0.00     0.165 HD
HETATM   10  C4  UNL     1      29.517  46.233   9.474  1.00  0.00     0.254 C 
ENDROOT
BRANCH   7  11
HETATM   11  N3  UNL     1      31.540  49.079  10.742  1.00  0.00    -0.313 N 
HETATM   12  C3  UNL     1      30.937  50.380  10.743  1.00  0.00     0.482 C 
HETATM   13  N4  UNL     1      29.943  50.538  11.783  1.00  0.00    -0.033 N 
HETATM   14  N5  UNL     1      31.954  51.402  10.865  1.00  0.00    -0.033 N 
ATOM     15  H43 UNL     1      29.235  49.807  11.725  1.00  0.00     0.278 HD
ATOM     16  H42 UNL     1      30.335  50.316  12.699  1.00  0.00     0.278 HD
ATOM     17  H41 UNL     1      29.514  51.463  11.783  1.00  0.00     0.278 HD
ATOM     18  H53 UNL     1      32.545  51.256  11.685  1.00  0.00     0.278 HD
ATOM     19  H52 UNL     1      32.671  51.315  10.145  1.00  0.00     0.278 HD
ATOM     20  H51 UNL     1      31.524  52.327  10.866  1.00  0.00     0.278 HD
ATOM     21  H3  UNL     1      32.545  48.968  10.875  1.00  0.00     0.166 HD
ENDBRANCH   7  11
BRANCH  10  22
HETATM   22  N7  UNL     1      28.153  46.062   9.062  1.00  0.00    -0.352 N 
ATOM     23  H7  UNL     1      27.428  45.912   9.763  1.00  0.00     0.163 HD
BRANCH  22  24
HETATM   24  C5  UNL     1      27.800  46.100   7.662  1.00  0.00     0.075 C 
HETATM   25  N8  UNL     1      28.656  46.026   6.730  1.00  0.00    -0.367 N 
HETATM   26  C6  UNL     1      28.119  46.081   5.412  1.00  0.00     0.172 C 
ATOM     27  H8  UNL     1      29.655  45.934   6.911  1.00  0.00     0.161 HD
HETATM   28  C8  UNL     1      26.689  46.553   5.607  1.00  0.00     0.042 C 
HETATM   29  C9  UNL     1      26.467  46.224   7.067  1.00  0.00     0.078 C 
BRANCH  26  30
HETATM   30  C7  UNL     1      28.191  44.752   4.796  1.00  0.00     0.253 C 
HETATM   31  N9  UNL     1      29.355  43.961   4.903  1.00  0.00    -0.060 NA
HETATM   32  O1  UNL     1      27.210  44.308   4.165  1.00  0.00    -0.275 OA
ENDBRANCH  26  30
ENDBRANCH  22  24
ENDBRANCH  10  22
TORSDOF 4
ENDMDL
MODEL 5
REMARK VINA RESULT: -7.344720246      2.778      6.189
REMARK  4 active torsions:
REMARK  status: ('A' for Active; 'I' for Inactive)
REMARK    1  A    between atoms: C2_7  and  N3_8 
REMARK       I    between atoms: N3_8  and  C3_10 
REMARK       I    between atoms: C3_10  and  N4_11 
REMARK       I    between atoms: C3_10  and  N5_15 
REMARK    2  A    between atoms: C4_21  and  N7_22 
REMARK    3  A    between atoms: N7_22  and  C5_24 
REMARK    4  A    between atoms: C6_27  and  C7_28 
ROOT
HETATM    1  N1  UNL     1      30.593  47.196   4.470  1.00  0.00    -0.386 N 
ATOM      2  H11 UNL     1      30.695  46.929   3.492  1.00  0.00     0.157 HD
ATOM      3  H12 UNL     1      31.126  48.056   4.607  1.00  0.00     0.157 HD
HETATM    4  C1  UNL     1      29.932  46.602   5.391  1.00  0.00     0.121 C 
HETATM    5  N2  UNL     1      29.791  46.971   6.741  1.00  0.00    -0.315 N 
ATOM      6  H2  UNL     1      30.031  47.886   7.125  1.00  0.00     0.170 HD
HETATM    7  C2  UNL     1      29.317  45.990   7.418  1.00  0.00     0.181 C 
HETATM    8  N6  UNL     1      29.099  44.871   6.571  1.00  0.00    -0.334 N 
ATOM      9  H6  UNL     1      28.931  43.909   6.868  1.00  0.00     0.165 HD
HETATM   10  C4  UNL     1      29.159  45.356   5.192  1.00  0.00     0.254 C 
ENDROOT
BRANCH   7  11
HETATM   11  N3  UNL     1      29.051  46.042   8.842  1.00  0.00    -0.313 N 
HETATM   12  C3  UNL     1      27.870  46.723   9.284  1.00  0.00     0.482 C 
HETATM   13  N4  UNL     1      26.656  46.146   8.749  1.00  0.00    -0.033 N 
HETATM   14  N5  UNL     1      27.817  46.743  10.730  1.00  0.00    -0.033 N 
ATOM     15  H43 UNL     1      26.691  46.100   7.731  1.00  0.00     0.278 HD
ATOM     16  H42 UNL     1      26.603  45.148   8.958  1.00  0.00     0.278 HD
ATOM     17  H41 UNL     1      25.815  46.630   9.063  1.00  0.00     0.278 HD
ATOM     18  H53 UNL     1      27.888  45.805  11.128  1.00  0.00     0.278 HD
ATOM     19  H52 UNL     1      28.662  47.143  11.137  1.00  0.00     0.278 HD
ATOM     20  H51 UNL     1      26.976  47.227  11.045  1.00  0.00     0.278 HD
ATOM     21  H3  UNL     1      29.687  45.606   9.510  1.00  0.00     0.166 HD
ENDBRANCH   7  11
BRANCH  10  22
HETATM   22  N7  UNL     1      29.913  44.474   4.348  1.00  0.00    -0.352 N 
ATOM     23  H7  UNL     1      30.932  44.518   4.351  1.00  0.00     0.163 HD
BRANCH  22  24
HETATM   24  C5  UNL     1      29.240  43.524   3.493  1.00  0.00     0.075 C 
HETATM   25  N8  UNL     1      29.524  42.289   3.473  1.00  0.00    -0.367 N 
HETATM   26  C6  UNL     1      28.753  41.508   2.565  1.00  0.00     0.172 C 
ATOM     27  H8  UNL     1      30.250  41.885   4.064  1.00  0.00     0.161 HD
HETATM   28  C8  UNL     1      28.064  42.530   1.679  1.00  0.00     0.042 C 
HETATM   29  C9  UNL     1      28.160  43.774   2.535  1.00  0.00     0.078 C 
BRANCH  26  30
HETATM   30  C7  UNL     1      27.800  40.682   3.313  1.00  0.00     0.253 C 
HETATM   31  N9  UNL     1      26.770  39.979   2.653  1.00  0.00    -0.060 NA
HETATM   32  O1  UNL     1      27.894  40.598   4.555  1.00  0.00    -0.275 OA
ENDBRANCH  26  30
ENDBRANCH  22  24
ENDBRANCH  10  22
TORSDOF 4
ENDMDL
