MODEL 1
REMARK VINA RESULT: -8.636891700      0.000      0.000
REMARK  4 active torsions:
REMARK  status: ('A' for Active; 'I' for Inactive)
REMARK    1  A    between atoms: C1_2  and  C2_4 
REMARK    2  A    between atoms: C5_13  and  N4_14 
REMARK    3  A    between atoms: N4_14  and  N5_16 
REMARK       I    between atoms: N5_16  and  C6_18 
REMARK    4  A    between atoms: C6_18  and  C7_20 
ROOT
HETATM    1  N4  UNL     1      28.628  45.876   4.952  1.00  0.00    -0.291 N 
ATOM      2  H4  UNL     1      28.403  46.765   4.508  1.00  0.00     0.187 HD
ENDROOT
BRANCH   1   3
HETATM    3  C5  UNL     1      28.751  45.802   6.345  1.00  0.00     0.148 A 
HETATM    4  C2  UNL     1      27.649  46.022   7.129  1.00  0.00     0.134 A 
HETATM    5  N2  UNL     1      27.730  45.951   8.491  1.00  0.00    -0.327 N 
HETATM    6  C3  UNL     1      28.911  45.659   9.069  1.00  0.00     0.179 A 
ATOM      7  H2  UNL     1      26.903  46.117   9.065  1.00  0.00     0.168 HD
HETATM    8  S1  UNL     1      29.009  45.574  10.701  1.00  0.00    -0.040 SA
HETATM    9  N3  UNL     1      29.984  45.445   8.294  1.00  0.00    -0.298 N 
HETATM   10  C4  UNL     1      29.940  45.508   6.956  1.00  0.00     0.278 A 
ATOM     11  H3  UNL     1      30.873  45.225   8.743  1.00  0.00     0.171 HD
HETATM   12  O2  UNL     1      30.947  45.307   6.236  1.00  0.00    -0.265 OA
BRANCH   4  13
HETATM   13  C1  UNL     1      26.362  46.346   6.536  1.00  0.00     0.284 C 
HETATM   14  N1  UNL     1      25.171  45.689   6.941  1.00  0.00    -0.056 NA
HETATM   15  O1  UNL     1      26.231  47.218   5.639  1.00  0.00    -0.269 OA
ENDBRANCH   4  13
ENDBRANCH   1   3
BRANCH   1  16
HETATM   16  N5  UNL     1      28.814  44.734   4.172  1.00  0.00    -0.263 N 
HETATM   17  C6  UNL     1      27.788  44.075   3.501  1.00  0.00     0.295 C 
HETATM   18  O3  UNL     1      26.613  44.481   3.564  1.00  0.00    -0.264 OA
ATOM     19  H5  UNL     1      29.759  44.359   4.088  1.00  0.00     0.190 HD
BRANCH  17  20
HETATM   20  C7  UNL     1      28.070  42.885   2.702  1.00  0.00     0.164 A 
HETATM   21  N6  UNL     1      27.288  42.220   1.867  1.00  0.00    -0.286 N 
HETATM   22  N7  UNL     1      27.707  41.194   1.253  1.00  0.00    -0.259 N 
ATOM     23  H6  UNL     1      26.332  42.541   1.713  1.00  0.00     0.188 HD
HETATM   24  C8  UNL     1      28.963  40.788   1.466  1.00  0.00     0.304 A 
ATOM     25  H7  UNL     1      27.098  40.687   0.612  1.00  0.00     0.191 HD
HETATM   26  O4  UNL     1      29.557  39.780   0.940  1.00  0.00    -0.258 OA
HETATM   27  S2  UNL     1      29.518  41.950   2.589  1.00  0.00    -0.003 SA
ENDBRANCH  17  20
ENDBRANCH   1  16
TORSDOF 4
ENDMDL
MODEL 2
REMARK VINA RESULT: -8.029868930      1.012      1.131
REMARK  4 active torsions:
REMARK  status: ('A' for Active; 'I' for Inactive)
REMARK    1  A    between atoms: C1_2  and  C2_4 
REMARK    2  A    between atoms: C5_13  and  N4_14 
REMARK    3  A    between atoms: N4_14  and  N5_16 
REMARK       I    between atoms: N5_16  and  C6_18 
REMARK    4  A    between atoms: C6_18  and  C7_20 
ROOT
HETATM    1  N4  UNL     1      28.725  45.645   5.050  1.00  0.00    -0.291 N 
ATOM      2  H4  UNL     1      28.761  46.522   4.532  1.00  0.00     0.187 HD
ENDROOT
BRANCH   1   3
HETATM    3  C5  UNL     1      28.802  45.655   6.448  1.00  0.00     0.148 A 
HETATM    4  C2  UNL     1      27.687  45.969   7.180  1.00  0.00     0.134 A 
HETATM    5  N2  UNL     1      27.723  45.981   8.546  1.00  0.00    -0.327 N 
HETATM    6  C3  UNL     1      28.873  45.680   9.179  1.00  0.00     0.179 A 
ATOM      7  H2  UNL     1      26.887  46.216   9.081  1.00  0.00     0.168 HD
HETATM    8  S1  UNL     1      28.918  45.694  10.816  1.00  0.00    -0.040 SA
HETATM    9  N3  UNL     1      29.959  45.374   8.455  1.00  0.00    -0.298 N 
HETATM   10  C4  UNL     1      29.959  45.353   7.115  1.00  0.00     0.278 A 
ATOM     11  H3  UNL     1      30.824  45.147   8.946  1.00  0.00     0.171 HD
HETATM   12  O2  UNL     1      30.977  45.066   6.443  1.00  0.00    -0.265 OA
BRANCH   4  13
HETATM   13  C1  UNL     1      26.433  46.305   6.526  1.00  0.00     0.284 C 
HETATM   14  N1  UNL     1      25.212  45.686   6.898  1.00  0.00    -0.056 NA
HETATM   15  O1  UNL     1      26.359  47.155   5.603  1.00  0.00    -0.269 OA
ENDBRANCH   4  13
ENDBRANCH   1   3
BRANCH   1  16
HETATM   16  N5  UNL     1      28.598  44.436   4.365  1.00  0.00    -0.263 N 
HETATM   17  C6  UNL     1      29.602  43.880   3.577  1.00  0.00     0.295 C 
HETATM   18  O3  UNL     1      30.699  44.451   3.435  1.00  0.00    -0.264 OA
ATOM     19  H5  UNL     1      27.718  43.928   4.447  1.00  0.00     0.190 HD
BRANCH  17  20
HETATM   20  C7  UNL     1      29.387  42.606   2.894  1.00  0.00     0.164 A 
HETATM   21  N6  UNL     1      28.283  42.101   2.369  1.00  0.00    -0.286 N 
HETATM   22  N7  UNL     1      28.283  40.964   1.810  1.00  0.00    -0.259 N 
ATOM     23  H6  UNL     1      27.417  42.637   2.415  1.00  0.00     0.188 HD
HETATM   24  C8  UNL     1      29.428  40.275   1.758  1.00  0.00     0.304 A 
ATOM     25  H7  UNL     1      27.427  40.582   1.409  1.00  0.00     0.191 HD
HETATM   26  O4  UNL     1      29.620  39.120   1.238  1.00  0.00    -0.258 OA
HETATM   27  S2  UNL     1      30.508  41.337   2.551  1.00  0.00    -0.003 SA
ENDBRANCH  17  20
ENDBRANCH   1  16
TORSDOF 4
ENDMDL
MODEL 3
REMARK VINA RESULT: -7.964159041      1.344      2.582
REMARK  4 active torsions:
REMARK  status: ('A' for Active; 'I' for Inactive)
REMARK    1  A    between atoms: C1_2  and  C2_4 
REMARK    2  A    between atoms: C5_13  and  N4_14 
REMARK    3  A    between atoms: N4_14  and  N5_16 
REMARK       I    between atoms: N5_16  and  C6_18 
REMARK    4  A    between atoms: C6_18  and  C7_20 
ROOT
HETATM    1  N4  UNL     1      27.584  46.577   5.317  1.00  0.00    -0.291 N 
ATOM      2  H4  UNL     1      27.089  47.435   5.074  1.00  0.00     0.187 HD
ENDROOT
BRANCH   1   3
HETATM    3  C5  UNL     1      27.929  46.323   6.650  1.00  0.00     0.148 A 
HETATM    4  C2  UNL     1      29.251  46.304   7.010  1.00  0.00     0.134 A 
HETATM    5  N2  UNL     1      29.624  46.066   8.303  1.00  0.00    -0.327 N 
HETATM    6  C3  UNL     1      28.677  45.847   9.235  1.00  0.00     0.179 A 
ATOM      7  H2  UNL     1      30.611  46.054   8.560  1.00  0.00     0.168 HD
HETATM    8  S1  UNL     1      29.122  45.561  10.784  1.00  0.00    -0.040 SA
HETATM    9  N3  UNL     1      27.386  45.867   8.873  1.00  0.00    -0.298 N 
HETATM   10  C4  UNL     1      26.985  46.097   7.615  1.00  0.00     0.278 A 
ATOM     11  H3  UNL     1      26.677  45.701   9.588  1.00  0.00     0.171 HD
HETATM   12  O2  UNL     1      25.776  46.115   7.283  1.00  0.00    -0.265 OA
BRANCH   4  13
HETATM   13  C1  UNL     1      30.297  46.529   6.026  1.00  0.00     0.284 C 
HETATM   14  N1  UNL     1      30.865  45.459   5.288  1.00  0.00    -0.056 NA
HETATM   15  O1  UNL     1      30.754  47.673   5.776  1.00  0.00    -0.269 OA
ENDBRANCH   4  13
ENDBRANCH   1   3
BRANCH   1  16
HETATM   16  N5  UNL     1      27.918  45.659   4.321  1.00  0.00    -0.263 N 
HETATM   17  C6  UNL     1      27.211  44.486   4.076  1.00  0.00     0.295 C 
HETATM   18  O3  UNL     1      26.213  44.183   4.755  1.00  0.00    -0.264 OA
ATOM     19  H5  UNL     1      28.730  45.859   3.736  1.00  0.00     0.190 HD
BRANCH  17  20
HETATM   20  C7  UNL     1      27.628  43.578   3.010  1.00  0.00     0.164 A 
HETATM   21  N6  UNL     1      26.927  42.678   2.341  1.00  0.00    -0.286 N 
HETATM   22  N7  UNL     1      27.462  41.968   1.437  1.00  0.00    -0.259 N 
ATOM     23  H6  UNL     1      25.938  42.552   2.556  1.00  0.00     0.188 HD
HETATM   24  C8  UNL     1      28.760  42.146   1.167  1.00  0.00     0.304 A 
ATOM     25  H7  UNL     1      26.915  41.276   0.927  1.00  0.00     0.191 HD
HETATM   26  O4  UNL     1      29.467  41.528   0.295  1.00  0.00    -0.258 OA
HETATM   27  S2  UNL     1      29.178  43.381   2.273  1.00  0.00    -0.003 SA
ENDBRANCH  17  20
ENDBRANCH   1  16
TORSDOF 4
ENDMDL
MODEL 4
REMARK VINA RESULT: -7.926647456      1.121      2.605
REMARK  4 active torsions:
REMARK  status: ('A' for Active; 'I' for Inactive)
REMARK    1  A    between atoms: C1_2  and  C2_4 
REMARK    2  A    between atoms: C5_13  and  N4_14 
REMARK    3  A    between atoms: N4_14  and  N5_16 
REMARK       I    between atoms: N5_16  and  C6_18 
REMARK    4  A    between atoms: C6_18  and  C7_20 
ROOT
HETATM    1  N4  UNL     1      27.779  45.913   5.614  1.00  0.00    -0.291 N 
ATOM      2  H4  UNL     1      27.422  46.759   5.171  1.00  0.00     0.187 HD
ENDROOT
BRANCH   1   3
HETATM    3  C5  UNL     1      28.047  45.902   6.987  1.00  0.00     0.148 A 
HETATM    4  C2  UNL     1      29.346  45.829   7.418  1.00  0.00     0.134 A 
HETATM    5  N2  UNL     1      29.645  45.823   8.751  1.00  0.00    -0.327 N 
HETATM    6  C3  UNL     1      28.647  45.890   9.653  1.00  0.00     0.179 A 
ATOM      7  H2  UNL     1      30.616  45.769   9.061  1.00  0.00     0.168 HD
HETATM    8  S1  UNL     1      29.004  45.882  11.251  1.00  0.00    -0.040 SA
HETATM    9  N3  UNL     1      27.379  45.960   9.223  1.00  0.00    -0.298 N 
HETATM   10  C4  UNL     1      27.050  45.968   7.924  1.00  0.00     0.278 A 
ATOM     11  H3  UNL     1      26.632  46.011   9.915  1.00  0.00     0.171 HD
HETATM   12  O2  UNL     1      25.863  46.034   7.527  1.00  0.00    -0.265 OA
BRANCH   4  13
HETATM   13  C1  UNL     1      30.445  45.749   6.470  1.00  0.00     0.284 C 
HETATM   14  N1  UNL     1      31.355  46.824   6.295  1.00  0.00    -0.056 NA
HETATM   15  O1  UNL     1      30.650  44.734   5.757  1.00  0.00    -0.269 OA
ENDBRANCH   4  13
ENDBRANCH   1   3
BRANCH   1  16
HETATM   16  N5  UNL     1      28.001  44.767   4.848  1.00  0.00    -0.263 N 
HETATM   17  C6  UNL     1      27.556  44.608   3.539  1.00  0.00     0.295 C 
HETATM   18  O3  UNL     1      26.915  45.506   2.964  1.00  0.00    -0.264 OA
ATOM     19  H5  UNL     1      28.521  44.000   5.274  1.00  0.00     0.190 HD
BRANCH  17  20
HETATM   20  C7  UNL     1      27.834  43.375   2.807  1.00  0.00     0.164 A 
HETATM   21  N6  UNL     1      27.050  42.665   2.013  1.00  0.00    -0.286 N 
HETATM   22  N7  UNL     1      27.465  41.605   1.456  1.00  0.00    -0.259 N 
ATOM     23  H6  UNL     1      26.094  42.978   1.845  1.00  0.00     0.188 HD
HETATM   24  C8  UNL     1      28.722  41.211   1.687  1.00  0.00     0.304 A 
ATOM     25  H7  UNL     1      26.854  41.064   0.846  1.00  0.00     0.191 HD
HETATM   26  O4  UNL     1      29.313  40.175   1.217  1.00  0.00    -0.258 OA
HETATM   27  S2  UNL     1      29.282  42.434   2.742  1.00  0.00    -0.003 SA
ENDBRANCH  17  20
ENDBRANCH   1  16
TORSDOF 4
ENDMDL
MODEL 5
REMARK VINA RESULT: -7.740528371      2.287      7.098
REMARK  4 active torsions:
REMARK  status: ('A' for Active; 'I' for Inactive)
REMARK    1  A    between atoms: C1_2  and  C2_4 
REMARK    2  A    between atoms: C5_13  and  N4_14 
REMARK    3  A    between atoms: N4_14  and  N5_16 
REMARK       I    between atoms: N5_16  and  C6_18 
REMARK    4  A    between atoms: C6_18  and  C7_20 
ROOT
HETATM    1  N4  UNL     1      28.104  45.675   3.808  1.00  0.00    -0.291 N 
ATOM      2  H4  UNL     1      27.851  46.466   3.216  1.00  0.00     0.187 HD
ENDROOT
BRANCH   1   3
HETATM    3  C5  UNL     1      28.300  44.411   3.241  1.00  0.00     0.148 A 
HETATM    4  C2  UNL     1      29.544  44.068   2.778  1.00  0.00     0.134 A 
HETATM    5  N2  UNL     1      29.774  42.840   2.225  1.00  0.00    -0.327 N 
HETATM    6  C3  UNL     1      28.763  41.956   2.134  1.00  0.00     0.179 A 
ATOM      7  H2  UNL     1      30.704  42.595   1.884  1.00  0.00     0.168 HD
HETATM    8  S1  UNL     1      29.037  40.484   1.471  1.00  0.00    -0.040 SA
HETATM    9  N3  UNL     1      27.549  42.299   2.589  1.00  0.00    -0.298 N 
HETATM   10  C4  UNL     1      27.288  43.495   3.137  1.00  0.00     0.278 A 
ATOM     11  H3  UNL     1      26.790  41.621   2.515  1.00  0.00     0.171 HD
HETATM   12  O2  UNL     1      26.151  43.811   3.560  1.00  0.00    -0.265 OA
BRANCH   4  13
HETATM   13  C1  UNL     1      30.654  45.003   2.856  1.00  0.00     0.284 C 
HETATM   14  N1  UNL     1      31.117  45.505   4.099  1.00  0.00    -0.056 NA
HETATM   15  O1  UNL     1      31.262  45.416   1.836  1.00  0.00    -0.269 OA
ENDBRANCH   4  13
ENDBRANCH   1   3
BRANCH   1  16
HETATM   16  N5  UNL     1      28.253  45.855   5.185  1.00  0.00    -0.263 N 
HETATM   17  C6  UNL     1      27.337  46.533   5.984  1.00  0.00     0.295 C 
HETATM   18  O3  UNL     1      26.305  47.032   5.499  1.00  0.00    -0.264 OA
ATOM     19  H5  UNL     1      29.083  45.466   5.632  1.00  0.00     0.190 HD
BRANCH  17  20
HETATM   20  C7  UNL     1      27.569  46.674   7.419  1.00  0.00     0.164 A 
HETATM   21  N6  UNL     1      27.451  45.782   8.389  1.00  0.00    -0.286 N 
HETATM   22  N7  UNL     1      27.695  46.086   9.594  1.00  0.00    -0.259 N 
ATOM     23  H6  UNL     1      27.158  44.831   8.161  1.00  0.00     0.188 HD
HETATM   24  C8  UNL     1      28.078  47.337   9.874  1.00  0.00     0.304 A 
ATOM     25  H7  UNL     1      27.601  45.393  10.335  1.00  0.00     0.191 HD
HETATM   26  O4  UNL     1      28.366  47.825  11.024  1.00  0.00    -0.258 OA
HETATM   27  S2  UNL     1      28.072  48.057   8.324  1.00  0.00    -0.003 SA
ENDBRANCH  17  20
ENDBRANCH   1  16
TORSDOF 4
ENDMDL
