MODEL 1
REMARK VINA RESULT: -8.316537140      0.000      0.000
REMARK  8 active torsions:
REMARK  status: ('A' for Active; 'I' for Inactive)
REMARK    1  A    between atoms: C2_2  and  C3_3 
REMARK       I    between atoms: C3_3  and  N1_5 
REMARK    2  A    between atoms: N1_5  and  C4_7 
REMARK    3  A    between atoms: C6_14  and  N5_15 
REMARK    4  A    between atoms: N5_15  and  C7_17 
REMARK    5  A    between atoms: C9_19  and  N6_20 
REMARK    6  A    between atoms: C11_27  and  O2_28 
REMARK    7  A    between atoms: C12_30  and  N8_31 
REMARK    8  A    between atoms: N8_31  and  O3_33 
ROOT
HETATM    1  C4  UNL     1      29.024  48.070  10.605  1.00  0.00     0.110 A 
HETATM    2  C5  UNL     1      29.189  46.983  11.372  1.00  0.00     0.160 A 
HETATM    3  N2  UNL     1      29.878  47.045  12.640  1.00  0.00    -0.079 NA
HETATM    4  N3  UNL     1      28.730  45.774  10.986  1.00  0.00    -0.284 N 
ATOM      5  H3  UNL     1      28.872  44.965  11.591  1.00  0.00     0.188 HD
HETATM    6  N4  UNL     1      28.089  45.626   9.813  1.00  0.00    -0.282 N 
ATOM      7  H4  UNL     1      27.755  44.700   9.547  1.00  0.00     0.188 HD
HETATM    8  C6  UNL     1      27.874  46.653   8.985  1.00  0.00     0.147 A 
HETATM    9  C12 UNL     1      28.344  47.889   9.381  1.00  0.00     0.129 A 
ENDROOT
BRANCH   8  10
HETATM   10  N5  UNL     1      27.337  46.524   7.853  1.00  0.00    -0.364 N 
ATOM     11  H5  UNL     1      26.388  46.890   7.780  1.00  0.00     0.161 HD
BRANCH  10  12
HETATM   12  C7  UNL     1      27.853  45.947   6.662  1.00  0.00     0.133 C 
HETATM   13  C8  UNL     1      26.911  45.620   5.569  1.00  0.00     0.064 C 
HETATM   14  C9  UNL     1      27.665  44.934   4.439  1.00  0.00     0.203 C 
HETATM   15  C10 UNL     1      29.149  44.830   4.663  1.00  0.00     0.149 C 
HETATM   16  N7  UNL     1      29.747  46.015   5.195  1.00  0.00    -0.393 N 
HETATM   17  C11 UNL     1      28.962  46.832   6.055  1.00  0.00     0.236 C 
ATOM     18  H7  UNL     1      30.708  46.267   4.964  1.00  0.00     0.155 HD
BRANCH  14  19
HETATM   19  N6  UNL     1      27.375  45.537   3.157  1.00  0.00    -0.073 N 
ATOM     20  H63 UNL     1      27.198  44.828   2.445  1.00  0.00     0.274 HD
ATOM     21  H62 UNL     1      26.462  45.993   3.159  1.00  0.00     0.274 HD
ATOM     22  H61 UNL     1      28.110  46.181   2.866  1.00  0.00     0.274 HD
ENDBRANCH  14  19
BRANCH  17  23
HETATM   23  O2  UNL     1      28.387  47.909   5.401  1.00  0.00    -0.375 OA
ATOM     24  H2  UNL     1      28.635  47.892   4.484  1.00  0.00     0.212 HD
ENDBRANCH  17  23
ENDBRANCH  10  12
ENDBRANCH   8  10
BRANCH   9  25
HETATM   25  N8  UNL     1      28.160  49.020   8.555  1.00  0.00    -0.263 N 
ATOM     26  H8  UNL     1      27.265  49.507   8.510  1.00  0.00     0.194 HD
BRANCH  25  27
HETATM   27  O3  UNL     1      29.165  49.408   7.865  1.00  0.00    -0.289 OA
ATOM     28  H3  UNL     1      29.358  50.338   7.866  1.00  0.00     0.244 HD
ENDBRANCH  25  27
ENDBRANCH   9  25
BRANCH   1  29
HETATM   29  N1  UNL     1      29.581  49.327  10.894  1.00  0.00    -0.319 N 
HETATM   30  C3  UNL     1      30.908  49.773  10.746  1.00  0.00     0.245 C 
HETATM   31  O1  UNL     1      31.801  48.987  10.280  1.00  0.00    -0.268 OA
ATOM     32  H1  UNL     1      28.929  50.016  11.267  1.00  0.00     0.169 HD
BRANCH  30  33
HETATM   33  C2  UNL     1      31.325  51.093  11.080  1.00  0.00     0.064 C 
HETATM   34  C1  UNL     1      32.551  51.521  10.825  1.00  0.00     0.017 C 
ENDBRANCH  30  33
ENDBRANCH   1  29
TORSDOF 8
ENDMDL
MODEL 2
REMARK VINA RESULT: -8.156874907      2.317      3.729
REMARK  8 active torsions:
REMARK  status: ('A' for Active; 'I' for Inactive)
REMARK    1  A    between atoms: C2_2  and  C3_3 
REMARK       I    between atoms: C3_3  and  N1_5 
REMARK    2  A    between atoms: N1_5  and  C4_7 
REMARK    3  A    between atoms: C6_14  and  N5_15 
REMARK    4  A    between atoms: N5_15  and  C7_17 
REMARK    5  A    between atoms: C9_19  and  N6_20 
REMARK    6  A    between atoms: C11_27  and  O2_28 
REMARK    7  A    between atoms: C12_30  and  N8_31 
REMARK    8  A    between atoms: N8_31  and  O3_33 
ROOT
HETATM    1  C4  UNL     1      28.489  47.651   9.873  1.00  0.00     0.110 A 
HETATM    2  C5  UNL     1      29.111  48.819   9.659  1.00  0.00     0.160 A 
HETATM    3  N2  UNL     1      29.795  49.522  10.719  1.00  0.00    -0.079 NA
HETATM    4  N3  UNL     1      29.114  49.401   8.442  1.00  0.00    -0.284 N 
ATOM      5  H3  UNL     1      29.595  50.291   8.310  1.00  0.00     0.188 HD
HETATM    6  N4  UNL     1      28.489  48.820   7.403  1.00  0.00    -0.282 N 
ATOM      7  H4  UNL     1      28.505  49.284   6.494  1.00  0.00     0.188 HD
HETATM    8  C6  UNL     1      27.846  47.653   7.520  1.00  0.00     0.147 A 
HETATM    9  C12 UNL     1      27.844  47.059   8.766  1.00  0.00     0.129 A 
ENDROOT
BRANCH   8  10
HETATM   10  N5  UNL     1      27.197  47.127   6.578  1.00  0.00    -0.364 N 
ATOM     11  H5  UNL     1      26.192  47.301   6.595  1.00  0.00     0.161 HD
BRANCH  10  12
HETATM   12  C7  UNL     1      27.652  46.327   5.495  1.00  0.00     0.133 C 
HETATM   13  C8  UNL     1      29.044  45.826   5.522  1.00  0.00     0.064 C 
HETATM   14  C9  UNL     1      29.336  45.076   4.230  1.00  0.00     0.203 C 
HETATM   15  C10 UNL     1      28.156  44.958   3.305  1.00  0.00     0.149 C 
HETATM   16  N7  UNL     1      26.926  44.634   3.961  1.00  0.00    -0.393 N 
HETATM   17  C11 UNL     1      26.734  45.103   5.290  1.00  0.00     0.236 C 
ATOM     18  H7  UNL     1      26.209  44.084   3.489  1.00  0.00     0.155 HD
BRANCH  14  19
HETATM   19  N6  UNL     1      29.928  43.781   4.484  1.00  0.00    -0.073 N 
ATOM     20  H63 UNL     1      29.213  43.065   4.610  1.00  0.00     0.274 HD
ATOM     21  H62 UNL     1      30.381  43.409   3.650  1.00  0.00     0.274 HD
ATOM     22  H61 UNL     1      30.571  43.808   5.275  1.00  0.00     0.274 HD
ENDBRANCH  14  19
BRANCH  17  23
HETATM   23  O2  UNL     1      27.022  44.145   6.248  1.00  0.00    -0.375 OA
ATOM     24  H2  UNL     1      26.451  44.265   6.997  1.00  0.00     0.212 HD
ENDBRANCH  17  23
ENDBRANCH  10  12
ENDBRANCH   8  10
BRANCH   9  25
HETATM   25  N8  UNL     1      27.180  45.829   8.968  1.00  0.00    -0.263 N 
ATOM     26  H8  UNL     1      27.674  45.009   9.322  1.00  0.00     0.194 HD
BRANCH  25  27
HETATM   27  O3  UNL     1      25.933  45.787   8.688  1.00  0.00    -0.289 OA
ATOM     28  H3  UNL     1      25.323  45.898   9.408  1.00  0.00     0.244 HD
ENDBRANCH  25  27
ENDBRANCH   9  25
BRANCH   1  29
HETATM   29  N1  UNL     1      28.349  47.057  11.139  1.00  0.00    -0.319 N 
HETATM   30  C3  UNL     1      28.962  45.901  11.658  1.00  0.00     0.245 C 
HETATM   31  O1  UNL     1      29.785  45.236  10.943  1.00  0.00    -0.268 OA
ATOM     32  H1  UNL     1      27.710  47.533  11.775  1.00  0.00     0.169 HD
BRANCH  30  33
HETATM   33  C2  UNL     1      28.723  45.420  12.978  1.00  0.00     0.064 C 
HETATM   34  C1  UNL     1      28.335  44.176  13.204  1.00  0.00     0.017 C 
ENDBRANCH  30  33
ENDBRANCH   1  29
TORSDOF 8
ENDMDL
MODEL 3
REMARK VINA RESULT: -7.921761916      3.222      5.093
REMARK  8 active torsions:
REMARK  status: ('A' for Active; 'I' for Inactive)
REMARK    1  A    between atoms: C2_2  and  C3_3 
REMARK       I    between atoms: C3_3  and  N1_5 
REMARK    2  A    between atoms: N1_5  and  C4_7 
REMARK    3  A    between atoms: C6_14  and  N5_15 
REMARK    4  A    between atoms: N5_15  and  C7_17 
REMARK    5  A    between atoms: C9_19  and  N6_20 
REMARK    6  A    between atoms: C11_27  and  O2_28 
REMARK    7  A    between atoms: C12_30  and  N8_31 
REMARK    8  A    between atoms: N8_31  and  O3_33 
ROOT
HETATM    1  C4  UNL     1      33.559  50.714   9.324  1.00  0.00     0.110 A 
HETATM    2  C5  UNL     1      34.106  50.462   8.127  1.00  0.00     0.160 A 
HETATM    3  N2  UNL     1      35.135  51.308   7.567  1.00  0.00    -0.079 NA
HETATM    4  N3  UNL     1      33.709  49.412   7.379  1.00  0.00    -0.284 N 
ATOM      5  H3  UNL     1      34.143  49.246   6.471  1.00  0.00     0.188 HD
HETATM    6  N4  UNL     1      32.747  48.581   7.819  1.00  0.00    -0.282 N 
ATOM      7  H4  UNL     1      32.465  47.797   7.231  1.00  0.00     0.188 HD
HETATM    8  C6  UNL     1      32.147  48.751   9.002  1.00  0.00     0.147 A 
HETATM    9  C12 UNL     1      32.554  49.826   9.765  1.00  0.00     0.129 A 
ENDROOT
BRANCH   8  10
HETATM   10  N5  UNL     1      31.198  48.027   9.402  1.00  0.00    -0.364 N 
ATOM     11  H5  UNL     1      31.343  47.587  10.311  1.00  0.00     0.161 HD
BRANCH  10  12
HETATM   12  C7  UNL     1      29.955  47.729   8.780  1.00  0.00     0.133 C 
HETATM   13  C8  UNL     1      29.312  46.428   9.072  1.00  0.00     0.064 C 
HETATM   14  C9  UNL     1      28.049  46.290   8.234  1.00  0.00     0.203 C 
HETATM   15  C10 UNL     1      27.727  47.499   7.400  1.00  0.00     0.149 C 
HETATM   16  N7  UNL     1      27.900  48.745   8.082  1.00  0.00    -0.393 N 
HETATM   17  C11 UNL     1      28.912  48.827   9.078  1.00  0.00     0.236 C 
ATOM     18  H7  UNL     1      27.315  49.550   7.861  1.00  0.00     0.155 HD
BRANCH  14  19
HETATM   19  N6  UNL     1      26.914  45.895   9.037  1.00  0.00    -0.073 N 
ATOM     20  H63 UNL     1      26.295  45.268   8.523  1.00  0.00     0.274 HD
ATOM     21  H62 UNL     1      27.192  45.263   9.789  1.00  0.00     0.274 HD
ATOM     22  H61 UNL     1      26.407  46.702   9.399  1.00  0.00     0.274 HD
ENDBRANCH  14  19
BRANCH  17  23
HETATM   23  O2  UNL     1      28.421  48.661  10.362  1.00  0.00    -0.375 OA
ATOM     24  H2  UNL     1      28.609  49.438  10.876  1.00  0.00     0.212 HD
ENDBRANCH  17  23
ENDBRANCH  10  12
ENDBRANCH   8  10
BRANCH   9  25
HETATM   25  N8  UNL     1      31.961  50.073  11.023  1.00  0.00    -0.263 N 
ATOM     26  H8  UNL     1      32.356  49.689  11.882  1.00  0.00     0.194 HD
BRANCH  25  27
HETATM   27  O3  UNL     1      30.908  50.798  11.039  1.00  0.00    -0.289 OA
ATOM     28  H3  UNL     1      30.980  51.658  11.436  1.00  0.00     0.244 HD
ENDBRANCH  25  27
ENDBRANCH   9  25
BRANCH   1  29
HETATM   29  N1  UNL     1      33.844  51.855  10.092  1.00  0.00    -0.319 N 
HETATM   30  C3  UNL     1      34.899  52.087  10.995  1.00  0.00     0.245 C 
HETATM   31  O1  UNL     1      35.776  51.181  11.201  1.00  0.00    -0.268 OA
ATOM     32  H1  UNL     1      33.189  52.629   9.980  1.00  0.00     0.169 HD
BRANCH  30  33
HETATM   33  C2  UNL     1      35.061  53.311  11.703  1.00  0.00     0.064 C 
HETATM   34  C1  UNL     1      36.049  54.148  11.429  1.00  0.00     0.017 C 
ENDBRANCH  30  33
ENDBRANCH   1  29
TORSDOF 8
ENDMDL
MODEL 4
REMARK VINA RESULT: -7.740941376      2.076      6.757
REMARK  8 active torsions:
REMARK  status: ('A' for Active; 'I' for Inactive)
REMARK    1  A    between atoms: C2_2  and  C3_3 
REMARK       I    between atoms: C3_3  and  N1_5 
REMARK    2  A    between atoms: N1_5  and  C4_7 
REMARK    3  A    between atoms: C6_14  and  N5_15 
REMARK    4  A    between atoms: N5_15  and  C7_17 
REMARK    5  A    between atoms: C9_19  and  N6_20 
REMARK    6  A    between atoms: C11_27  and  O2_28 
REMARK    7  A    between atoms: C12_30  and  N8_31 
REMARK    8  A    between atoms: N8_31  and  O3_33 
ROOT
HETATM    1  C4  UNL     1      27.497  45.892   6.407  1.00  0.00     0.110 A 
HETATM    2  C5  UNL     1      26.418  45.875   7.201  1.00  0.00     0.160 A 
HETATM    3  N2  UNL     1      25.078  45.842   6.664  1.00  0.00    -0.079 NA
HETATM    4  N3  UNL     1      26.534  45.905   8.545  1.00  0.00    -0.284 N 
ATOM      5  H3  UNL     1      25.695  45.893   9.125  1.00  0.00     0.188 HD
HETATM    6  N4  UNL     1      27.746  45.951   9.128  1.00  0.00    -0.282 N 
ATOM      7  H4  UNL     1      27.804  45.975  10.146  1.00  0.00     0.188 HD
HETATM    8  C6  UNL     1      28.878  45.965   8.416  1.00  0.00     0.147 A 
HETATM    9  C12 UNL     1      28.757  45.935   7.042  1.00  0.00     0.129 A 
ENDROOT
BRANCH   8  10
HETATM   10  N5  UNL     1      30.018  46.077   8.939  1.00  0.00    -0.364 N 
ATOM     11  H5  UNL     1      30.622  45.261   8.837  1.00  0.00     0.161 HD
BRANCH  10  12
HETATM   12  C7  UNL     1      30.591  47.166   9.649  1.00  0.00     0.133 C 
HETATM   13  C8  UNL     1      29.993  48.510   9.486  1.00  0.00     0.064 C 
HETATM   14  C9  UNL     1      30.818  49.528  10.261  1.00  0.00     0.203 C 
HETATM   15  C10 UNL     1      31.955  48.931  11.044  1.00  0.00     0.149 C 
HETATM   16  N7  UNL     1      31.621  47.727  11.740  1.00  0.00    -0.393 N 
HETATM   17  C11 UNL     1      30.640  46.873  11.163  1.00  0.00     0.236 C 
ATOM     18  H7  UNL     1      32.072  47.487  12.622  1.00  0.00     0.155 HD
BRANCH  14  19
HETATM   19  N6  UNL     1      29.988  50.361  11.102  1.00  0.00    -0.073 N 
ATOM     20  H63 UNL     1      29.063  49.952  11.232  1.00  0.00     0.274 HD
ATOM     21  H62 UNL     1      30.307  50.345  12.071  1.00  0.00     0.274 HD
ATOM     22  H61 UNL     1      29.926  51.315  10.747  1.00  0.00     0.274 HD
ENDBRANCH  14  19
BRANCH  17  23
HETATM   23  O2  UNL     1      29.379  47.052  11.709  1.00  0.00    -0.375 OA
ATOM     24  H2  UNL     1      28.827  46.314  11.480  1.00  0.00     0.212 HD
ENDBRANCH  17  23
ENDBRANCH  10  12
ENDBRANCH   8  10
BRANCH   9  25
HETATM   25  N8  UNL     1      29.908  45.955   6.224  1.00  0.00    -0.263 N 
ATOM     26  H8  UNL     1      30.250  46.821   5.806  1.00  0.00     0.194 HD
BRANCH  25  27
HETATM   27  O3  UNL     1      30.504  44.840   6.029  1.00  0.00    -0.289 OA
ATOM     28  H3  UNL     1      31.442  44.819   6.180  1.00  0.00     0.244 HD
ENDBRANCH  25  27
ENDBRANCH   9  25
BRANCH   1  29
HETATM   29  N1  UNL     1      27.438  45.984   5.006  1.00  0.00    -0.319 N 
HETATM   30  C3  UNL     1      27.748  45.016   4.031  1.00  0.00     0.245 C 
HETATM   31  O1  UNL     1      28.142  43.853   4.385  1.00  0.00    -0.268 OA
ATOM     32  H1  UNL     1      27.126  46.883   4.641  1.00  0.00     0.169 HD
BRANCH  30  33
HETATM   33  C2  UNL     1      27.631  45.257   2.632  1.00  0.00     0.064 C 
HETATM   34  C1  UNL     1      28.375  44.608   1.751  1.00  0.00     0.017 C 
ENDBRANCH  30  33
ENDBRANCH   1  29
TORSDOF 8
ENDMDL
MODEL 5
REMARK VINA RESULT: -7.711028614      2.538      3.937
REMARK  8 active torsions:
REMARK  status: ('A' for Active; 'I' for Inactive)
REMARK    1  A    between atoms: C2_2  and  C3_3 
REMARK       I    between atoms: C3_3  and  N1_5 
REMARK    2  A    between atoms: N1_5  and  C4_7 
REMARK    3  A    between atoms: C6_14  and  N5_15 
REMARK    4  A    between atoms: N5_15  and  C7_17 
REMARK    5  A    between atoms: C9_19  and  N6_20 
REMARK    6  A    between atoms: C11_27  and  O2_28 
REMARK    7  A    between atoms: C12_30  and  N8_31 
REMARK    8  A    between atoms: N8_31  and  O3_33 
ROOT
HETATM    1  C4  UNL     1      28.542  47.495   8.639  1.00  0.00     0.110 A 
HETATM    2  C5  UNL     1      29.127  48.627   8.221  1.00  0.00     0.160 A 
HETATM    3  N2  UNL     1      29.681  49.584   9.150  1.00  0.00    -0.079 NA
HETATM    4  N3  UNL     1      29.211  48.932   6.910  1.00  0.00    -0.284 N 
ATOM      5  H3  UNL     1      29.660  49.801   6.622  1.00  0.00     0.188 HD
HETATM    6  N4  UNL     1      28.708  48.101   5.979  1.00  0.00    -0.282 N 
ATOM      7  H4  UNL     1      28.783  48.359   4.995  1.00  0.00     0.188 HD
HETATM    8  C6  UNL     1      28.112  46.949   6.301  1.00  0.00     0.147 A 
HETATM    9  C12 UNL     1      28.026  46.638   7.643  1.00  0.00     0.129 A 
ENDROOT
BRANCH   8  10
HETATM   10  N5  UNL     1      27.574  46.191   5.451  1.00  0.00    -0.364 N 
ATOM     11  H5  UNL     1      26.561  46.103   5.530  1.00  0.00     0.161 HD
BRANCH  10  12
HETATM   12  C7  UNL     1      28.164  45.440   4.399  1.00  0.00     0.133 C 
HETATM   13  C8  UNL     1      29.187  44.427   4.741  1.00  0.00     0.064 C 
HETATM   14  C9  UNL     1      29.740  43.815   3.461  1.00  0.00     0.203 C 
HETATM   15  C10 UNL     1      29.079  44.312   2.205  1.00  0.00     0.149 C 
HETATM   16  N7  UNL     1      27.655  44.415   2.292  1.00  0.00    -0.393 N 
HETATM   17  C11 UNL     1      27.084  44.727   3.558  1.00  0.00     0.236 C 
ATOM     18  H7  UNL     1      27.066  44.270   1.472  1.00  0.00     0.155 HD
BRANCH  14  19
HETATM   19  N6  UNL     1      29.738  42.370   3.513  1.00  0.00    -0.073 N 
ATOM     20  H63 UNL     1      29.172  42.028   4.290  1.00  0.00     0.274 HD
ATOM     21  H62 UNL     1      29.206  41.971   2.740  1.00  0.00     0.274 HD
ATOM     22  H61 UNL     1      30.684  41.991   3.547  1.00  0.00     0.274 HD
ENDBRANCH  14  19
BRANCH  17  23
HETATM   23  O2  UNL     1      26.634  43.607   4.238  1.00  0.00    -0.375 OA
ATOM     24  H2  UNL     1      25.686  43.571   4.196  1.00  0.00     0.212 HD
ENDBRANCH  17  23
ENDBRANCH  10  12
ENDBRANCH   8  10
BRANCH   9  25
HETATM   25  N8  UNL     1      27.404  45.441   8.060  1.00  0.00    -0.263 N 
ATOM     26  H8  UNL     1      27.804  44.528   7.840  1.00  0.00     0.194 HD
BRANCH  25  27
HETATM   27  O3  UNL     1      26.317  45.549   8.725  1.00  0.00    -0.289 OA
ATOM     28  H3  UNL     1      25.859  46.380   8.673  1.00  0.00     0.244 HD
ENDBRANCH  25  27
ENDBRANCH   9  25
BRANCH   1  29
HETATM   29  N1  UNL     1      28.318  47.180   9.990  1.00  0.00    -0.319 N 
HETATM   30  C3  UNL     1      29.146  46.494  10.899  1.00  0.00     0.245 C 
HETATM   31  O1  UNL     1      30.290  46.065  10.526  1.00  0.00    -0.268 OA
ATOM     32  H1  UNL     1      27.424  47.494  10.367  1.00  0.00     0.169 HD
BRANCH  30  33
HETATM   33  C2  UNL     1      28.780  46.254  12.254  1.00  0.00     0.064 C 
HETATM   34  C1  UNL     1      28.732  45.030  12.754  1.00  0.00     0.017 C 
ENDBRANCH  30  33
ENDBRANCH   1  29
TORSDOF 8
ENDMDL
