MODEL 1
REMARK VINA RESULT: -8.060231355      0.000      0.000
REMARK  8 active torsions:
REMARK  status: ('A' for Active; 'I' for Inactive)
REMARK    1  A    between atoms: C7_16  and  S1_17 
REMARK    2  A    between atoms: S1_17  and  S2_18 
REMARK    3  A    between atoms: S2_18  and  N5_19 
REMARK    4  A    between atoms: N5_19  and  N6_20 
REMARK    5  A    between atoms: N5_19  and  C8_23 
REMARK    6  A    between atoms: C8_23  and  C10_25 
REMARK    7  A    between atoms: C10_25  and  O2_26 
REMARK    8  A    between atoms: C10_25  and  O3_28 
ROOT
HETATM    1  C1  UNL     1      26.728  46.092   8.022  1.00  0.00     0.038 C 
HETATM    2  C2  UNL     1      27.496  46.074   9.292  1.00  0.00     0.001 C 
HETATM    3  C3  UNL     1      28.475  46.938   9.505  1.00  0.00     0.064 C 
HETATM    4  N1  UNL     1      28.775  47.882   8.493  1.00  0.00    -0.191 N 
ATOM      5  H1  UNL     1      28.391  47.661   7.574  1.00  0.00     0.184 HD
HETATM    6  C4  UNL     1      29.532  49.103   8.551  1.00  0.00     0.679 C 
HETATM    7  N2  UNL     1      29.790  49.672   7.446  1.00  0.00    -0.234 N 
ATOM      8  H21 UNL     1      30.327  50.539   7.487  1.00  0.00     0.174 HD
ATOM      9  H22 UNL     1      29.439  49.216   6.604  1.00  0.00     0.174 HD
HETATM   10  N3  UNL     1      30.021  49.738   9.726  1.00  0.00    -0.155 N 
ATOM     11  H3  UNL     1      30.406  50.675   9.615  1.00  0.00     0.187 HD
HETATM   12  C5  UNL     1      30.024  49.194  11.037  1.00  0.00     0.285 C 
HETATM   13  O1  UNL     1      30.228  50.019  11.979  1.00  0.00    -0.266 OA
HETATM   14  C6  UNL     1      29.816  47.771  11.445  1.00  0.00     0.134 C 
HETATM   15  N4  UNL     1      30.449  47.485  12.680  1.00  0.00    -0.095 NA
HETATM   16  C7  UNL     1      29.171  46.822  10.814  1.00  0.00     0.069 C 
ENDROOT
BRANCH  16  17
HETATM   17  S1  UNL     1      29.105  45.230  11.555  1.00  0.00    -0.035 SA
BRANCH  17  18
HETATM   18  S2  UNL     1      28.335  45.107  13.481  1.00  0.00     0.017 SA
BRANCH  18  19
HETATM   19  N5  UNL     1      28.022  43.455  14.005  1.00  0.00    -0.157 NA
BRANCH  19  20
HETATM   20  N6  UNL     1      27.841  42.625  12.899  1.00  0.00    -0.353 NA
ATOM     21  H62 UNL     1      27.842  41.631  13.129  1.00  0.00     0.172 HD
ATOM     22  H61 UNL     1      26.993  42.887  12.397  1.00  0.00     0.172 HD
ENDBRANCH  19  20
BRANCH  19  23
HETATM   23  C8  UNL     1      26.942  43.408  14.941  1.00  0.00     0.143 C 
HETATM   24  C9  UNL     1      26.925  44.646  15.817  1.00  0.00     0.034 C 
BRANCH  23  25
HETATM   25  C10 UNL     1      26.960  42.150  15.800  1.00  0.00     0.273 C 
BRANCH  25  26
HETATM   26  O2  UNL     1      28.069  42.111  16.627  1.00  0.00    -0.370 OA
ATOM     27  H2  UNL     1      28.222  42.948  17.049  1.00  0.00     0.212 HD
ENDBRANCH  25  26
BRANCH  25  28
HETATM   28  O3  UNL     1      25.774  42.159  16.549  1.00  0.00    -0.370 OA
ATOM     29  H3  UNL     1      25.694  41.297  16.941  1.00  0.00     0.212 HD
ENDBRANCH  25  28
ENDBRANCH  23  25
ENDBRANCH  19  23
ENDBRANCH  18  19
ENDBRANCH  17  18
ENDBRANCH  16  17
TORSDOF 8
ENDMDL
MODEL 2
REMARK VINA RESULT: -7.927675525      4.713      6.086
REMARK  8 active torsions:
REMARK  status: ('A' for Active; 'I' for Inactive)
REMARK    1  A    between atoms: C7_16  and  S1_17 
REMARK    2  A    between atoms: S1_17  and  S2_18 
REMARK    3  A    between atoms: S2_18  and  N5_19 
REMARK    4  A    between atoms: N5_19  and  N6_20 
REMARK    5  A    between atoms: N5_19  and  C8_23 
REMARK    6  A    between atoms: C8_23  and  C10_25 
REMARK    7  A    between atoms: C10_25  and  O2_26 
REMARK    8  A    between atoms: C10_25  and  O3_28 
ROOT
HETATM    1  C1  UNL     1      29.128  45.362  10.792  1.00  0.00     0.038 C 
HETATM    2  C2  UNL     1      29.934  45.653   9.581  1.00  0.00     0.001 C 
HETATM    3  C3  UNL     1      30.347  46.882   9.319  1.00  0.00     0.064 C 
HETATM    4  N1  UNL     1      30.002  47.917  10.222  1.00  0.00    -0.191 N 
ATOM      5  H1  UNL     1      29.245  47.688  10.866  1.00  0.00     0.184 HD
HETATM    6  C4  UNL     1      30.546  49.238  10.378  1.00  0.00     0.679 C 
HETATM    7  N2  UNL     1      29.927  50.026  11.159  1.00  0.00    -0.234 N 
ATOM      8  H21 UNL     1      30.313  50.964  11.269  1.00  0.00     0.174 HD
ATOM      9  H22 UNL     1      29.091  49.658  11.612  1.00  0.00     0.174 HD
HETATM   10  N3  UNL     1      31.711  49.752   9.746  1.00  0.00    -0.155 N 
ATOM     11  H3  UNL     1      32.054  50.653  10.076  1.00  0.00     0.187 HD
HETATM   12  C5  UNL     1      32.444  49.131   8.699  1.00  0.00     0.285 C 
HETATM   13  O1  UNL     1      33.601  49.601   8.478  1.00  0.00    -0.266 OA
HETATM   14  C6  UNL     1      32.020  47.993   7.828  1.00  0.00     0.134 C 
HETATM   15  N4  UNL     1      32.683  48.021   6.576  1.00  0.00    -0.095 NA
HETATM   16  C7  UNL     1      31.148  47.048   8.077  1.00  0.00     0.069 C 
ENDROOT
BRANCH  16  17
HETATM   17  S1  UNL     1      30.858  45.838   6.836  1.00  0.00    -0.035 SA
BRANCH  17  18
HETATM   18  S2  UNL     1      29.092  45.992   5.752  1.00  0.00     0.017 SA
BRANCH  18  19
HETATM   19  N5  UNL     1      27.673  45.457   6.646  1.00  0.00    -0.157 NA
BRANCH  19  20
HETATM   20  N6  UNL     1      27.085  44.365   6.008  1.00  0.00    -0.353 NA
ATOM     21  H62 UNL     1      26.392  43.881   6.579  1.00  0.00     0.172 HD
ATOM     22  H61 UNL     1      26.689  44.652   5.112  1.00  0.00     0.172 HD
ENDBRANCH  19  20
BRANCH  19  23
HETATM   23  C8  UNL     1      26.770  46.541   6.877  1.00  0.00     0.143 C 
HETATM   24  C9  UNL     1      27.480  47.712   7.530  1.00  0.00     0.034 C 
BRANCH  23  25
HETATM   25  C10 UNL     1      25.553  46.133   7.698  1.00  0.00     0.273 C 
BRANCH  25  26
HETATM   26  O2  UNL     1      24.614  45.473   6.925  1.00  0.00    -0.370 OA
ATOM     27  H2  UNL     1      24.586  45.815   6.039  1.00  0.00     0.212 HD
ENDBRANCH  25  26
BRANCH  25  28
HETATM   28  O3  UNL     1      26.023  45.310   8.730  1.00  0.00    -0.370 OA
ATOM     29  H3  UNL     1      26.843  45.688   9.027  1.00  0.00     0.212 HD
ENDBRANCH  25  28
ENDBRANCH  23  25
ENDBRANCH  19  23
ENDBRANCH  18  19
ENDBRANCH  17  18
ENDBRANCH  16  17
TORSDOF 8
ENDMDL
MODEL 3
REMARK VINA RESULT: -7.864167445      6.658      9.214
REMARK  8 active torsions:
REMARK  status: ('A' for Active; 'I' for Inactive)
REMARK    1  A    between atoms: C7_16  and  S1_17 
REMARK    2  A    between atoms: S1_17  and  S2_18 
REMARK    3  A    between atoms: S2_18  and  N5_19 
REMARK    4  A    between atoms: N5_19  and  N6_20 
REMARK    5  A    between atoms: N5_19  and  C8_23 
REMARK    6  A    between atoms: C8_23  and  C10_25 
REMARK    7  A    between atoms: C10_25  and  O2_26 
REMARK    8  A    between atoms: C10_25  and  O3_28 
ROOT
HETATM    1  C1  UNL     1      31.710  47.749   7.453  1.00  0.00     0.038 C 
HETATM    2  C2  UNL     1      30.640  47.129   6.632  1.00  0.00     0.001 C 
HETATM    3  C3  UNL     1      29.629  46.495   7.202  1.00  0.00     0.064 C 
HETATM    4  N1  UNL     1      29.589  46.421   8.615  1.00  0.00    -0.191 N 
ATOM      5  H1  UNL     1      30.472  46.633   9.080  1.00  0.00     0.184 HD
HETATM    6  C4  UNL     1      28.505  46.095   9.501  1.00  0.00     0.679 C 
HETATM    7  N2  UNL     1      28.794  45.933  10.727  1.00  0.00    -0.234 N 
ATOM      8  H21 UNL     1      28.024  45.702  11.356  1.00  0.00     0.174 HD
ATOM      9  H22 UNL     1      29.773  46.047  10.985  1.00  0.00     0.174 HD
HETATM   10  N3  UNL     1      27.138  45.936   9.141  1.00  0.00    -0.155 N 
ATOM     11  H3  UNL     1      26.468  45.857   9.905  1.00  0.00     0.187 HD
HETATM   12  C5  UNL     1      26.617  45.876   7.822  1.00  0.00     0.285 C 
HETATM   13  O1  UNL     1      25.362  46.026   7.714  1.00  0.00    -0.266 OA
HETATM   14  C6  UNL     1      27.364  45.661   6.545  1.00  0.00     0.134 C 
HETATM   15  N4  UNL     1      26.538  45.082   5.550  1.00  0.00    -0.095 NA
HETATM   16  C7  UNL     1      28.620  45.917   6.275  1.00  0.00     0.069 C 
ENDROOT
BRANCH  16  17
HETATM   17  S1  UNL     1      29.215  45.542   4.664  1.00  0.00    -0.035 SA
BRANCH  17  18
HETATM   18  S2  UNL     1      29.419  43.535   4.168  1.00  0.00     0.017 SA
BRANCH  18  19
HETATM   19  N5  UNL     1      28.240  42.984   2.981  1.00  0.00    -0.157 NA
BRANCH  19  20
HETATM   20  N6  UNL     1      26.952  43.065   3.509  1.00  0.00    -0.353 NA
ATOM     21  H62 UNL     1      26.656  44.018   3.724  1.00  0.00     0.172 HD
ATOM     22  H61 UNL     1      26.287  42.605   2.888  1.00  0.00     0.172 HD
ENDBRANCH  19  20
BRANCH  19  23
HETATM   23  C8  UNL     1      28.577  41.687   2.484  1.00  0.00     0.143 C 
HETATM   24  C9  UNL     1      30.035  41.365   2.745  1.00  0.00     0.034 C 
BRANCH  23  25
HETATM   25  C10 UNL     1      28.251  41.518   1.006  1.00  0.00     0.273 C 
BRANCH  25  26
HETATM   26  O2  UNL     1      26.889  41.587   0.771  1.00  0.00    -0.370 OA
ATOM     27  H2  UNL     1      26.613  40.957   0.116  1.00  0.00     0.212 HD
ENDBRANCH  25  26
BRANCH  25  28
HETATM   28  O3  UNL     1      28.930  42.538   0.326  1.00  0.00    -0.370 OA
ATOM     29  H3  UNL     1      29.395  42.124  -0.392  1.00  0.00     0.212 HD
ENDBRANCH  25  28
ENDBRANCH  23  25
ENDBRANCH  19  23
ENDBRANCH  18  19
ENDBRANCH  17  18
ENDBRANCH  16  17
TORSDOF 8
ENDMDL
MODEL 4
REMARK VINA RESULT: -7.839772491      7.043      9.418
REMARK  8 active torsions:
REMARK  status: ('A' for Active; 'I' for Inactive)
REMARK    1  A    between atoms: C7_16  and  S1_17 
REMARK    2  A    between atoms: S1_17  and  S2_18 
REMARK    3  A    between atoms: S2_18  and  N5_19 
REMARK    4  A    between atoms: N5_19  and  N6_20 
REMARK    5  A    between atoms: N5_19  and  C8_23 
REMARK    6  A    between atoms: C8_23  and  C10_25 
REMARK    7  A    between atoms: C10_25  and  O2_26 
REMARK    8  A    between atoms: C10_25  and  O3_28 
ROOT
HETATM    1  C1  UNL     1      32.442  46.844   6.052  1.00  0.00     0.038 C 
HETATM    2  C2  UNL     1      31.268  46.360   5.283  1.00  0.00     0.001 C 
HETATM    3  C3  UNL     1      30.201  45.884   5.903  1.00  0.00     0.064 C 
HETATM    4  N1  UNL     1      30.202  45.847   7.319  1.00  0.00    -0.191 N 
ATOM      5  H1  UNL     1      31.122  45.945   7.748  1.00  0.00     0.184 HD
HETATM    6  C4  UNL     1      29.117  45.693   8.248  1.00  0.00     0.679 C 
HETATM    7  N2  UNL     1      29.425  45.520   9.468  1.00  0.00    -0.234 N 
ATOM      8  H21 UNL     1      28.655  45.411  10.128  1.00  0.00     0.174 HD
ATOM      9  H22 UNL     1      30.420  45.503   9.690  1.00  0.00     0.174 HD
HETATM   10  N3  UNL     1      27.730  45.716   7.938  1.00  0.00    -0.155 N 
ATOM     11  H3  UNL     1      27.083  45.748   8.726  1.00  0.00     0.187 HD
HETATM   12  C5  UNL     1      27.157  45.700   6.639  1.00  0.00     0.285 C 
HETATM   13  O1  UNL     1      25.931  46.019   6.569  1.00  0.00    -0.266 OA
HETATM   14  C6  UNL     1      27.820  45.356   5.344  1.00  0.00     0.134 C 
HETATM   15  N4  UNL     1      26.888  44.874   4.393  1.00  0.00    -0.095 NA
HETATM   16  C7  UNL     1      29.089  45.430   5.026  1.00  0.00     0.069 C 
ENDROOT
BRANCH  16  17
HETATM   17  S1  UNL     1      29.568  44.942   3.407  1.00  0.00    -0.035 SA
BRANCH  17  18
HETATM   18  S2  UNL     1      30.276  43.003   3.169  1.00  0.00     0.017 SA
BRANCH  18  19
HETATM   19  N5  UNL     1      29.056  41.770   3.473  1.00  0.00    -0.157 NA
BRANCH  19  20
HETATM   20  N6  UNL     1      29.555  40.805   4.347  1.00  0.00    -0.353 NA
ATOM     21  H62 UNL     1      29.062  40.767   5.240  1.00  0.00     0.172 HD
ATOM     22  H61 UNL     1      29.565  39.891   3.894  1.00  0.00     0.172 HD
ENDBRANCH  19  20
BRANCH  19  23
HETATM   23  C8  UNL     1      28.552  41.231   2.249  1.00  0.00     0.143 C 
HETATM   24  C9  UNL     1      29.684  40.794   1.339  1.00  0.00     0.034 C 
BRANCH  23  25
HETATM   25  C10 UNL     1      27.622  42.191   1.518  1.00  0.00     0.273 C 
BRANCH  25  26
HETATM   26  O2  UNL     1      26.832  41.532   0.592  1.00  0.00    -0.370 OA
ATOM     27  H2  UNL     1      26.461  42.133  -0.044  1.00  0.00     0.212 HD
ENDBRANCH  25  26
BRANCH  25  28
HETATM   28  O3  UNL     1      26.837  42.813   2.498  1.00  0.00    -0.370 OA
ATOM     29  H3  UNL     1      26.270  42.141   2.858  1.00  0.00     0.212 HD
ENDBRANCH  25  28
ENDBRANCH  23  25
ENDBRANCH  19  23
ENDBRANCH  18  19
ENDBRANCH  17  18
ENDBRANCH  16  17
TORSDOF 8
ENDMDL
MODEL 5
REMARK VINA RESULT: -7.802401652      6.444      8.749
REMARK  8 active torsions:
REMARK  status: ('A' for Active; 'I' for Inactive)
REMARK    1  A    between atoms: C7_16  and  S1_17 
REMARK    2  A    between atoms: S1_17  and  S2_18 
REMARK    3  A    between atoms: S2_18  and  N5_19 
REMARK    4  A    between atoms: N5_19  and  N6_20 
REMARK    5  A    between atoms: N5_19  and  C8_23 
REMARK    6  A    between atoms: C8_23  and  C10_25 
REMARK    7  A    between atoms: C10_25  and  O2_26 
REMARK    8  A    between atoms: C10_25  and  O3_28 
ROOT
HETATM    1  C1  UNL     1      31.594  48.091   7.364  1.00  0.00     0.038 C 
HETATM    2  C2  UNL     1      30.700  47.140   6.658  1.00  0.00     0.001 C 
HETATM    3  C3  UNL     1      29.621  46.655   7.252  1.00  0.00     0.064 C 
HETATM    4  N1  UNL     1      29.338  47.064   8.577  1.00  0.00    -0.191 N 
ATOM      5  H1  UNL     1      30.121  47.496   9.068  1.00  0.00     0.184 HD
HETATM    6  C4  UNL     1      28.125  46.970   9.343  1.00  0.00     0.679 C 
HETATM    7  N2  UNL     1      28.201  47.261  10.577  1.00  0.00    -0.234 N 
ATOM      8  H21 UNL     1      27.340  47.194  11.121  1.00  0.00     0.174 HD
ATOM      9  H22 UNL     1      29.117  47.538  10.926  1.00  0.00     0.174 HD
HETATM   10  N3  UNL     1      26.846  46.584   8.856  1.00  0.00    -0.155 N 
ATOM     11  H3  UNL     1      26.055  46.714   9.486  1.00  0.00     0.187 HD
HETATM   12  C5  UNL     1      26.564  46.034   7.577  1.00  0.00     0.285 C 
HETATM   13  O1  UNL     1      25.343  46.032   7.232  1.00  0.00    -0.266 OA
HETATM   14  C6  UNL     1      27.526  45.459   6.588  1.00  0.00     0.134 C 
HETATM   15  N4  UNL     1      26.901  44.508   5.744  1.00  0.00    -0.095 NA
HETATM   16  C7  UNL     1      28.803  45.713   6.443  1.00  0.00     0.069 C 
ENDROOT
BRANCH  16  17
HETATM   17  S1  UNL     1      29.678  44.864   5.177  1.00  0.00    -0.035 SA
BRANCH  17  18
HETATM   18  S2  UNL     1      28.849  44.878   3.272  1.00  0.00     0.017 SA
BRANCH  18  19
HETATM   19  N5  UNL     1      28.399  43.277   2.693  1.00  0.00    -0.157 NA
BRANCH  19  20
HETATM   20  N6  UNL     1      27.096  42.972   3.083  1.00  0.00    -0.353 NA
ATOM     21  H62 UNL     1      26.663  43.691   3.664  1.00  0.00     0.172 HD
ATOM     22  H61 UNL     1      26.522  42.766   2.266  1.00  0.00     0.172 HD
ENDBRANCH  19  20
BRANCH  19  23
HETATM   23  C8  UNL     1      29.362  42.297   3.088  1.00  0.00     0.143 C 
HETATM   24  C9  UNL     1      30.695  42.535   2.405  1.00  0.00     0.034 C 
BRANCH  23  25
HETATM   25  C10 UNL     1      28.887  40.870   2.844  1.00  0.00     0.273 C 
BRANCH  25  26
HETATM   26  O2  UNL     1      28.050  40.430   3.855  1.00  0.00    -0.370 OA
ATOM     27  H2  UNL     1      27.160  40.737   3.732  1.00  0.00     0.212 HD
ENDBRANCH  25  26
BRANCH  25  28
HETATM   28  O3  UNL     1      28.224  40.873   1.609  1.00  0.00    -0.370 OA
ATOM     29  H3  UNL     1      27.427  41.376   1.729  1.00  0.00     0.212 HD
ENDBRANCH  25  28
ENDBRANCH  23  25
ENDBRANCH  19  23
ENDBRANCH  18  19
ENDBRANCH  17  18
ENDBRANCH  16  17
TORSDOF 8
ENDMDL
