MODEL 1
REMARK VINA RESULT: -8.956475212      0.000      0.000
REMARK  8 active torsions:
REMARK  status: ('A' for Active; 'I' for Inactive)
REMARK    1  A    between atoms: N1_1  and  C1_4 
REMARK    2  A    between atoms: C2_7  and  N3_8 
REMARK    3  A    between atoms: C4_14  and  C5_15 
REMARK    4  A    between atoms: C5_15  and  C6_16 
REMARK    5  A    between atoms: C5_15  and  N5_21 
REMARK    6  A    between atoms: C6_16  and  C7_17 
REMARK    7  A    between atoms: C7_17  and  C8_18 
REMARK       I    between atoms: N5_21  and  C9_23 
REMARK    8  A    between atoms: C9_23  and  C10_25 
ROOT
HETATM    1  C5  UNL     1      28.149  47.117   8.256  1.00  0.00     0.153 C 
ENDROOT
BRANCH   1   2
HETATM    2  C4  UNL     1      28.073  46.618   6.871  1.00  0.00     0.106 A 
HETATM    3  N4  UNL     1      28.225  45.338   6.509  1.00  0.00    -0.338 N 
HETATM    4  C3  UNL     1      28.101  45.211   5.189  1.00  0.00     0.123 A 
ATOM      5  H4  UNL     1      28.409  44.568   7.153  1.00  0.00     0.167 HD
HETATM    6  C2  UNL     1      28.179  44.101   4.374  1.00  0.00     0.145 A 
HETATM    7  C18 UNL     1      27.861  46.479   4.715  1.00  0.00     0.153 A 
HETATM    8  N2  UNL     1      28.004  44.311   3.050  1.00  0.00    -0.175 N 
HETATM    9  C1  UNL     1      27.766  45.544   2.561  1.00  0.00     0.679 A 
ATOM     10  H2  UNL     1      28.053  43.520   2.408  1.00  0.00     0.186 HD
HETATM   11  N8  UNL     1      27.696  46.615   3.385  1.00  0.00    -0.174 N 
ATOM     12  H8  UNL     1      27.516  47.539   2.994  1.00  0.00     0.186 HD
HETATM   13  N7  UNL     1      27.841  47.347   5.737  1.00  0.00    -0.328 N 
ATOM     14  H7  UNL     1      27.684  48.354   5.679  1.00  0.00     0.169 HD
BRANCH   6  15
HETATM   15  N3  UNL     1      28.406  42.906   4.831  1.00  0.00    -0.383 N 
ATOM     16  H32 UNL     1      29.156  42.312   4.478  1.00  0.00     0.157 HD
ATOM     17  H31 UNL     1      27.829  42.515   5.576  1.00  0.00     0.157 HD
ENDBRANCH   6  15
BRANCH   9  18
HETATM   18  N1  UNL     1      27.611  45.671   1.295  1.00  0.00    -0.234 N 
ATOM     19  H12 UNL     1      27.254  44.902   0.728  1.00  0.00     0.174 HD
ATOM     20  H11 UNL     1      27.853  46.566   0.869  1.00  0.00     0.174 HD
ENDBRANCH   9  18
ENDBRANCH   1   2
BRANCH   1  21
HETATM   21  C6  UNL     1      27.710  46.083   9.251  1.00  0.00     0.043 C 
BRANCH  21  22
HETATM   22  C7  UNL     1      27.968  46.410  10.678  1.00  0.00     0.116 C 
BRANCH  22  23
HETATM   23  C8  UNL     1      28.824  45.292  11.220  1.00  0.00     0.172 C 
HETATM   24  O1  UNL     1      29.909  45.068  10.643  1.00  0.00    -0.648 OA
HETATM   25  O2  UNL     1      28.435  44.538  12.307  1.00  0.00    -0.648 OA
ENDBRANCH  22  23
ENDBRANCH  21  22
ENDBRANCH   1  21
BRANCH   1  26
HETATM   26  N5  UNL     1      29.480  47.615   8.560  1.00  0.00    -0.344 N 
HETATM   27  C9  UNL     1      29.738  49.006   8.580  1.00  0.00     0.276 C 
HETATM   28  O3  UNL     1      28.802  49.821   8.331  1.00  0.00    -0.265 OA
ATOM     29  H5  UNL     1      30.234  46.957   8.760  1.00  0.00     0.163 HD
BRANCH  27  30
HETATM   30  C10 UNL     1      31.078  49.537   8.885  1.00  0.00     0.143 A 
HETATM   31  N6  UNL     1      32.108  49.759   8.105  1.00  0.00    -0.342 N 
HETATM   32  C11 UNL     1      33.210  50.240   8.598  1.00  0.00     0.092 A 
ATOM     33  H6  UNL     1      32.044  49.554   7.108  1.00  0.00     0.167 HD
HETATM   34  C12 UNL     1      33.238  50.497   9.947  1.00  0.00     0.015 A 
HETATM   35  C17 UNL     1      34.387  50.497   7.717  1.00  0.00     0.176 C 
HETATM   36  S1  UNL     1      31.661  50.023  10.414  1.00  0.00    -0.069 SA
HETATM   37  C13 UNL     1      34.319  51.035  10.813  1.00  0.00     0.049 C 
HETATM   38  C14 UNL     1      35.016  52.230  10.325  1.00  0.00     0.006 C 
HETATM   39  C15 UNL     1      35.217  52.424   8.882  1.00  0.00     0.008 C 
HETATM   40  C16 UNL     1      35.642  51.249   8.074  1.00  0.00     0.085 C 
HETATM   41  O4  UNL     1      34.326  50.033   6.549  1.00  0.00    -0.291 OA
ENDBRANCH  27  30
ENDBRANCH   1  26
TORSDOF 8
ENDMDL
MODEL 2
REMARK VINA RESULT: -8.865220301      3.323      5.521
REMARK  8 active torsions:
REMARK  status: ('A' for Active; 'I' for Inactive)
REMARK    1  A    between atoms: N1_1  and  C1_4 
REMARK    2  A    between atoms: C2_7  and  N3_8 
REMARK    3  A    between atoms: C4_14  and  C5_15 
REMARK    4  A    between atoms: C5_15  and  C6_16 
REMARK    5  A    between atoms: C5_15  and  N5_21 
REMARK    6  A    between atoms: C6_16  and  C7_17 
REMARK    7  A    between atoms: C7_17  and  C8_18 
REMARK       I    between atoms: N5_21  and  C9_23 
REMARK    8  A    between atoms: C9_23  and  C10_25 
ROOT
HETATM    1  C5  UNL     1      30.882  48.212   7.571  1.00  0.00     0.153 C 
ENDROOT
BRANCH   1   2
HETATM    2  C4  UNL     1      30.155  47.509   8.643  1.00  0.00     0.106 A 
HETATM    3  N4  UNL     1      28.903  47.043   8.540  1.00  0.00    -0.338 N 
HETATM    4  C3  UNL     1      28.531  46.459   9.677  1.00  0.00     0.123 A 
ATOM      5  H4  UNL     1      28.318  47.123   7.709  1.00  0.00     0.167 HD
HETATM    6  C2  UNL     1      27.349  45.845  10.037  1.00  0.00     0.145 A 
HETATM    7  C18 UNL     1      29.609  46.573  10.523  1.00  0.00     0.153 A 
HETATM    8  N2  UNL     1      27.288  45.342  11.291  1.00  0.00    -0.175 N 
HETATM    9  C1  UNL     1      28.331  45.440  12.137  1.00  0.00     0.679 A 
ATOM     10  H2  UNL     1      26.433  44.879  11.601  1.00  0.00     0.186 HD
HETATM   11  N8  UNL     1      29.478  46.049  11.757  1.00  0.00    -0.174 N 
ATOM     12  H8  UNL     1      30.255  46.112  12.414  1.00  0.00     0.186 HD
HETATM   13  N7  UNL     1      30.608  47.213   9.899  1.00  0.00    -0.328 N 
ATOM     14  H7  UNL     1      31.525  47.436  10.285  1.00  0.00     0.169 HD
BRANCH   6  15
HETATM   15  N3  UNL     1      26.336  45.742   9.231  1.00  0.00    -0.383 N 
ATOM     16  H32 UNL     1      25.370  45.862   9.537  1.00  0.00     0.157 HD
ATOM     17  H31 UNL     1      26.476  45.534   8.242  1.00  0.00     0.157 HD
ENDBRANCH   6  15
BRANCH   9  18
HETATM   18  N1  UNL     1      28.204  44.941  13.311  1.00  0.00    -0.234 N 
ATOM     19  H12 UNL     1      27.741  45.460  14.057  1.00  0.00     0.174 HD
ATOM     20  H11 UNL     1      28.578  44.007  13.479  1.00  0.00     0.174 HD
ENDBRANCH   9  18
ENDBRANCH   1   2
BRANCH   1  21
HETATM   21  C6  UNL     1      29.957  48.731   6.509  1.00  0.00     0.043 C 
BRANCH  21  22
HETATM   22  C7  UNL     1      29.976  47.994   5.218  1.00  0.00     0.116 C 
BRANCH  22  23
HETATM   23  C8  UNL     1      28.783  47.072   5.239  1.00  0.00     0.172 C 
HETATM   24  O1  UNL     1      28.960  45.911   5.665  1.00  0.00    -0.648 OA
HETATM   25  O2  UNL     1      27.539  47.482   4.807  1.00  0.00    -0.648 OA
ENDBRANCH  22  23
ENDBRANCH  21  22
ENDBRANCH   1  21
BRANCH   1  26
HETATM   26  N5  UNL     1      31.715  49.273   8.113  1.00  0.00    -0.344 N 
HETATM   27  C9  UNL     1      32.943  49.606   7.494  1.00  0.00     0.276 C 
HETATM   28  O3  UNL     1      33.317  48.977   6.463  1.00  0.00    -0.265 OA
ATOM     29  H5  UNL     1      31.412  49.780   8.945  1.00  0.00     0.163 HD
BRANCH  27  30
HETATM   30  C10 UNL     1      33.806  50.677   8.023  1.00  0.00     0.143 A 
HETATM   31  N6  UNL     1      33.777  51.309   9.172  1.00  0.00    -0.342 N 
HETATM   32  C11 UNL     1      34.652  52.236   9.431  1.00  0.00     0.092 A 
ATOM     33  H6  UNL     1      33.067  51.074   9.865  1.00  0.00     0.167 HD
HETATM   34  C12 UNL     1      35.585  52.510   8.460  1.00  0.00     0.015 A 
HETATM   35  C17 UNL     1      34.627  52.960  10.735  1.00  0.00     0.176 C 
HETATM   36  S1  UNL     1      35.133  51.406   7.234  1.00  0.00    -0.069 SA
HETATM   37  C13 UNL     1      36.700  53.491   8.433  1.00  0.00     0.049 C 
HETATM   38  C14 UNL     1      37.563  53.536   9.618  1.00  0.00     0.006 C 
HETATM   39  C15 UNL     1      36.997  53.271  10.949  1.00  0.00     0.008 C 
HETATM   40  C16 UNL     1      35.683  53.884  11.282  1.00  0.00     0.085 C 
HETATM   41  O4  UNL     1      33.613  52.779  11.458  1.00  0.00    -0.291 OA
ENDBRANCH  27  30
ENDBRANCH   1  26
TORSDOF 8
ENDMDL
MODEL 3
REMARK VINA RESULT: -8.815239208      5.141      8.314
REMARK  8 active torsions:
REMARK  status: ('A' for Active; 'I' for Inactive)
REMARK    1  A    between atoms: N1_1  and  C1_4 
REMARK    2  A    between atoms: C2_7  and  N3_8 
REMARK    3  A    between atoms: C4_14  and  C5_15 
REMARK    4  A    between atoms: C5_15  and  C6_16 
REMARK    5  A    between atoms: C5_15  and  N5_21 
REMARK    6  A    between atoms: C6_16  and  C7_17 
REMARK    7  A    between atoms: C7_17  and  C8_18 
REMARK       I    between atoms: N5_21  and  C9_23 
REMARK    8  A    between atoms: C9_23  and  C10_25 
ROOT
HETATM    1  C5  UNL     1      34.756  51.814   8.793  1.00  0.00     0.153 C 
ENDROOT
BRANCH   1   2
HETATM    2  C4  UNL     1      33.380  51.293   8.861  1.00  0.00     0.106 A 
HETATM    3  N4  UNL     1      32.627  51.262   9.969  1.00  0.00    -0.338 N 
HETATM    4  C3  UNL     1      31.434  50.733   9.705  1.00  0.00     0.123 A 
ATOM      5  H4  UNL     1      32.925  51.597  10.885  1.00  0.00     0.167 HD
HETATM    6  C2  UNL     1      30.345  50.501  10.519  1.00  0.00     0.145 A 
HETATM    7  C18 UNL     1      31.454  50.422   8.366  1.00  0.00     0.153 A 
HETATM    8  N2  UNL     1      29.263  49.940   9.933  1.00  0.00    -0.175 N 
HETATM    9  C1  UNL     1      29.258  49.627   8.623  1.00  0.00     0.679 A 
ATOM     10  H2  UNL     1      28.433  49.749  10.496  1.00  0.00     0.186 HD
HETATM   11  N8  UNL     1      30.342  49.865   7.849  1.00  0.00    -0.174 N 
ATOM     12  H8  UNL     1      30.317  49.620   6.859  1.00  0.00     0.186 HD
HETATM   13  N7  UNL     1      32.640  50.761   7.841  1.00  0.00    -0.328 N 
ATOM     14  H7  UNL     1      32.934  50.645   6.870  1.00  0.00     0.169 HD
BRANCH   6  15
HETATM   15  N3  UNL     1      30.335  50.799  11.783  1.00  0.00    -0.383 N 
ATOM     16  H32 UNL     1      30.466  50.103  12.517  1.00  0.00     0.157 HD
ATOM     17  H31 UNL     1      30.192  51.761  12.090  1.00  0.00     0.157 HD
ENDBRANCH   6  15
BRANCH   9  18
HETATM   18  N1  UNL     1      28.199  49.096   8.134  1.00  0.00    -0.234 N 
ATOM     19  H12 UNL     1      28.225  48.583   7.253  1.00  0.00     0.174 HD
ATOM     20  H11 UNL     1      27.326  49.201   8.652  1.00  0.00     0.174 HD
ENDBRANCH   9  18
ENDBRANCH   1   2
BRANCH   1  21
HETATM   21  C6  UNL     1      35.486  51.649  10.094  1.00  0.00     0.043 C 
BRANCH  21  22
HETATM   22  C7  UNL     1      36.346  52.790  10.502  1.00  0.00     0.116 C 
BRANCH  22  23
HETATM   23  C8  UNL     1      35.531  53.609  11.471  1.00  0.00     0.172 C 
HETATM   24  O1  UNL     1      34.298  53.411  11.496  1.00  0.00    -0.648 OA
HETATM   25  O2  UNL     1      36.111  54.545  12.302  1.00  0.00    -0.648 OA
ENDBRANCH  22  23
ENDBRANCH  21  22
ENDBRANCH   1  21
BRANCH   1  26
HETATM   26  N5  UNL     1      35.490  51.210   7.693  1.00  0.00    -0.344 N 
HETATM   27  C9  UNL     1      36.262  52.013   6.820  1.00  0.00     0.276 C 
HETATM   28  O3  UNL     1      36.314  53.264   7.000  1.00  0.00    -0.265 OA
ATOM     29  H5  UNL     1      35.447  50.201   7.549  1.00  0.00     0.163 HD
BRANCH  27  30
HETATM   30  C10 UNL     1      37.015  51.425   5.698  1.00  0.00     0.143 A 
HETATM   31  N6  UNL     1      36.598  50.882   4.579  1.00  0.00    -0.342 N 
HETATM   32  C11 UNL     1      37.454  50.422   3.717  1.00  0.00     0.092 A 
ATOM     33  H6  UNL     1      35.599  50.821   4.386  1.00  0.00     0.167 HD
HETATM   34  C12 UNL     1      38.787  50.532   4.032  1.00  0.00     0.015 A 
HETATM   35  C17 UNL     1      36.989  49.802   2.442  1.00  0.00     0.176 C 
HETATM   36  S1  UNL     1      38.711  51.297   5.560  1.00  0.00    -0.069 SA
HETATM   37  C13 UNL     1      40.001  50.112   3.284  1.00  0.00     0.049 C 
HETATM   38  C14 UNL     1      40.056  50.478   1.865  1.00  0.00     0.006 C 
HETATM   39  C15 UNL     1      38.820  50.528   1.071  1.00  0.00     0.008 C 
HETATM   40  C16 UNL     1      37.833  49.430   1.251  1.00  0.00     0.085 C 
HETATM   41  O4  UNL     1      35.756  49.564   2.351  1.00  0.00    -0.291 OA
ENDBRANCH  27  30
ENDBRANCH   1  26
TORSDOF 8
ENDMDL
MODEL 4
REMARK VINA RESULT: -8.710691336      3.781      8.598
REMARK  8 active torsions:
REMARK  status: ('A' for Active; 'I' for Inactive)
REMARK    1  A    between atoms: N1_1  and  C1_4 
REMARK    2  A    between atoms: C2_7  and  N3_8 
REMARK    3  A    between atoms: C4_14  and  C5_15 
REMARK    4  A    between atoms: C5_15  and  C6_16 
REMARK    5  A    between atoms: C5_15  and  N5_21 
REMARK    6  A    between atoms: C6_16  and  C7_17 
REMARK    7  A    between atoms: C7_17  and  C8_18 
REMARK       I    between atoms: N5_21  and  C9_23 
REMARK    8  A    between atoms: C9_23  and  C10_25 
ROOT
HETATM    1  C5  UNL     1      28.696  47.433   6.839  1.00  0.00     0.153 C 
ENDROOT
BRANCH   1   2
HETATM    2  C4  UNL     1      28.601  46.924   8.218  1.00  0.00     0.106 A 
HETATM    3  N4  UNL     1      29.359  47.341   9.241  1.00  0.00    -0.338 N 
HETATM    4  C3  UNL     1      29.033  46.689  10.356  1.00  0.00     0.123 A 
ATOM      5  H4  UNL     1      30.084  48.056   9.176  1.00  0.00     0.167 HD
HETATM    6  C2  UNL     1      29.533  46.779  11.638  1.00  0.00     0.145 A 
HETATM    7  C18 UNL     1      28.023  45.827   9.999  1.00  0.00     0.153 A 
HETATM    8  N2  UNL     1      28.976  45.964  12.562  1.00  0.00    -0.175 N 
HETATM    9  C1  UNL     1      27.984  45.111  12.237  1.00  0.00     0.679 A 
ATOM     10  H2  UNL     1      29.314  45.995  13.524  1.00  0.00     0.186 HD
HETATM   11  N8  UNL     1      27.514  45.044  10.971  1.00  0.00    -0.174 N 
ATOM     12  H8  UNL     1      26.763  44.391  10.747  1.00  0.00     0.186 HD
HETATM   13  N7  UNL     1      27.751  45.964   8.694  1.00  0.00    -0.328 N 
ATOM     14  H7  UNL     1      27.049  45.451   8.160  1.00  0.00     0.169 HD
BRANCH   6  15
HETATM   15  N3  UNL     1      30.488  47.597  11.965  1.00  0.00    -0.383 N 
ATOM     16  H32 UNL     1      31.465  47.310  12.031  1.00  0.00     0.157 HD
ATOM     17  H31 UNL     1      30.287  48.575  12.171  1.00  0.00     0.157 HD
ENDBRANCH   6  15
BRANCH   9  18
HETATM   18  N1  UNL     1      27.502  44.367  13.163  1.00  0.00    -0.234 N 
ATOM     19  H12 UNL     1      26.533  44.052  13.135  1.00  0.00     0.174 HD
ATOM     20  H11 UNL     1      28.118  44.097  13.931  1.00  0.00     0.174 HD
ENDBRANCH   9  18
ENDBRANCH   1   2
BRANCH   1  21
HETATM   21  C6  UNL     1      29.611  48.618   6.737  1.00  0.00     0.043 C 
BRANCH  21  22
HETATM   22  C7  UNL     1      30.842  48.417   5.930  1.00  0.00     0.116 C 
BRANCH  22  23
HETATM   23  C8  UNL     1      32.003  48.621   6.872  1.00  0.00     0.172 C 
HETATM   24  O1  UNL     1      33.127  48.820   6.364  1.00  0.00    -0.648 OA
HETATM   25  O2  UNL     1      31.844  48.589   8.241  1.00  0.00    -0.648 OA
ENDBRANCH  22  23
ENDBRANCH  21  22
ENDBRANCH   1  21
BRANCH   1  26
HETATM   26  N5  UNL     1      29.089  46.379   5.918  1.00  0.00    -0.344 N 
HETATM   27  C9  UNL     1      28.110  45.564   5.301  1.00  0.00     0.276 C 
HETATM   28  O3  UNL     1      26.885  45.756   5.552  1.00  0.00    -0.265 OA
ATOM     29  H5  UNL     1      30.077  46.225   5.716  1.00  0.00     0.163 HD
BRANCH  27  30
HETATM   30  C10 UNL     1      28.482  44.490   4.364  1.00  0.00     0.143 A 
HETATM   31  N6  UNL     1      29.660  44.079   3.957  1.00  0.00    -0.342 N 
HETATM   32  C11 UNL     1      29.753  43.096   3.112  1.00  0.00     0.092 A 
ATOM     33  H6  UNL     1      30.504  44.533   4.304  1.00  0.00     0.167 HD
HETATM   34  C12 UNL     1      28.581  42.523   2.679  1.00  0.00     0.015 A 
HETATM   35  C17 UNL     1      31.088  42.622   2.644  1.00  0.00     0.176 C 
HETATM   36  S1  UNL     1      27.419  43.449   3.527  1.00  0.00    -0.069 SA
HETATM   37  C13 UNL     1      28.338  41.405   1.732  1.00  0.00     0.049 C 
HETATM   38  C14 UNL     1      29.142  40.194   1.925  1.00  0.00     0.006 C 
HETATM   39  C15 UNL     1      30.522  40.301   2.423  1.00  0.00     0.008 C 
HETATM   40  C16 UNL     1      31.385  41.372   1.858  1.00  0.00     0.085 C 
HETATM   41  O4  UNL     1      32.075  43.347   2.936  1.00  0.00    -0.291 OA
ENDBRANCH  27  30
ENDBRANCH   1  26
TORSDOF 8
ENDMDL
MODEL 5
REMARK VINA RESULT: -8.673740927      4.275      9.133
REMARK  8 active torsions:
REMARK  status: ('A' for Active; 'I' for Inactive)
REMARK    1  A    between atoms: N1_1  and  C1_4 
REMARK    2  A    between atoms: C2_7  and  N3_8 
REMARK    3  A    between atoms: C4_14  and  C5_15 
REMARK    4  A    between atoms: C5_15  and  C6_16 
REMARK    5  A    between atoms: C5_15  and  N5_21 
REMARK    6  A    between atoms: C6_16  and  C7_17 
REMARK    7  A    between atoms: C7_17  and  C8_18 
REMARK       I    between atoms: N5_21  and  C9_23 
REMARK    8  A    between atoms: C9_23  and  C10_25 
ROOT
HETATM    1  C5  UNL     1      32.533  47.530   5.999  1.00  0.00     0.153 C 
ENDROOT
BRANCH   1   2
HETATM    2  C4  UNL     1      31.845  48.156   7.142  1.00  0.00     0.106 A 
HETATM    3  N4  UNL     1      30.519  48.317   7.242  1.00  0.00    -0.338 N 
HETATM    4  C3  UNL     1      30.209  48.915   8.391  1.00  0.00     0.123 A 
ATOM      5  H4  UNL     1      29.841  48.023   6.538  1.00  0.00     0.167 HD
HETATM    6  C2  UNL     1      28.991  49.281   8.923  1.00  0.00     0.145 A 
HETATM    7  C18 UNL     1      31.407  49.132   9.030  1.00  0.00     0.153 A 
HETATM    8  N2  UNL     1      29.017  49.882  10.134  1.00  0.00    -0.175 N 
HETATM    9  C1  UNL     1      30.178  50.105  10.781  1.00  0.00     0.679 A 
ATOM     10  H2  UNL     1      28.140  50.171  10.567  1.00  0.00     0.186 HD
HETATM   11  N8  UNL     1      31.358  49.734  10.234  1.00  0.00    -0.174 N 
ATOM     12  H8  UNL     1      32.225  49.914  10.741  1.00  0.00     0.186 HD
HETATM   13  N7  UNL     1      32.414  48.671   8.274  1.00  0.00    -0.328 N 
ATOM     14  H7  UNL     1      33.408  48.699   8.499  1.00  0.00     0.169 HD
BRANCH   6  15
HETATM   15  N3  UNL     1      27.864  49.071   8.311  1.00  0.00    -0.383 N 
ATOM     16  H32 UNL     1      27.084  48.576   8.743  1.00  0.00     0.157 HD
ATOM     17  H31 UNL     1      27.719  49.403   7.358  1.00  0.00     0.157 HD
ENDBRANCH   6  15
BRANCH   9  18
HETATM   18  N1  UNL     1      30.129  50.679  11.926  1.00  0.00    -0.234 N 
ATOM     19  H12 UNL     1      29.632  50.253  12.708  1.00  0.00     0.174 HD
ATOM     20  H11 UNL     1      30.604  51.575  12.034  1.00  0.00     0.174 HD
ENDBRANCH   9  18
ENDBRANCH   1   2
BRANCH   1  21
HETATM   21  C6  UNL     1      33.926  47.094   6.350  1.00  0.00     0.043 C 
BRANCH  21  22
HETATM   22  C7  UNL     1      35.024  47.913   5.773  1.00  0.00     0.116 C 
BRANCH  22  23
HETATM   23  C8  UNL     1      36.218  46.999   5.658  1.00  0.00     0.172 C 
HETATM   24  O1  UNL     1      36.533  46.607   4.514  1.00  0.00    -0.648 OA
HETATM   25  O2  UNL     1      36.941  46.602   6.763  1.00  0.00    -0.648 OA
ENDBRANCH  22  23
ENDBRANCH  21  22
ENDBRANCH   1  21
BRANCH   1  26
HETATM   26  N5  UNL     1      31.753  46.429   5.458  1.00  0.00    -0.344 N 
HETATM   27  C9  UNL     1      31.453  46.374   4.076  1.00  0.00     0.276 C 
HETATM   28  O3  UNL     1      31.868  47.289   3.307  1.00  0.00    -0.265 OA
ATOM     29  H5  UNL     1      31.419  45.691   6.079  1.00  0.00     0.163 HD
BRANCH  27  30
HETATM   30  C10 UNL     1      30.665  45.268   3.503  1.00  0.00     0.143 A 
HETATM   31  N6  UNL     1      30.349  45.000   2.259  1.00  0.00    -0.342 N 
HETATM   32  C11 UNL     1      29.632  43.952   1.978  1.00  0.00     0.092 A 
ATOM     33  H6  UNL     1      30.666  45.614   1.509  1.00  0.00     0.167 HD
HETATM   34  C12 UNL     1      29.234  43.161   3.029  1.00  0.00     0.015 A 
HETATM   35  C17 UNL     1      29.267  43.638   0.566  1.00  0.00     0.176 C 
HETATM   36  S1  UNL     1      29.926  43.989   4.356  1.00  0.00    -0.069 SA
HETATM   37  C13 UNL     1      28.421  41.918   3.056  1.00  0.00     0.049 C 
HETATM   38  C14 UNL     1      28.784  40.875   2.091  1.00  0.00     0.006 C 
HETATM   39  C15 UNL     1      29.310  41.248   0.770  1.00  0.00     0.008 C 
HETATM   40  C16 UNL     1      28.648  42.367   0.048  1.00  0.00     0.085 C 
HETATM   41  O4  UNL     1      29.502  44.534  -0.287  1.00  0.00    -0.291 OA
ENDBRANCH  27  30
ENDBRANCH   1  26
TORSDOF 8
ENDMDL
