MODEL 1
REMARK VINA RESULT: -8.971266093      0.000      0.000
REMARK  8 active torsions:
REMARK  status: ('A' for Active; 'I' for Inactive)
REMARK    1  A    between atoms: C2_2  and  N1_3 
REMARK    2  A    between atoms: C2_2  and  C20_37 
REMARK       I    between atoms: N1_3  and  C3_5 
REMARK    3  A    between atoms: C3_5  and  C4_7 
REMARK    4  A    between atoms: C4_7  and  N2_8 
REMARK    5  A    between atoms: C4_7  and  C5_12 
REMARK    6  A    between atoms: C5_12  and  O2_13 
REMARK    7  A    between atoms: C5_12  and  N3_15 
REMARK    8  A    between atoms: N3_15  and  C6_17 
ROOT
HETATM    1  N3  UNL     1      31.914  49.105   9.205  1.00  0.00    -0.391 N 
ATOM      2  H3  UNL     1      32.138  48.144   9.460  1.00  0.00     0.156 HD
ENDROOT
BRANCH   1   3
HETATM    3  C5  UNL     1      31.003  49.844   9.978  1.00  0.00     0.254 C 
BRANCH   3   4
HETATM    4  C4  UNL     1      30.740  49.076  11.295  1.00  0.00     0.322 C 
BRANCH   4   5
HETATM    5  C3  UNL     1      30.075  47.783  10.986  1.00  0.00     0.253 C 
HETATM    6  N1  UNL     1      28.672  47.674  10.827  1.00  0.00    -0.349 N 
ATOM      7  H1  UNL     1      28.066  48.490  10.916  1.00  0.00     0.163 HD
HETATM    8  O1  UNL     1      30.794  46.783  10.862  1.00  0.00    -0.271 OA
BRANCH   6   9
HETATM    9  C2  UNL     1      28.124  46.357  10.531  1.00  0.00     0.132 C 
HETATM   10  C1  UNL     1      27.231  45.802  11.565  1.00  0.00     0.039 C 
BRANCH   9  11
HETATM   11  C20 UNL     1      27.370  46.439   9.217  1.00  0.00     0.059 A 
HETATM   12  C21 UNL     1      27.658  47.272   8.166  1.00  0.00     0.174 A 
HETATM   13  O3  UNL     1      26.790  47.043   7.209  1.00  0.00    -0.272 OA
HETATM   14  C22 UNL     1      25.939  46.094   7.574  1.00  0.00     0.369 A 
HETATM   15  O4  UNL     1      24.974  45.602   6.932  1.00  0.00    -0.238 OA
HETATM   16  N6  UNL     1      26.309  45.724   8.827  1.00  0.00    -0.302 N 
ATOM     17  H6  UNL     1      25.847  45.008   9.387  1.00  0.00     0.171 HD
ENDBRANCH   9  11
ENDBRANCH   6   9
ENDBRANCH   4   5
BRANCH   4  18
HETATM   18  N2  UNL     1      29.826  49.853  12.118  1.00  0.00    -0.062 N 
ATOM     19  H23 UNL     1      28.846  49.688  11.890  1.00  0.00     0.275 HD
ATOM     20  H22 UNL     1      29.793  49.533  13.086  1.00  0.00     0.275 HD
ATOM     21  H21 UNL     1      30.094  50.834  12.033  1.00  0.00     0.275 HD
ENDBRANCH   4  18
ENDBRANCH   3   4
BRANCH   3  22
HETATM   22  O2  UNL     1      29.780  50.168   9.440  1.00  0.00    -0.374 OA
ATOM     23  H2  UNL     1      29.937  50.763   8.716  1.00  0.00     0.212 HD
ENDBRANCH   3  22
ENDBRANCH   1   3
BRANCH   1  24
HETATM   24  C6  UNL     1      32.519  49.697   8.074  1.00  0.00     0.079 C 
HETATM   25  C7  UNL     1      31.827  49.169   6.828  1.00  0.00     0.025 C 
HETATM   26  C8  UNL     1      32.057  47.682   6.714  1.00  0.00     0.002 C 
HETATM   27  C9  UNL     1      33.541  47.369   6.676  1.00  0.00     0.002 C 
HETATM   28  C10 UNL     1      33.827  46.091   5.948  1.00  0.00     0.027 C 
HETATM   29  C11 UNL     1      34.209  46.309   4.500  1.00  0.00     0.232 C 
HETATM   30  N4  UNL     1      34.631  47.676   4.268  1.00  0.00    -0.075 N 
HETATM   31  C12 UNL     1      36.070  47.848   4.400  1.00  0.00     0.232 C 
ATOM     32  H42 UNL     1      34.303  48.011   3.362  1.00  0.00     0.277 HD
ATOM     33  H41 UNL     1      34.127  48.322   4.875  1.00  0.00     0.277 HD
HETATM   34  C13 UNL     1      36.610  48.726   3.324  1.00  0.00     0.029 C 
HETATM   35  C14 UNL     1      37.109  50.062   3.842  1.00  0.00     0.029 C 
HETATM   36  C15 UNL     1      36.390  50.472   5.107  1.00  0.00     0.232 C 
HETATM   37  N5  UNL     1      36.394  51.923   5.207  1.00  0.00    -0.075 N 
HETATM   38  C16 UNL     1      35.804  52.332   6.495  1.00  0.00     0.232 C 
ATOM     39  H52 UNL     1      37.325  52.316   5.069  1.00  0.00     0.277 HD
ATOM     40  H51 UNL     1      35.930  52.365   4.414  1.00  0.00     0.277 HD
HETATM   41  C17 UNL     1      34.688  51.345   6.759  1.00  0.00     0.027 C 
HETATM   42  C18 UNL     1      33.944  51.789   7.983  1.00  0.00     0.004 C 
HETATM   43  C19 UNL     1      32.561  51.199   8.083  1.00  0.00     0.025 C 
ENDBRANCH   1  24
TORSDOF 8
ENDMDL
MODEL 2
REMARK VINA RESULT: -8.760626962      5.153      8.389
REMARK  8 active torsions:
REMARK  status: ('A' for Active; 'I' for Inactive)
REMARK    1  A    between atoms: C2_2  and  N1_3 
REMARK    2  A    between atoms: C2_2  and  C20_37 
REMARK       I    between atoms: N1_3  and  C3_5 
REMARK    3  A    between atoms: C3_5  and  C4_7 
REMARK    4  A    between atoms: C4_7  and  N2_8 
REMARK    5  A    between atoms: C4_7  and  C5_12 
REMARK    6  A    between atoms: C5_12  and  O2_13 
REMARK    7  A    between atoms: C5_12  and  N3_15 
REMARK    8  A    between atoms: N3_15  and  C6_17 
ROOT
HETATM    1  N3  UNL     1      30.172  44.660   6.217  1.00  0.00    -0.391 N 
ATOM      2  H3  UNL     1      30.524  43.888   6.782  1.00  0.00     0.156 HD
ENDROOT
BRANCH   1   3
HETATM    3  C5  UNL     1      30.104  44.536   4.820  1.00  0.00     0.254 C 
BRANCH   3   4
HETATM    4  C4  UNL     1      28.840  43.721   4.460  1.00  0.00     0.322 C 
BRANCH   4   5
HETATM    5  C3  UNL     1      29.245  42.436   3.833  1.00  0.00     0.253 C 
HETATM    6  N1  UNL     1      29.497  42.318   2.445  1.00  0.00    -0.349 N 
ATOM      7  H1  UNL     1      29.412  43.122   1.823  1.00  0.00     0.163 HD
HETATM    8  O1  UNL     1      29.366  41.450   4.572  1.00  0.00    -0.271 OA
BRANCH   6   9
HETATM    9  C2  UNL     1      29.883  41.009   1.935  1.00  0.00     0.132 C 
HETATM   10  C1  UNL     1      29.200  40.592   0.697  1.00  0.00     0.039 C 
BRANCH   9  11
HETATM   11  C20 UNL     1      31.382  41.014   1.697  1.00  0.00     0.059 A 
HETATM   12  C21 UNL     1      32.031  40.520   0.593  1.00  0.00     0.174 A 
HETATM   13  O3  UNL     1      33.318  40.715   0.751  1.00  0.00    -0.272 OA
HETATM   14  C22 UNL     1      33.557  41.317   1.909  1.00  0.00     0.369 A 
HETATM   15  O4  UNL     1      34.657  41.668   2.411  1.00  0.00    -0.238 OA
HETATM   16  N6  UNL     1      32.343  41.498   2.491  1.00  0.00    -0.302 N 
ATOM     17  H6  UNL     1      32.187  41.939   3.397  1.00  0.00     0.171 HD
ENDBRANCH   9  11
ENDBRANCH   6   9
ENDBRANCH   4   5
BRANCH   4  18
HETATM   18  N2  UNL     1      28.066  44.464   3.476  1.00  0.00    -0.062 N 
ATOM     19  H23 UNL     1      27.782  43.893   2.680  1.00  0.00     0.275 HD
ATOM     20  H22 UNL     1      27.131  44.706   3.805  1.00  0.00     0.275 HD
ATOM     21  H21 UNL     1      28.616  45.279   3.204  1.00  0.00     0.275 HD
ENDBRANCH   4  18
ENDBRANCH   3   4
BRANCH   3  22
HETATM   22  O2  UNL     1      31.162  43.972   4.148  1.00  0.00    -0.374 OA
ATOM     23  H2  UNL     1      31.731  43.574   4.796  1.00  0.00     0.212 HD
ENDBRANCH   3  22
ENDBRANCH   1   3
BRANCH   1  24
HETATM   24  C6  UNL     1      29.752  45.857   6.839  1.00  0.00     0.079 C 
HETATM   25  C7  UNL     1      30.017  47.011   5.887  1.00  0.00     0.025 C 
HETATM   26  C8  UNL     1      31.501  47.144   5.655  1.00  0.00     0.002 C 
HETATM   27  C9  UNL     1      32.235  47.351   6.966  1.00  0.00     0.002 C 
HETATM   28  C10 UNL     1      33.519  48.100   6.780  1.00  0.00     0.027 C 
HETATM   29  C11 UNL     1      33.380  49.584   7.044  1.00  0.00     0.232 C 
HETATM   30  N4  UNL     1      32.192  49.871   7.821  1.00  0.00    -0.075 N 
HETATM   31  C12 UNL     1      32.453  49.907   9.252  1.00  0.00     0.232 C 
ATOM     32  H42 UNL     1      31.749  50.734   7.508  1.00  0.00     0.277 HD
ATOM     33  H41 UNL     1      31.444  49.213   7.602  1.00  0.00     0.277 HD
HETATM   34  C13 UNL     1      31.741  51.042   9.903  1.00  0.00     0.029 C 
HETATM   35  C14 UNL     1      30.626  50.593  10.829  1.00  0.00     0.029 C 
HETATM   36  C15 UNL     1      30.060  49.255  10.409  1.00  0.00     0.232 C 
HETATM   37  N5  UNL     1      28.677  49.164  10.852  1.00  0.00    -0.075 N 
HETATM   38  C16 UNL     1      28.151  47.819  10.556  1.00  0.00     0.232 C 
ATOM     39  H52 UNL     1      28.571  49.411  11.836  1.00  0.00     0.277 HD
ATOM     40  H51 UNL     1      28.096  49.901  10.453  1.00  0.00     0.277 HD
HETATM   41  C17 UNL     1      28.775  47.423   9.236  1.00  0.00     0.027 C 
HETATM   42  C18 UNL     1      28.168  46.122   8.798  1.00  0.00     0.004 C 
HETATM   43  C19 UNL     1      28.329  45.860   7.322  1.00  0.00     0.025 C 
ENDBRANCH   1  24
TORSDOF 8
ENDMDL
MODEL 3
REMARK VINA RESULT: -8.737222109      3.105      5.449
REMARK  8 active torsions:
REMARK  status: ('A' for Active; 'I' for Inactive)
REMARK    1  A    between atoms: C2_2  and  N1_3 
REMARK    2  A    between atoms: C2_2  and  C20_37 
REMARK       I    between atoms: N1_3  and  C3_5 
REMARK    3  A    between atoms: C3_5  and  C4_7 
REMARK    4  A    between atoms: C4_7  and  N2_8 
REMARK    5  A    between atoms: C4_7  and  C5_12 
REMARK    6  A    between atoms: C5_12  and  O2_13 
REMARK    7  A    between atoms: C5_12  and  N3_15 
REMARK    8  A    between atoms: N3_15  and  C6_17 
ROOT
HETATM    1  N3  UNL     1      28.985  47.951   9.716  1.00  0.00    -0.391 N 
ATOM      2  H3  UNL     1      28.770  48.139  10.695  1.00  0.00     0.156 HD
ENDROOT
BRANCH   1   3
HETATM    3  C5  UNL     1      27.946  47.802   8.784  1.00  0.00     0.254 C 
BRANCH   3   4
HETATM    4  C4  UNL     1      27.625  46.295   8.643  1.00  0.00     0.322 C 
BRANCH   4   5
HETATM    5  C3  UNL     1      27.345  45.983   7.216  1.00  0.00     0.253 C 
HETATM    6  N1  UNL     1      28.297  45.351   6.380  1.00  0.00    -0.349 N 
ATOM      7  H1  UNL     1      29.214  45.082   6.734  1.00  0.00     0.163 HD
HETATM    8  O1  UNL     1      26.233  46.292   6.769  1.00  0.00    -0.271 OA
BRANCH   6   9
HETATM    9  C2  UNL     1      27.919  45.099   4.995  1.00  0.00     0.132 C 
HETATM   10  C1  UNL     1      28.253  46.178   4.048  1.00  0.00     0.039 C 
BRANCH   9  11
HETATM   11  C20 UNL     1      28.595  43.817   4.544  1.00  0.00     0.059 A 
HETATM   12  C21 UNL     1      29.881  43.695   4.082  1.00  0.00     0.174 A 
HETATM   13  O3  UNL     1      30.100  42.432   3.801  1.00  0.00    -0.272 OA
HETATM   14  C22 UNL     1      29.019  41.707   4.057  1.00  0.00     0.369 A 
HETATM   15  O4  UNL     1      28.843  40.468   3.918  1.00  0.00    -0.238 OA
HETATM   16  N6  UNL     1      28.087  42.580   4.520  1.00  0.00    -0.302 N 
ATOM     17  H6  UNL     1      27.141  42.329   4.806  1.00  0.00     0.171 HD
ENDBRANCH   9  11
ENDBRANCH   6   9
ENDBRANCH   4   5
BRANCH   4  18
HETATM   18  N2  UNL     1      26.418  45.998   9.401  1.00  0.00    -0.062 N 
ATOM     19  H23 UNL     1      25.958  46.834   9.759  1.00  0.00     0.275 HD
ATOM     20  H22 UNL     1      25.652  45.666   8.814  1.00  0.00     0.275 HD
ATOM     21  H21 UNL     1      26.672  45.338  10.136  1.00  0.00     0.275 HD
ENDBRANCH   4  18
ENDBRANCH   3   4
BRANCH   3  22
HETATM   22  O2  UNL     1      28.109  48.308   7.516  1.00  0.00    -0.374 OA
ATOM     23  H2  UNL     1      28.847  48.905   7.541  1.00  0.00     0.212 HD
ENDBRANCH   3  22
ENDBRANCH   1   3
BRANCH   1  24
HETATM   24  C6  UNL     1      30.329  47.840   9.296  1.00  0.00     0.079 C 
HETATM   25  C7  UNL     1      31.227  48.021  10.509  1.00  0.00     0.025 C 
HETATM   26  C8  UNL     1      31.060  49.415  11.058  1.00  0.00     0.002 C 
HETATM   27  C9  UNL     1      31.376  50.453   9.997  1.00  0.00     0.002 C 
HETATM   28  C10 UNL     1      31.849  51.742  10.596  1.00  0.00     0.027 C 
HETATM   29  C11 UNL     1      33.358  51.856  10.636  1.00  0.00     0.232 C 
HETATM   30  N4  UNL     1      33.980  50.926   9.717  1.00  0.00    -0.075 N 
HETATM   31  C12 UNL     1      34.233  51.513   8.410  1.00  0.00     0.232 C 
ATOM     32  H42 UNL     1      34.834  50.535  10.114  1.00  0.00     0.277 HD
ATOM     33  H41 UNL     1      33.431  50.071   9.634  1.00  0.00     0.277 HD
HETATM   34  C13 UNL     1      35.573  51.120   7.891  1.00  0.00     0.029 C 
HETATM   35  C14 UNL     1      35.498  50.202   6.685  1.00  0.00     0.029 C 
HETATM   36  C15 UNL     1      34.222  49.390   6.683  1.00  0.00     0.232 C 
HETATM   37  N5  UNL     1      34.450  48.147   5.962  1.00  0.00    -0.075 N 
HETATM   38  C16 UNL     1      33.183  47.402   5.848  1.00  0.00     0.232 C 
ATOM     39  H52 UNL     1      34.888  48.304   5.054  1.00  0.00     0.277 HD
ATOM     40  H51 UNL     1      35.189  47.587   6.386  1.00  0.00     0.277 HD
HETATM   41  C17 UNL     1      32.451  47.649   7.149  1.00  0.00     0.027 C 
HETATM   42  C18 UNL     1      31.215  46.798   7.164  1.00  0.00     0.004 C 
HETATM   43  C19 UNL     1      30.663  46.579   8.550  1.00  0.00     0.025 C 
ENDBRANCH   1  24
TORSDOF 8
ENDMDL
MODEL 4
REMARK VINA RESULT: -8.731343554      6.245      9.060
REMARK  8 active torsions:
REMARK  status: ('A' for Active; 'I' for Inactive)
REMARK    1  A    between atoms: C2_2  and  N1_3 
REMARK    2  A    between atoms: C2_2  and  C20_37 
REMARK       I    between atoms: N1_3  and  C3_5 
REMARK    3  A    between atoms: C3_5  and  C4_7 
REMARK    4  A    between atoms: C4_7  and  N2_8 
REMARK    5  A    between atoms: C4_7  and  C5_12 
REMARK    6  A    between atoms: C5_12  and  O2_13 
REMARK    7  A    between atoms: C5_12  and  N3_15 
REMARK    8  A    between atoms: N3_15  and  C6_17 
ROOT
HETATM    1  N3  UNL     1      29.901  43.771   4.621  1.00  0.00    -0.391 N 
ATOM      2  H3  UNL     1      30.645  43.255   5.092  1.00  0.00     0.156 HD
ENDROOT
BRANCH   1   3
HETATM    3  C5  UNL     1      29.139  43.148   3.620  1.00  0.00     0.254 C 
BRANCH   3   4
HETATM    4  C4  UNL     1      29.034  41.640   3.948  1.00  0.00     0.322 C 
BRANCH   4   5
HETATM    5  C3  UNL     1      29.888  40.871   3.006  1.00  0.00     0.253 C 
HETATM    6  N1  UNL     1      29.354  40.184   1.889  1.00  0.00    -0.349 N 
ATOM      7  H1  UNL     1      28.354  40.200   1.689  1.00  0.00     0.163 HD
HETATM    8  O1  UNL     1      31.107  40.849   3.224  1.00  0.00    -0.271 OA
BRANCH   6   9
HETATM    9  C2  UNL     1      30.282  39.456   1.034  1.00  0.00     0.132 C 
HETATM   10  C1  UNL     1      29.857  38.094   0.663  1.00  0.00     0.039 C 
BRANCH   9  11
HETATM   11  C20 UNL     1      30.502  40.268  -0.230  1.00  0.00     0.059 A 
HETATM   12  C21 UNL     1      30.897  39.781  -1.450  1.00  0.00     0.174 A 
HETATM   13  O3  UNL     1      30.967  40.785  -2.291  1.00  0.00    -0.272 OA
HETATM   14  C22 UNL     1      30.635  41.919  -1.688  1.00  0.00     0.369 A 
HETATM   15  O4  UNL     1      30.582  43.084  -2.160  1.00  0.00    -0.238 OA
HETATM   16  N6  UNL     1      30.347  41.585  -0.403  1.00  0.00    -0.302 N 
ATOM     17  H6  UNL     1      30.056  42.241   0.321  1.00  0.00     0.171 HD
ENDBRANCH   9  11
ENDBRANCH   6   9
ENDBRANCH   4   5
BRANCH   4  18
HETATM   18  N2  UNL     1      27.659  41.209   3.744  1.00  0.00    -0.062 N 
ATOM     19  H23 UNL     1      27.079  41.923   3.304  1.00  0.00     0.275 HD
ATOM     20  H22 UNL     1      27.569  40.499   3.017  1.00  0.00     0.275 HD
ATOM     21  H21 UNL     1      27.295  40.902   4.647  1.00  0.00     0.275 HD
ENDBRANCH   4  18
ENDBRANCH   3   4
BRANCH   3  22
HETATM   22  O2  UNL     1      29.543  43.256   2.310  1.00  0.00    -0.374 OA
ATOM     23  H2  UNL     1      29.682  44.179   2.131  1.00  0.00     0.212 HD
ENDBRANCH   3  22
ENDBRANCH   1   3
BRANCH   1  24
HETATM   24  C6  UNL     1      29.636  45.112   4.976  1.00  0.00     0.079 C 
HETATM   25  C7  UNL     1      30.461  46.017   4.077  1.00  0.00     0.025 C 
HETATM   26  C8  UNL     1      31.929  45.785   4.335  1.00  0.00     0.002 C 
HETATM   27  C9  UNL     1      32.264  46.028   5.795  1.00  0.00     0.002 C 
HETATM   28  C10 UNL     1      33.692  46.440   5.982  1.00  0.00     0.027 C 
HETATM   29  C11 UNL     1      33.867  47.941   6.070  1.00  0.00     0.232 C 
HETATM   30  N4  UNL     1      32.616  48.598   6.390  1.00  0.00    -0.075 N 
HETATM   31  C12 UNL     1      32.438  48.798   7.820  1.00  0.00     0.232 C 
ATOM     32  H42 UNL     1      32.525  49.478   5.882  1.00  0.00     0.277 HD
ATOM     33  H41 UNL     1      31.825  48.094   5.989  1.00  0.00     0.277 HD
HETATM   34  C13 UNL     1      31.880  50.149   8.111  1.00  0.00     0.029 C 
HETATM   35  C14 UNL     1      30.464  50.104   8.651  1.00  0.00     0.029 C 
HETATM   36  C15 UNL     1      29.725  48.874   8.174  1.00  0.00     0.232 C 
HETATM   37  N5  UNL     1      28.298  49.157   8.144  1.00  0.00    -0.075 N 
HETATM   38  C16 UNL     1      27.557  47.931   7.798  1.00  0.00     0.232 C 
ATOM     39  H52 UNL     1      27.970  49.572   9.017  1.00  0.00     0.277 HD
ATOM     40  H51 UNL     1      28.073  49.932   7.521  1.00  0.00     0.277 HD
HETATM   41  C17 UNL     1      28.424  47.207   6.791  1.00  0.00     0.027 C 
HETATM   42  C18 UNL     1      27.663  46.019   6.280  1.00  0.00     0.004 C 
HETATM   43  C19 UNL     1      28.185  45.501   4.964  1.00  0.00     0.025 C 
ENDBRANCH   1  24
TORSDOF 8
ENDMDL
MODEL 5
REMARK VINA RESULT: -8.709092977      2.120      2.715
REMARK  8 active torsions:
REMARK  status: ('A' for Active; 'I' for Inactive)
REMARK    1  A    between atoms: C2_2  and  N1_3 
REMARK    2  A    between atoms: C2_2  and  C20_37 
REMARK       I    between atoms: N1_3  and  C3_5 
REMARK    3  A    between atoms: C3_5  and  C4_7 
REMARK    4  A    between atoms: C4_7  and  N2_8 
REMARK    5  A    between atoms: C4_7  and  C5_12 
REMARK    6  A    between atoms: C5_12  and  O2_13 
REMARK    7  A    between atoms: C5_12  and  N3_15 
REMARK    8  A    between atoms: N3_15  and  C6_17 
ROOT
HETATM    1  N3  UNL     1      32.018  49.338   9.641  1.00  0.00    -0.391 N 
ATOM      2  H3  UNL     1      31.812  48.358   9.834  1.00  0.00     0.156 HD
ENDROOT
BRANCH   1   3
HETATM    3  C5  UNL     1      31.619  50.332  10.550  1.00  0.00     0.254 C 
BRANCH   3   4
HETATM    4  C4  UNL     1      30.714  49.682  11.624  1.00  0.00     0.322 C 
BRANCH   4   5
HETATM    5  C3  UNL     1      29.793  48.715  10.971  1.00  0.00     0.253 C 
HETATM    6  N1  UNL     1      29.880  47.319  11.193  1.00  0.00    -0.349 N 
ATOM      7  H1  UNL     1      30.583  46.928  11.821  1.00  0.00     0.163 HD
HETATM    8  O1  UNL     1      28.926  49.171  10.214  1.00  0.00    -0.271 OA
BRANCH   6   9
HETATM    9  C2  UNL     1      28.930  46.462  10.496  1.00  0.00     0.132 C 
HETATM   10  C1  UNL     1      29.506  45.633   9.421  1.00  0.00     0.039 C 
BRANCH   9  11
HETATM   11  C20 UNL     1      28.266  45.558  11.518  1.00  0.00     0.059 A 
HETATM   12  C21 UNL     1      27.160  45.859  12.272  1.00  0.00     0.174 A 
HETATM   13  O3  UNL     1      26.883  44.824  13.029  1.00  0.00    -0.272 OA
HETATM   14  C22 UNL     1      27.753  43.846  12.813  1.00  0.00     0.369 A 
HETATM   15  O4  UNL     1      27.816  42.707  13.343  1.00  0.00    -0.238 OA
HETATM   16  N6  UNL     1      28.611  44.314  11.869  1.00  0.00    -0.302 N 
ATOM     17  H6  UNL     1      29.400  43.795  11.486  1.00  0.00     0.171 HD
ENDBRANCH   9  11
ENDBRANCH   6   9
ENDBRANCH   4   5
BRANCH   4  18
HETATM   18  N2  UNL     1      29.897  50.717  12.240  1.00  0.00    -0.062 N 
ATOM     19  H23 UNL     1      30.056  51.641  11.838  1.00  0.00     0.275 HD
ATOM     20  H22 UNL     1      28.909  50.637  12.002  1.00  0.00     0.275 HD
ATOM     21  H21 UNL     1      30.069  50.685  13.246  1.00  0.00     0.275 HD
ENDBRANCH   4  18
ENDBRANCH   3   4
BRANCH   3  22
HETATM   22  O2  UNL     1      30.963  51.444  10.078  1.00  0.00    -0.374 OA
ATOM     23  H2  UNL     1      30.470  51.178   9.311  1.00  0.00     0.212 HD
ENDBRANCH   3  22
ENDBRANCH   1   3
BRANCH   1  24
HETATM   24  C6  UNL     1      32.704  49.699   8.460  1.00  0.00     0.079 C 
HETATM   25  C7  UNL     1      31.729  49.621   7.297  1.00  0.00     0.025 C 
HETATM   26  C8  UNL     1      31.273  48.195   7.114  1.00  0.00     0.002 C 
HETATM   27  C9  UNL     1      32.459  47.276   6.883  1.00  0.00     0.002 C 
HETATM   28  C10 UNL     1      32.082  46.062   6.090  1.00  0.00     0.027 C 
HETATM   29  C11 UNL     1      32.373  46.208   4.612  1.00  0.00     0.232 C 
HETATM   30  N4  UNL     1      33.325  47.273   4.366  1.00  0.00    -0.075 N 
HETATM   31  C12 UNL     1      34.699  46.797   4.322  1.00  0.00     0.232 C 
ATOM     32  H42 UNL     1      33.088  47.787   3.518  1.00  0.00     0.277 HD
ATOM     33  H41 UNL     1      33.219  48.023   5.049  1.00  0.00     0.277 HD
HETATM   34  C13 UNL     1      35.458  47.439   3.212  1.00  0.00     0.029 C 
HETATM   35  C14 UNL     1      36.540  48.384   3.700  1.00  0.00     0.029 C 
HETATM   36  C15 UNL     1      36.204  48.962   5.056  1.00  0.00     0.232 C 
HETATM   37  N5  UNL     1      36.852  50.257   5.195  1.00  0.00    -0.075 N 
HETATM   38  C16 UNL     1      36.633  50.778   6.556  1.00  0.00     0.232 C 
ATOM     39  H52 UNL     1      37.843  50.220   4.952  1.00  0.00     0.277 HD
ATOM     40  H51 UNL     1      36.551  50.917   4.477  1.00  0.00     0.277 HD
HETATM   41  C17 UNL     1      35.231  50.350   6.931  1.00  0.00     0.027 C 
HETATM   42  C18 UNL     1      34.883  50.972   8.250  1.00  0.00     0.004 C 
HETATM   43  C19 UNL     1      33.398  51.030   8.506  1.00  0.00     0.025 C 
ENDBRANCH   1  24
TORSDOF 8
ENDMDL
