MODEL 1
REMARK VINA RESULT: -7.062596985      0.000      0.000
REMARK  9 active torsions:
REMARK  status: ('A' for Active; 'I' for Inactive)
REMARK    1  A    between atoms: C2_2  and  C3_3 
REMARK    2  A    between atoms: C3_3  and  C4_4 
REMARK    3  A    between atoms: C4_4  and  C5_5 
REMARK    4  A    between atoms: C5_5  and  N1_6 
REMARK    5  A    between atoms: N2_8  and  N3_10 
REMARK       I    between atoms: N3_10  and  C7_12 
REMARK    6  A    between atoms: C10_18  and  N5_19 
REMARK    7  A    between atoms: C11_24  and  N7_25 
REMARK    8  A    between atoms: C13_31  and  N9_32 
REMARK    9  A    between atoms: C16_38  and  C17_39 
ROOT
HETATM    1  N1  UNL     1      28.211  43.930   2.780  1.00  0.00    -0.179 N 
HETATM    2  C6  UNL     1      26.996  43.364   3.037  1.00  0.00     0.700 A 
HETATM    3  N2  UNL     1      25.859  43.889   2.768  1.00  0.00    -0.129 N 
ATOM      4  H2  UNL     1      25.794  44.805   2.326  1.00  0.00     0.205 HD
HETATM    5  N4  UNL     1      27.170  42.139   3.620  1.00  0.00    -0.184 N 
ATOM      6  H4  UNL     1      26.422  41.510   3.910  1.00  0.00     0.184 HD
HETATM    7  C9  UNL     1      28.445  41.905   3.744  1.00  0.00     0.121 A 
HETATM    8  C10 UNL     1      29.115  40.728   4.069  1.00  0.00     0.130 C 
HETATM    9  N6  UNL     1      30.214  40.259   3.389  1.00  0.00    -0.326 N 
ATOM     10  H6  UNL     1      30.417  39.268   3.513  1.00  0.00     0.169 HD
HETATM   11  C11 UNL     1      31.080  40.942   2.560  1.00  0.00     0.128 C 
HETATM   12  C12 UNL     1      31.325  42.303   2.592  1.00  0.00     0.091 A 
HETATM   13  N8  UNL     1      32.495  42.749   2.194  1.00  0.00    -0.338 N 
ATOM     14  H8  UNL     1      33.153  42.118   1.737  1.00  0.00     0.167 HD
HETATM   15  C13 UNL     1      32.824  44.039   2.389  1.00  0.00     0.121 A 
HETATM   16  C14 UNL     1      31.960  44.959   3.027  1.00  0.00     0.095 A 
HETATM   17  C15 UNL     1      32.341  46.311   3.172  1.00  0.00     0.104 C 
HETATM   18  N10 UNL     1      32.689  47.414   3.254  1.00  0.00    -0.191 NA
HETATM   19  C16 UNL     1      30.719  44.547   3.479  1.00  0.00    -0.015 A 
HETATM   20  C20 UNL     1      30.473  43.239   3.213  1.00  0.00     0.033 A 
HETATM   21  C21 UNL     1      29.070  43.038   3.231  1.00  0.00     0.096 A 
ENDROOT
BRANCH  15  22
HETATM   22  N9  UNL     1      33.952  44.501   1.996  1.00  0.00    -0.384 N 
ATOM     23  H92 UNL     1      33.918  45.344   1.423  1.00  0.00     0.157 HD
ATOM     24  H91 UNL     1      34.827  44.041   2.247  1.00  0.00     0.157 HD
ENDBRANCH  15  22
BRANCH  19  25
HETATM   25  C17 UNL     1      29.870  45.261   4.381  1.00  0.00     0.013 C 
HETATM   26  C18 UNL     1      30.448  44.705   5.782  1.00  0.00     0.015 C 
HETATM   27  C19 UNL     1      29.930  46.700   4.654  1.00  0.00     0.015 C 
ENDBRANCH  19  25
BRANCH  11  28
HETATM   28  N7  UNL     1      31.766  40.347   1.685  1.00  0.00    -0.384 N 
ATOM     29  H72 UNL     1      31.825  40.870   0.812  1.00  0.00     0.157 HD
ATOM     30  H71 UNL     1      32.216  39.452   1.876  1.00  0.00     0.157 HD
ENDBRANCH  11  28
BRANCH   1  31
HETATM   31  C5  UNL     1      28.354  45.058   1.908  1.00  0.00     0.148 C 
BRANCH  31  32
HETATM   32  C4  UNL     1      28.686  44.519   0.457  1.00  0.00     0.021 C 
BRANCH  32  33
HETATM   33  C3  UNL     1      29.953  45.109  -0.028  1.00  0.00     0.001 C 
BRANCH  33  34
HETATM   34  C2  UNL     1      30.884  44.167  -0.741  1.00  0.00    -0.004 C 
HETATM   35  C1  UNL     1      30.320  42.778  -0.754  1.00  0.00     0.005 C 
ENDBRANCH  33  34
ENDBRANCH  32  33
ENDBRANCH  31  32
ENDBRANCH   1  31
BRANCH   8  36
HETATM   36  N5  UNL     1      28.577  40.087   5.000  1.00  0.00    -0.384 N 
ATOM     37  H52 UNL     1      28.032  40.541   5.733  1.00  0.00     0.157 HD
ATOM     38  H51 UNL     1      28.789  39.090   4.983  1.00  0.00     0.157 HD
ENDBRANCH   8  36
BRANCH   3  39
HETATM   39  N3  UNL     1      24.696  43.159   3.105  1.00  0.00    -0.256 N 
HETATM   40  C7  UNL     1      24.062  43.315   4.361  1.00  0.00     0.232 C 
HETATM   41  C8  UNL     1      22.852  42.571   4.766  1.00  0.00     0.119 C 
HETATM   42  O1  UNL     1      24.553  44.140   5.207  1.00  0.00    -0.272 OA
ATOM     43  H3  UNL     1      24.305  42.505   2.427  1.00  0.00     0.190 HD
ENDBRANCH   3  39
TORSDOF 9
ENDMDL
MODEL 2
REMARK VINA RESULT: -7.019740232      2.833      5.027
REMARK  9 active torsions:
REMARK  status: ('A' for Active; 'I' for Inactive)
REMARK    1  A    between atoms: C2_2  and  C3_3 
REMARK    2  A    between atoms: C3_3  and  C4_4 
REMARK    3  A    between atoms: C4_4  and  C5_5 
REMARK    4  A    between atoms: C5_5  and  N1_6 
REMARK    5  A    between atoms: N2_8  and  N3_10 
REMARK       I    between atoms: N3_10  and  C7_12 
REMARK    6  A    between atoms: C10_18  and  N5_19 
REMARK    7  A    between atoms: C11_24  and  N7_25 
REMARK    8  A    between atoms: C13_31  and  N9_32 
REMARK    9  A    between atoms: C16_38  and  C17_39 
ROOT
HETATM    1  N1  UNL     1      31.220  44.161   2.562  1.00  0.00    -0.179 N 
HETATM    2  C6  UNL     1      30.971  44.617   3.824  1.00  0.00     0.700 A 
HETATM    3  N2  UNL     1      31.445  45.692   4.334  1.00  0.00    -0.129 N 
ATOM      4  H2  UNL     1      32.066  46.298   3.799  1.00  0.00     0.205 HD
HETATM    5  N4  UNL     1      30.127  43.755   4.468  1.00  0.00    -0.184 N 
ATOM      6  H4  UNL     1      29.784  43.865   5.422  1.00  0.00     0.184 HD
HETATM    7  C9  UNL     1      29.831  42.772   3.669  1.00  0.00     0.121 A 
HETATM    8  C10 UNL     1      28.857  41.782   3.781  1.00  0.00     0.130 C 
HETATM    9  N6  UNL     1      28.012  41.418   2.760  1.00  0.00    -0.326 N 
ATOM     10  H6  UNL     1      27.166  40.925   3.046  1.00  0.00     0.169 HD
HETATM   11  C11 UNL     1      28.149  41.626   1.404  1.00  0.00     0.128 C 
HETATM   12  C12 UNL     1      29.342  41.816   0.731  1.00  0.00     0.091 A 
HETATM   13  N8  UNL     1      29.427  41.457  -0.530  1.00  0.00    -0.338 N 
ATOM     14  H8  UNL     1      28.587  41.178  -1.039  1.00  0.00     0.167 HD
HETATM   15  C13 UNL     1      30.620  41.458  -1.151  1.00  0.00     0.121 A 
HETATM   16  C14 UNL     1      31.820  41.823  -0.497  1.00  0.00     0.095 A 
HETATM   17  C15 UNL     1      33.040  41.843  -1.206  1.00  0.00     0.104 C 
HETATM   18  N10 UNL     1      34.017  41.861  -1.832  1.00  0.00    -0.191 NA
HETATM   19  C16 UNL     1      31.797  42.200   0.835  1.00  0.00    -0.015 A 
HETATM   20  C20 UNL     1      30.547  42.190   1.361  1.00  0.00     0.033 A 
HETATM   21  C21 UNL     1      30.535  43.037   2.497  1.00  0.00     0.096 A 
ENDROOT
BRANCH  15  22
HETATM   22  N9  UNL     1      30.727  41.127  -2.383  1.00  0.00    -0.384 N 
ATOM     23  H92 UNL     1      29.854  41.051  -2.906  1.00  0.00     0.157 HD
ATOM     24  H91 UNL     1      31.638  40.950  -2.806  1.00  0.00     0.157 HD
ENDBRANCH  15  22
BRANCH  19  25
HETATM   25  C17 UNL     1      32.931  42.312   1.699  1.00  0.00     0.013 C 
HETATM   26  C18 UNL     1      33.077  40.767   2.143  1.00  0.00     0.015 C 
HETATM   27  C19 UNL     1      34.310  42.568   1.272  1.00  0.00     0.015 C 
ENDBRANCH  19  25
BRANCH  11  28
HETATM   28  N7  UNL     1      27.151  41.633   0.632  1.00  0.00    -0.384 N 
ATOM     29  H72 UNL     1      26.732  40.709   0.526  1.00  0.00     0.157 HD
ATOM     30  H71 UNL     1      26.818  42.494   0.196  1.00  0.00     0.157 HD
ENDBRANCH  11  28
BRANCH   1  31
HETATM   31  C5  UNL     1      31.813  44.993   1.558  1.00  0.00     0.148 C 
BRANCH  31  32
HETATM   32  C4  UNL     1      30.669  45.465   0.571  1.00  0.00     0.021 C 
BRANCH  32  33
HETATM   33  C3  UNL     1      31.155  45.431  -0.826  1.00  0.00     0.001 C 
BRANCH  33  34
HETATM   34  C2  UNL     1      32.645  45.512  -1.004  1.00  0.00    -0.004 C 
HETATM   35  C1  UNL     1      33.014  45.362  -2.450  1.00  0.00     0.005 C 
ENDBRANCH  33  34
ENDBRANCH  32  33
ENDBRANCH  31  32
ENDBRANCH   1  31
BRANCH   8  36
HETATM   36  N5  UNL     1      28.767  41.300   4.933  1.00  0.00    -0.384 N 
ATOM     37  H52 UNL     1      29.505  41.405   5.630  1.00  0.00     0.157 HD
ATOM     38  H51 UNL     1      27.923  40.747   5.078  1.00  0.00     0.157 HD
ENDBRANCH   8  36
BRANCH   3  39
HETATM   39  N3  UNL     1      31.080  46.012   5.662  1.00  0.00    -0.256 N 
HETATM   40  C7  UNL     1      31.456  47.240   6.257  1.00  0.00     0.232 C 
HETATM   41  C8  UNL     1      31.110  47.620   7.642  1.00  0.00     0.119 C 
HETATM   42  O1  UNL     1      32.139  48.079   5.573  1.00  0.00    -0.272 OA
ATOM     43  H3  UNL     1      30.532  45.343   6.203  1.00  0.00     0.190 HD
ENDBRANCH   3  39
TORSDOF 9
ENDMDL
MODEL 3
REMARK VINA RESULT: -6.672862704      5.973      9.871
REMARK  9 active torsions:
REMARK  status: ('A' for Active; 'I' for Inactive)
REMARK    1  A    between atoms: C2_2  and  C3_3 
REMARK    2  A    between atoms: C3_3  and  C4_4 
REMARK    3  A    between atoms: C4_4  and  C5_5 
REMARK    4  A    between atoms: C5_5  and  N1_6 
REMARK    5  A    between atoms: N2_8  and  N3_10 
REMARK       I    between atoms: N3_10  and  C7_12 
REMARK    6  A    between atoms: C10_18  and  N5_19 
REMARK    7  A    between atoms: C11_24  and  N7_25 
REMARK    8  A    between atoms: C13_31  and  N9_32 
REMARK    9  A    between atoms: C16_38  and  C17_39 
ROOT
HETATM    1  N1  UNL     1      32.002  49.325   9.207  1.00  0.00    -0.179 N 
HETATM    2  C6  UNL     1      32.794  50.371   9.584  1.00  0.00     0.700 A 
HETATM    3  N2  UNL     1      32.707  51.008  10.692  1.00  0.00    -0.129 N 
ATOM      4  H2  UNL     1      32.006  50.756  11.389  1.00  0.00     0.205 HD
HETATM    5  N4  UNL     1      33.707  50.637   8.602  1.00  0.00    -0.184 N 
ATOM      6  H4  UNL     1      34.415  51.370   8.636  1.00  0.00     0.184 HD
HETATM    7  C9  UNL     1      33.528  49.805   7.617  1.00  0.00     0.121 A 
HETATM    8  C10 UNL     1      34.330  49.536   6.510  1.00  0.00     0.130 C 
HETATM    9  N6  UNL     1      34.640  48.268   6.079  1.00  0.00    -0.326 N 
ATOM     10  H6  UNL     1      35.458  48.198   5.475  1.00  0.00     0.169 HD
HETATM   11  C11 UNL     1      33.998  47.077   6.348  1.00  0.00     0.128 C 
HETATM   12  C12 UNL     1      32.670  46.938   6.710  1.00  0.00     0.091 A 
HETATM   13  N8  UNL     1      32.041  45.825   6.408  1.00  0.00    -0.338 N 
ATOM     14  H8  UNL     1      32.562  45.027   6.043  1.00  0.00     0.167 HD
HETATM   15  C13 UNL     1      30.709  45.737   6.579  1.00  0.00     0.121 A 
HETATM   16  C14 UNL     1      29.931  46.812   7.069  1.00  0.00     0.095 A 
HETATM   17  C15 UNL     1      28.542  46.653   7.266  1.00  0.00     0.104 C 
HETATM   18  N10 UNL     1      27.408  46.472   7.427  1.00  0.00    -0.191 NA
HETATM   19  C16 UNL     1      30.534  48.014   7.394  1.00  0.00    -0.015 A 
HETATM   20  C20 UNL     1      31.878  47.992   7.210  1.00  0.00     0.033 A 
HETATM   21  C21 UNL     1      32.454  49.011   8.009  1.00  0.00     0.096 A 
ENDROOT
BRANCH  15  22
HETATM   22  N9  UNL     1      30.076  44.658   6.307  1.00  0.00    -0.384 N 
ATOM     23  H92 UNL     1      30.595  43.788   6.428  1.00  0.00     0.157 HD
ATOM     24  H91 UNL     1      29.108  44.681   5.984  1.00  0.00     0.157 HD
ENDBRANCH  15  22
BRANCH  19  25
HETATM   25  C17 UNL     1      29.867  49.258   7.617  1.00  0.00     0.013 C 
HETATM   26  C18 UNL     1      29.383  49.572   6.110  1.00  0.00     0.015 C 
HETATM   27  C19 UNL     1      28.591  49.432   8.318  1.00  0.00     0.015 C 
ENDBRANCH  19  25
BRANCH  11  28
HETATM   28  N7  UNL     1      34.593  45.969   6.257  1.00  0.00    -0.384 N 
ATOM     29  H72 UNL     1      35.127  45.742   7.096  1.00  0.00     0.157 HD
ATOM     30  H71 UNL     1      34.509  45.383   5.427  1.00  0.00     0.157 HD
ENDBRANCH  11  28
BRANCH   1  31
HETATM   31  C5  UNL     1      31.168  48.629  10.141  1.00  0.00     0.148 C 
BRANCH  31  32
HETATM   32  C4  UNL     1      31.882  47.268  10.518  1.00  0.00     0.021 C 
BRANCH  32  33
HETATM   33  C3  UNL     1      30.887  46.177  10.606  1.00  0.00     0.001 C 
BRANCH  33  34
HETATM   34  C2  UNL     1      29.471  46.602  10.878  1.00  0.00    -0.004 C 
HETATM   35  C1  UNL     1      28.554  45.416  10.880  1.00  0.00     0.005 C 
ENDBRANCH  33  34
ENDBRANCH  32  33
ENDBRANCH  31  32
ENDBRANCH   1  31
BRANCH   8  36
HETATM   36  N5  UNL     1      34.811  50.563   5.981  1.00  0.00    -0.384 N 
ATOM     37  H52 UNL     1      35.582  50.525   5.315  1.00  0.00     0.157 HD
ATOM     38  H51 UNL     1      34.401  51.429   6.328  1.00  0.00     0.157 HD
ENDBRANCH   8  36
BRANCH   3  39
HETATM   39  N3  UNL     1      33.612  52.070  10.918  1.00  0.00    -0.256 N 
HETATM   40  C7  UNL     1      34.943  51.832  11.334  1.00  0.00     0.232 C 
HETATM   41  C8  UNL     1      35.926  52.904  11.593  1.00  0.00     0.119 C 
HETATM   42  O1  UNL     1      35.335  50.626  11.503  1.00  0.00    -0.272 OA
ATOM     43  H3  UNL     1      33.297  53.030  10.779  1.00  0.00     0.190 HD
ENDBRANCH   3  39
TORSDOF 9
ENDMDL
MODEL 4
REMARK VINA RESULT: -6.669406024      3.381      6.525
REMARK  9 active torsions:
REMARK  status: ('A' for Active; 'I' for Inactive)
REMARK    1  A    between atoms: C2_2  and  C3_3 
REMARK    2  A    between atoms: C3_3  and  C4_4 
REMARK    3  A    between atoms: C4_4  and  C5_5 
REMARK    4  A    between atoms: C5_5  and  N1_6 
REMARK    5  A    between atoms: N2_8  and  N3_10 
REMARK       I    between atoms: N3_10  and  C7_12 
REMARK    6  A    between atoms: C10_18  and  N5_19 
REMARK    7  A    between atoms: C11_24  and  N7_25 
REMARK    8  A    between atoms: C13_31  and  N9_32 
REMARK    9  A    between atoms: C16_38  and  C17_39 
ROOT
HETATM    1  N1  UNL     1      32.215  44.650   2.418  1.00  0.00    -0.179 N 
HETATM    2  C6  UNL     1      32.811  45.452   3.347  1.00  0.00     0.700 A 
HETATM    3  N2  UNL     1      34.047  45.789   3.357  1.00  0.00    -0.129 N 
ATOM      4  H2  UNL     1      34.687  45.461   2.634  1.00  0.00     0.205 HD
HETATM    5  N4  UNL     1      31.886  45.854   4.271  1.00  0.00    -0.184 N 
ATOM      6  H4  UNL     1      32.073  46.459   5.070  1.00  0.00     0.184 HD
HETATM    7  C9  UNL     1      30.730  45.340   3.968  1.00  0.00     0.121 A 
HETATM    8  C10 UNL     1      29.460  45.625   4.464  1.00  0.00     0.130 C 
HETATM    9  N6  UNL     1      28.352  45.814   3.673  1.00  0.00    -0.326 N 
ATOM     10  H6  UNL     1      27.578  46.310   4.113  1.00  0.00     0.169 HD
HETATM   11  C11 UNL     1      28.142  45.426   2.366  1.00  0.00     0.128 C 
HETATM   12  C12 UNL     1      28.778  44.382   1.720  1.00  0.00     0.091 A 
HETATM   13  N8  UNL     1      28.154  43.763   0.743  1.00  0.00    -0.338 N 
ATOM     14  H8  UNL     1      27.279  44.139   0.377  1.00  0.00     0.167 HD
HETATM   15  C13 UNL     1      28.669  42.633   0.226  1.00  0.00     0.121 A 
HETATM   16  C14 UNL     1      29.871  42.056   0.699  1.00  0.00     0.095 A 
HETATM   17  C15 UNL     1      30.387  40.889   0.095  1.00  0.00     0.104 C 
HETATM   18  N10 UNL     1      30.781  39.939  -0.442  1.00  0.00    -0.191 NA
HETATM   19  C16 UNL     1      30.568  42.655   1.733  1.00  0.00    -0.015 A 
HETATM   20  C20 UNL     1      29.981  43.799   2.167  1.00  0.00     0.033 A 
HETATM   21  C21 UNL     1      30.963  44.583   2.823  1.00  0.00     0.096 A 
ENDROOT
BRANCH  15  22
HETATM   22  N9  UNL     1      28.088  42.019  -0.736  1.00  0.00    -0.384 N 
ATOM     23  H92 UNL     1      28.664  41.365  -1.266  1.00  0.00     0.157 HD
ATOM     24  H91 UNL     1      27.105  42.186  -0.952  1.00  0.00     0.157 HD
ENDBRANCH  15  22
BRANCH  19  25
HETATM   25  C17 UNL     1      31.614  42.057   2.503  1.00  0.00     0.013 C 
HETATM   26  C18 UNL     1      30.754  40.949   3.301  1.00  0.00     0.015 C 
HETATM   27  C19 UNL     1      32.679  41.198   1.977  1.00  0.00     0.015 C 
ENDBRANCH  19  25
BRANCH  11  28
HETATM   28  N7  UNL     1      27.294  46.005   1.632  1.00  0.00    -0.384 N 
ATOM     29  H72 UNL     1      27.207  46.999   1.845  1.00  0.00     0.157 HD
ATOM     30  H71 UNL     1      26.787  45.504   0.903  1.00  0.00     0.157 HD
ENDBRANCH  11  28
BRANCH   1  31
HETATM   31  C5  UNL     1      32.850  44.329   1.173  1.00  0.00     0.148 C 
BRANCH  31  32
HETATM   32  C4  UNL     1      32.476  45.456   0.126  1.00  0.00     0.021 C 
BRANCH  32  33
HETATM   33  C3  UNL     1      31.753  44.866  -1.021  1.00  0.00     0.001 C 
BRANCH  33  34
HETATM   34  C2  UNL     1      32.326  43.588  -1.570  1.00  0.00    -0.004 C 
HETATM   35  C1  UNL     1      31.404  42.991  -2.590  1.00  0.00     0.005 C 
ENDBRANCH  33  34
ENDBRANCH  32  33
ENDBRANCH  31  32
ENDBRANCH   1  31
BRANCH   8  36
HETATM   36  N5  UNL     1      29.432  45.771   5.707  1.00  0.00    -0.384 N 
ATOM     37  H52 UNL     1      30.279  45.862   6.267  1.00  0.00     0.157 HD
ATOM     38  H51 UNL     1      28.492  45.727   6.100  1.00  0.00     0.157 HD
ENDBRANCH   8  36
BRANCH   3  39
HETATM   39  N3  UNL     1      34.495  46.631   4.401  1.00  0.00    -0.256 N 
HETATM   40  C7  UNL     1      35.873  46.781   4.689  1.00  0.00     0.232 C 
HETATM   41  C8  UNL     1      36.394  47.639   5.773  1.00  0.00     0.119 C 
HETATM   42  O1  UNL     1      36.729  46.143   3.985  1.00  0.00    -0.272 OA
ATOM     43  H3  UNL     1      33.810  47.141   4.958  1.00  0.00     0.190 HD
ENDBRANCH   3  39
TORSDOF 9
ENDMDL
MODEL 5
REMARK VINA RESULT: -6.655684090      2.901      5.499
REMARK  9 active torsions:
REMARK  status: ('A' for Active; 'I' for Inactive)
REMARK    1  A    between atoms: C2_2  and  C3_3 
REMARK    2  A    between atoms: C3_3  and  C4_4 
REMARK    3  A    between atoms: C4_4  and  C5_5 
REMARK    4  A    between atoms: C5_5  and  N1_6 
REMARK    5  A    between atoms: N2_8  and  N3_10 
REMARK       I    between atoms: N3_10  and  C7_12 
REMARK    6  A    between atoms: C10_18  and  N5_19 
REMARK    7  A    between atoms: C11_24  and  N7_25 
REMARK    8  A    between atoms: C13_31  and  N9_32 
REMARK    9  A    between atoms: C16_38  and  C17_39 
ROOT
HETATM    1  N1  UNL     1      31.548  42.003   1.421  1.00  0.00    -0.179 N 
HETATM    2  C6  UNL     1      31.195  40.811   0.856  1.00  0.00     0.700 A 
HETATM    3  N2  UNL     1      32.010  39.909   0.453  1.00  0.00    -0.129 N 
ATOM      4  H2  UNL     1      33.018  40.036   0.536  1.00  0.00     0.205 HD
HETATM    5  N4  UNL     1      29.832  40.717   0.789  1.00  0.00    -0.184 N 
ATOM      6  H4  UNL     1      29.312  39.926   0.410  1.00  0.00     0.184 HD
HETATM    7  C9  UNL     1      29.306  41.798   1.287  1.00  0.00     0.121 A 
HETATM    8  C10 UNL     1      27.987  42.077   1.637  1.00  0.00     0.130 C 
HETATM    9  N6  UNL     1      27.617  42.669   2.821  1.00  0.00    -0.326 N 
ATOM     10  H6  UNL     1      26.642  42.538   3.091  1.00  0.00     0.169 HD
HETATM   11  C11 UNL     1      28.380  43.415   3.695  1.00  0.00     0.128 C 
HETATM   12  C12 UNL     1      29.524  44.120   3.371  1.00  0.00     0.091 A 
HETATM   13  N8  UNL     1      29.838  45.185   4.074  1.00  0.00    -0.338 N 
ATOM     14  H8  UNL     1      29.325  45.401   4.928  1.00  0.00     0.167 HD
HETATM   15  C13 UNL     1      30.835  45.990   3.666  1.00  0.00     0.121 A 
HETATM   16  C14 UNL     1      31.574  45.751   2.484  1.00  0.00     0.095 A 
HETATM   17  C15 UNL     1      32.637  46.607   2.122  1.00  0.00     0.104 C 
HETATM   18  N10 UNL     1      33.510  47.328   1.873  1.00  0.00    -0.191 NA
HETATM   19  C16 UNL     1      31.284  44.652   1.695  1.00  0.00    -0.015 A 
HETATM   20  C20 UNL     1      30.283  43.891   2.204  1.00  0.00     0.033 A 
HETATM   21  C21 UNL     1      30.391  42.588   1.658  1.00  0.00     0.096 A 
ENDROOT
BRANCH  15  22
HETATM   22  N9  UNL     1      31.169  47.026   4.341  1.00  0.00    -0.384 N 
ATOM     23  H92 UNL     1      31.232  46.903   5.352  1.00  0.00     0.157 HD
ATOM     24  H91 UNL     1      31.357  47.917   3.883  1.00  0.00     0.157 HD
ENDBRANCH  15  22
BRANCH  19  25
HETATM   25  C17 UNL     1      31.730  44.435   0.354  1.00  0.00     0.013 C 
HETATM   26  C18 UNL     1      30.472  45.057  -0.445  1.00  0.00     0.015 C 
HETATM   27  C19 UNL     1      32.816  45.158  -0.314  1.00  0.00     0.015 C 
ENDBRANCH  19  25
BRANCH  11  28
HETATM   28  N7  UNL     1      28.064  43.539   4.910  1.00  0.00    -0.384 N 
ATOM     29  H72 UNL     1      28.532  42.857   5.507  1.00  0.00     0.157 HD
ATOM     30  H71 UNL     1      27.422  44.267   5.224  1.00  0.00     0.157 HD
ENDBRANCH  11  28
BRANCH   1  31
HETATM   31  C5  UNL     1      32.876  42.253   1.898  1.00  0.00     0.148 C 
BRANCH  31  32
HETATM   32  C4  UNL     1      33.895  41.783   0.782  1.00  0.00     0.021 C 
BRANCH  32  33
HETATM   33  C3  UNL     1      35.160  42.542   0.895  1.00  0.00     0.001 C 
BRANCH  33  34
HETATM   34  C2  UNL     1      35.378  43.263   2.196  1.00  0.00    -0.004 C 
HETATM   35  C1  UNL     1      35.800  44.680   1.951  1.00  0.00     0.005 C 
ENDBRANCH  33  34
ENDBRANCH  32  33
ENDBRANCH  31  32
ENDBRANCH   1  31
BRANCH   8  36
HETATM   36  N5  UNL     1      27.151  41.667   0.801  1.00  0.00    -0.384 N 
ATOM     37  H52 UNL     1      27.199  40.735   0.390  1.00  0.00     0.157 HD
ATOM     38  H51 UNL     1      26.467  42.373   0.530  1.00  0.00     0.157 HD
ENDBRANCH   8  36
BRANCH   3  39
HETATM   39  N3  UNL     1      31.468  38.731  -0.110  1.00  0.00    -0.256 N 
HETATM   40  C7  UNL     1      30.900  38.724  -1.406  1.00  0.00     0.232 C 
HETATM   41  C8  UNL     1      30.312  37.525  -2.038  1.00  0.00     0.119 C 
HETATM   42  O1  UNL     1      30.881  39.810  -2.083  1.00  0.00    -0.272 OA
ATOM     43  H3  UNL     1      31.488  37.866   0.430  1.00  0.00     0.190 HD
ENDBRANCH   3  39
TORSDOF 9
ENDMDL
