MODEL 1
REMARK VINA RESULT: -5.673469422      0.000      0.000
REMARK  3 active torsions:
REMARK  status: ('A' for Active; 'I' for Inactive)
REMARK    1  A    between atoms: C5_12  and  C15_25 
REMARK    2  A    between atoms: C10_18  and  C11_19 
REMARK    3  A    between atoms: C11_19  and  O1_20 
ROOT
HETATM    1  C1  UNL     1      -2.474   6.850 -17.565  1.00  0.00     0.022 C 
HETATM    2  C2  UNL     1      -3.921   6.941 -17.212  1.00  0.00     0.058 C 
HETATM    3  S1  UNL     1      -4.431   5.423 -16.228  1.00  0.00    -0.111 SA
HETATM    4  C3  UNL     1      -5.961   6.115 -15.486  1.00  0.00     0.058 C 
HETATM    5  N1  UNL     1      -7.024   5.561 -15.943  1.00  0.00    -0.334 N 
ATOM      6  H1  UNL     1      -6.927   4.815 -16.632  1.00  0.00     0.168 HD
HETATM    7  C4  UNL     1      -8.356   5.946 -15.522  1.00  0.00     0.138 C 
HETATM    8  N2  UNL     1      -9.139   5.019 -15.180  1.00  0.00    -0.380 N 
ATOM      9  H21 UNL     1     -10.077   5.290 -14.884  1.00  0.00     0.158 HD
ATOM     10  H22 UNL     1      -8.797   4.058 -15.195  1.00  0.00     0.158 HD
HETATM   11  S2  UNL     1      -8.967   7.664 -15.497  1.00  0.00    -0.089 SA
HETATM   12  C5  UNL     1      -7.428   8.686 -15.465  1.00  0.00     0.063 C 
HETATM   13  C6  UNL     1      -6.679   8.201 -14.279  1.00  0.00     0.033 C 
HETATM   14  C7  UNL     1      -5.642   7.182 -14.513  1.00  0.00     0.023 C 
HETATM   15  C8  UNL     1      -5.365   6.479 -13.190  1.00  0.00     0.024 C 
HETATM   16  C9  UNL     1      -4.340   7.839 -14.910  1.00  0.00     0.105 C 
HETATM   17 CL1  UNL     1      -4.028   9.283 -13.959  1.00  0.00    -0.123 Cl
HETATM   18  C10 UNL     1      -4.276   8.155 -16.375  1.00  0.00     0.054 C 
ENDROOT
BRANCH  12  19
HETATM   19  C15 UNL     1      -6.779   8.549 -16.777  1.00  0.00     0.035 C 
HETATM   20  C11 UNL     1      -6.240   9.726 -17.471  1.00  0.00     0.069 C 
HETATM   21  C12 UNL     1      -7.489  10.585 -17.645  1.00  0.00     0.038 C 
HETATM   22  C13 UNL     1      -8.380   9.556 -18.312  1.00  0.00     0.004 C 
HETATM   23  C14 UNL     1      -7.934   8.218 -17.764  1.00  0.00     0.009 C 
BRANCH  20  24
HETATM   24  O1  UNL     1      -5.939   9.302 -18.798  1.00  0.00    -0.389 OA
ATOM     25  H1  UNL     1      -6.657   8.740 -19.063  1.00  0.00     0.210 HD
ENDBRANCH  20  24
ENDBRANCH  12  19
TORSDOF 3
ENDMDL
MODEL 2
REMARK VINA RESULT: -5.153581222      2.388      4.488
REMARK  3 active torsions:
REMARK  status: ('A' for Active; 'I' for Inactive)
REMARK    1  A    between atoms: C5_12  and  C15_25 
REMARK    2  A    between atoms: C10_18  and  C11_19 
REMARK    3  A    between atoms: C11_19  and  O1_20 
ROOT
HETATM    1  C1  UNL     1      -8.096  11.769 -18.269  1.00  0.00     0.022 C 
HETATM    2  C2  UNL     1      -7.382  10.683 -17.536  1.00  0.00     0.058 C 
HETATM    3  S1  UNL     1      -8.190  10.409 -15.861  1.00  0.00    -0.111 SA
HETATM    4  C3  UNL     1      -7.520   8.731 -15.538  1.00  0.00     0.058 C 
HETATM    5  N1  UNL     1      -6.673   8.715 -14.575  1.00  0.00    -0.334 N 
ATOM      6  H1  UNL     1      -6.468   9.590 -14.092  1.00  0.00     0.168 HD
HETATM    7  C4  UNL     1      -5.995   7.510 -14.142  1.00  0.00     0.138 C 
HETATM    8  N2  UNL     1      -6.001   7.263 -12.904  1.00  0.00    -0.380 N 
ATOM      9  H21 UNL     1      -5.524   6.415 -12.599  1.00  0.00     0.158 HD
ATOM     10  H22 UNL     1      -6.493   7.902 -12.280  1.00  0.00     0.158 HD
HETATM   11  S2  UNL     1      -5.116   6.369 -15.259  1.00  0.00    -0.089 SA
HETATM   12  C5  UNL     1      -5.835   6.730 -16.922  1.00  0.00     0.063 C 
HETATM   13  C6  UNL     1      -7.297   6.539 -16.750  1.00  0.00     0.033 C 
HETATM   14  C7  UNL     1      -8.100   7.741 -16.471  1.00  0.00     0.023 C 
HETATM   15  C8  UNL     1      -9.417   7.293 -15.849  1.00  0.00     0.024 C 
HETATM   16  C9  UNL     1      -8.470   8.436 -17.761  1.00  0.00     0.105 C 
HETATM   17 CL1  UNL     1      -8.920   7.285 -19.010  1.00  0.00    -0.123 Cl
HETATM   18  C10 UNL     1      -7.387   9.347 -18.257  1.00  0.00     0.054 C 
ENDROOT
BRANCH  12  19
HETATM   19  C15 UNL     1      -5.371   8.065 -17.325  1.00  0.00     0.035 C 
HETATM   20  C11 UNL     1      -4.765   8.279 -18.646  1.00  0.00     0.069 C 
HETATM   21  C12 UNL     1      -3.556   7.351 -18.590  1.00  0.00     0.038 C 
HETATM   22  C13 UNL     1      -2.944   7.856 -17.298  1.00  0.00     0.004 C 
HETATM   23  C14 UNL     1      -4.108   8.330 -16.456  1.00  0.00     0.009 C 
BRANCH  20  24
HETATM   24  O1  UNL     1      -4.188   9.582 -18.613  1.00  0.00    -0.389 OA
ATOM     25  H1  UNL     1      -4.498   9.986 -17.811  1.00  0.00     0.210 HD
ENDBRANCH  20  24
ENDBRANCH  12  19
TORSDOF 3
ENDMDL
MODEL 3
REMARK VINA RESULT: -5.034359254      8.627     11.174
REMARK  3 active torsions:
REMARK  status: ('A' for Active; 'I' for Inactive)
REMARK    1  A    between atoms: C5_12  and  C15_25 
REMARK    2  A    between atoms: C10_18  and  C11_19 
REMARK    3  A    between atoms: C11_19  and  O1_20 
ROOT
HETATM    1  C1  UNL     1       6.540  10.443 -17.686  1.00  0.00     0.022 C 
HETATM    2  C2  UNL     1       5.269  10.115 -18.394  1.00  0.00     0.058 C 
HETATM    3  S1  UNL     1       5.143  11.124 -19.975  1.00  0.00    -0.111 SA
HETATM    4  C3  UNL     1       3.888  10.091 -20.826  1.00  0.00     0.058 C 
HETATM    5  N1  UNL     1       2.759  10.686 -20.947  1.00  0.00    -0.334 N 
ATOM      6  H1  UNL     1       2.668  11.637 -20.588  1.00  0.00     0.168 HD
HETATM    7  C4  UNL     1       1.606  10.070 -21.571  1.00  0.00     0.138 C 
HETATM    8  N2  UNL     1       1.001  10.743 -22.449  1.00  0.00    -0.380 N 
ATOM      9  H21 UNL     1       0.189  10.309 -22.889  1.00  0.00     0.158 HD
ATOM     10  H22 UNL     1       1.359  11.668 -22.691  1.00  0.00     0.158 HD
HETATM   11  S2  UNL     1       0.966   8.418 -21.139  1.00  0.00    -0.089 SA
HETATM   12  C5  UNL     1       2.400   7.581 -20.330  1.00  0.00     0.063 C 
HETATM   13  C6  UNL     1       3.495   7.658 -21.329  1.00  0.00     0.033 C 
HETATM   14  C7  UNL     1       4.449   8.772 -21.191  1.00  0.00     0.023 C 
HETATM   15  C8  UNL     1       5.144   8.964 -22.533  1.00  0.00     0.024 C 
HETATM   16  C9  UNL     1       5.540   8.410 -20.211  1.00  0.00     0.105 C 
HETATM   17 CL1  UNL     1       6.072   6.749 -20.419  1.00  0.00    -0.123 Cl
HETATM   18  C10 UNL     1       5.140   8.655 -18.786  1.00  0.00     0.054 C 
ENDROOT
BRANCH  12  19
HETATM   19  C15 UNL     1       2.621   8.237 -19.033  1.00  0.00     0.035 C 
HETATM   20  C11 UNL     1       2.916   7.442 -17.833  1.00  0.00     0.069 C 
HETATM   21  C12 UNL     1       1.667   6.572 -17.720  1.00  0.00     0.038 C 
HETATM   22  C13 UNL     1       0.623   7.671 -17.760  1.00  0.00     0.004 C 
HETATM   23  C14 UNL     1       1.223   8.770 -18.609  1.00  0.00     0.009 C 
BRANCH  20  24
HETATM   24  O1  UNL     1       2.802   8.334 -16.727  1.00  0.00    -0.389 OA
ATOM     25  H1  UNL     1       2.441   7.823 -16.013  1.00  0.00     0.210 HD
ENDBRANCH  20  24
ENDBRANCH  12  19
TORSDOF 3
ENDMDL
MODEL 4
REMARK VINA RESULT: -4.659185626      8.918     11.147
REMARK  3 active torsions:
REMARK  status: ('A' for Active; 'I' for Inactive)
REMARK    1  A    between atoms: C5_12  and  C15_25 
REMARK    2  A    between atoms: C10_18  and  C11_19 
REMARK    3  A    between atoms: C11_19  and  O1_20 
ROOT
HETATM    1  C1  UNL     1       6.962   9.679 -20.422  1.00  0.00     0.022 C 
HETATM    2  C2  UNL     1       5.481   9.530 -20.327  1.00  0.00     0.058 C 
HETATM    3  S1  UNL     1       4.641  10.827 -21.396  1.00  0.00    -0.111 SA
HETATM    4  C3  UNL     1       3.001  10.013 -21.527  1.00  0.00     0.058 C 
HETATM    5  N1  UNL     1       2.082  10.651 -20.902  1.00  0.00    -0.334 N 
ATOM      6  H1  UNL     1       2.330  11.517 -20.423  1.00  0.00     0.168 HD
HETATM    7  C4  UNL     1       0.707  10.199 -20.846  1.00  0.00     0.138 C 
HETATM    8  N2  UNL     1      -0.187  11.046 -21.122  1.00  0.00    -0.380 N 
ATOM      9  H21 UNL     1      -1.155  10.728 -21.083  1.00  0.00     0.158 HD
ATOM     10  H22 UNL     1       0.098  11.989 -21.387  1.00  0.00     0.158 HD
HETATM   11  S2  UNL     1       0.199   8.514 -20.371  1.00  0.00    -0.089 SA
HETATM   12  C5  UNL     1       1.718   7.496 -20.643  1.00  0.00     0.063 C 
HETATM   13  C6  UNL     1       2.081   7.734 -22.063  1.00  0.00     0.033 C 
HETATM   14  C7  UNL     1       3.089   8.773 -22.330  1.00  0.00     0.023 C 
HETATM   15  C8  UNL     1       2.951   9.201 -23.785  1.00  0.00     0.024 C 
HETATM   16  C9  UNL     1       4.481   8.199 -22.201  1.00  0.00     0.105 C 
HETATM   17 CL1  UNL     1       4.588   6.595 -22.909  1.00  0.00    -0.123 Cl
HETATM   18  C10 UNL     1       4.967   8.176 -20.783  1.00  0.00     0.054 C 
ENDROOT
BRANCH  12  19
HETATM   19  C15 UNL     1       2.699   7.884 -19.620  1.00  0.00     0.035 C 
HETATM   20  C11 UNL     1       3.494   6.865 -18.921  1.00  0.00     0.069 C 
HETATM   21  C12 UNL     1       2.409   6.030 -18.248  1.00  0.00     0.038 C 
HETATM   22  C13 UNL     1       1.672   7.149 -17.537  1.00  0.00     0.004 C 
HETATM   23  C14 UNL     1       1.849   8.371 -18.412  1.00  0.00     0.009 C 
BRANCH  20  24
HETATM   24  O1  UNL     1       4.126   7.532 -17.832  1.00  0.00    -0.389 OA
ATOM     25  H1  UNL     1       4.946   7.870 -18.171  1.00  0.00     0.210 HD
ENDBRANCH  20  24
ENDBRANCH  12  19
TORSDOF 3
ENDMDL
MODEL 5
REMARK VINA RESULT: -4.649817148      8.476     11.446
REMARK  3 active torsions:
REMARK  status: ('A' for Active; 'I' for Inactive)
REMARK    1  A    between atoms: C5_12  and  C15_25 
REMARK    2  A    between atoms: C10_18  and  C11_19 
REMARK    3  A    between atoms: C11_19  and  O1_20 
ROOT
HETATM    1  C1  UNL     1      -0.643   9.043 -19.808  1.00  0.00     0.022 C 
HETATM    2  C2  UNL     1       0.846   9.029 -19.894  1.00  0.00     0.058 C 
HETATM    3  S1  UNL     1       1.562   8.169 -18.383  1.00  0.00    -0.111 SA
HETATM    4  C3  UNL     1       3.223   7.803 -19.073  1.00  0.00     0.058 C 
HETATM    5  N1  UNL     1       4.152   8.483 -18.510  1.00  0.00    -0.334 N 
ATOM      6  H1  UNL     1       3.899   9.124 -17.758  1.00  0.00     0.168 HD
HETATM    7  C4  UNL     1       5.546   8.380 -18.892  1.00  0.00     0.138 C 
HETATM    8  N2  UNL     1       6.384   8.216 -17.963  1.00  0.00    -0.380 N 
ATOM      9  H21 UNL     1       7.365   8.143 -18.232  1.00  0.00     0.158 HD
ATOM     10  H22 UNL     1       6.044   8.142 -17.004  1.00  0.00     0.158 HD
HETATM   11  S2  UNL     1       6.153   8.513 -20.606  1.00  0.00    -0.089 SA
HETATM   12  C5  UNL     1       4.664   8.143 -21.636  1.00  0.00     0.063 C 
HETATM   13  C6  UNL     1       4.203   6.812 -21.168  1.00  0.00     0.033 C 
HETATM   14  C7  UNL     1       3.137   6.794 -20.152  1.00  0.00     0.023 C 
HETATM   15  C8  UNL     1       3.165   5.435 -19.464  1.00  0.00     0.024 C 
HETATM   16  C9  UNL     1       1.781   6.892 -20.812  1.00  0.00     0.105 C 
HETATM   17 CL1  UNL     1       1.698   5.910 -22.267  1.00  0.00    -0.123 Cl
HETATM   18  C10 UNL     1       1.387   8.307 -21.115  1.00  0.00     0.054 C 
ENDROOT
BRANCH  12  19
HETATM   19  C15 UNL     1       3.734   9.271 -21.491  1.00  0.00     0.035 C 
HETATM   20  C11 UNL     1       3.042   9.827 -22.662  1.00  0.00     0.069 C 
HETATM   21  C12 UNL     1       4.212  10.283 -23.528  1.00  0.00     0.038 C 
HETATM   22  C13 UNL     1       4.934  11.134 -22.502  1.00  0.00     0.004 C 
HETATM   23  C14 UNL     1       4.635  10.495 -21.163  1.00  0.00     0.009 C 
BRANCH  20  24
HETATM   24  O1  UNL     1       2.449  11.049 -22.231  1.00  0.00    -0.389 OA
ATOM     25  H1  UNL     1       2.931  11.742 -22.665  1.00  0.00     0.210 HD
ENDBRANCH  20  24
ENDBRANCH  12  19
TORSDOF 3
ENDMDL
