MODEL 1
REMARK VINA RESULT: -9.822783708      0.000      0.000
REMARK  1 active torsions:
REMARK  status: ('A' for Active; 'I' for Inactive)
REMARK    1  A    between atoms: C3_3  and  O1_4 
ROOT
HETATM    1  C1  UNL     1      -3.990   5.919 -16.414  1.00  0.00     0.052 C 
HETATM    2  C2  UNL     1      -3.510   7.038 -17.249  1.00  0.00    -0.014 A 
HETATM    3  C3  UNL     1      -2.171   7.134 -17.621  1.00  0.00     0.089 A 
HETATM    4  C4  UNL     1      -1.750   8.186 -18.437  1.00  0.00     0.046 A 
HETATM    5 BR1  UNL     1       0.087   8.268 -18.914  1.00  0.00    -0.048 Br
HETATM    6  C5  UNL     1      -2.677   9.110 -18.858  1.00  0.00     0.052 A 
HETATM    7  C6  UNL     1      -3.997   9.006 -18.484  1.00  0.00     0.047 A 
HETATM    8  C7  UNL     1      -4.438   7.978 -17.678  1.00  0.00     0.009 A 
HETATM    9  C8  UNL     1      -5.811   8.144 -17.477  1.00  0.00     0.002 A 
HETATM   10  C9  UNL     1      -6.164   9.274 -18.175  1.00  0.00     0.030 A 
HETATM   11  N1  UNL     1      -5.046   9.775 -18.773  1.00  0.00    -0.353 N 
HETATM   12  C10 UNL     1      -5.004  10.958 -19.594  1.00  0.00     0.156 C 
HETATM   13  C11 UNL     1      -7.609   9.530 -18.044  1.00  0.00     0.019 C 
HETATM   14  C12 UNL     1      -8.359   8.963 -19.252  1.00  0.00     0.024 C 
HETATM   15  C13 UNL     1      -7.922  11.000 -17.978  1.00  0.00     0.024 C 
HETATM   16  C14 UNL     1      -8.008   8.770 -16.838  1.00  0.00     0.140 C 
HETATM   17  N2  UNL     1      -7.701   9.477 -15.600  1.00  0.00    -0.317 N 
ATOM     18  H2  UNL     1      -7.969  10.439 -15.394  1.00  0.00     0.181 HD
HETATM   19  N3  UNL     1      -7.056   8.726 -14.821  1.00  0.00    -0.250 N 
ATOM     20  H3  UNL     1      -6.731   9.000 -13.895  1.00  0.00     0.203 HD
HETATM   21  N4  UNL     1      -6.846   7.469 -15.393  1.00  0.00    -0.114 NA
HETATM   22  C15 UNL     1      -7.016   7.608 -16.815  1.00  0.00     0.161 C 
ENDROOT
BRANCH   3  23
HETATM   23  O1  UNL     1      -1.238   6.226 -17.211  1.00  0.00    -0.359 OA
ATOM     24  H1  UNL     1      -0.447   6.056 -17.710  1.00  0.00     0.217 HD
ENDBRANCH   3  23
TORSDOF 1
ENDMDL
MODEL 2
REMARK VINA RESULT: -9.528260869      1.321      1.551
REMARK  1 active torsions:
REMARK  status: ('A' for Active; 'I' for Inactive)
REMARK    1  A    between atoms: C3_3  and  O1_4 
ROOT
HETATM    1  C1  UNL     1      -2.885   6.393 -16.881  1.00  0.00     0.052 C 
HETATM    2  C2  UNL     1      -3.147   7.604 -17.683  1.00  0.00    -0.014 A 
HETATM    3  C3  UNL     1      -2.153   8.167 -18.480  1.00  0.00     0.089 A 
HETATM    4  C4  UNL     1      -2.437   9.295 -19.253  1.00  0.00     0.046 A 
HETATM    5 BR1  UNL     1      -1.045  10.020 -20.322  1.00  0.00    -0.048 Br
HETATM    6  C5  UNL     1      -3.703   9.829 -19.206  1.00  0.00     0.052 A 
HETATM    7  C6  UNL     1      -4.677   9.265 -18.414  1.00  0.00     0.047 A 
HETATM    8  C7  UNL     1      -4.422   8.152 -17.642  1.00  0.00     0.009 A 
HETATM    9  C8  UNL     1      -5.596   7.822 -16.959  1.00  0.00     0.002 A 
HETATM   10  C9  UNL     1      -6.534   8.750 -17.342  1.00  0.00     0.030 A 
HETATM   11  N1  UNL     1      -5.950   9.611 -18.223  1.00  0.00    -0.353 N 
HETATM   12  C10 UNL     1      -6.608  10.727 -18.852  1.00  0.00     0.156 C 
HETATM   13  C11 UNL     1      -7.826   8.477 -16.688  1.00  0.00     0.019 C 
HETATM   14  C12 UNL     1      -8.734   7.675 -17.622  1.00  0.00     0.024 C 
HETATM   15  C13 UNL     1      -8.560   9.742 -16.333  1.00  0.00     0.024 C 
HETATM   16  C14 UNL     1      -7.475   7.632 -15.524  1.00  0.00     0.140 C 
HETATM   17  N2  UNL     1      -6.986   8.409 -14.390  1.00  0.00    -0.317 N 
ATOM     18  H2  UNL     1      -7.463   9.215 -13.985  1.00  0.00     0.181 HD
HETATM   19  N3  UNL     1      -5.891   7.940 -13.985  1.00  0.00    -0.250 N 
ATOM     20  H3  UNL     1      -5.357   8.317 -13.202  1.00  0.00     0.203 HD
HETATM   21  N4  UNL     1      -5.502   6.835 -14.747  1.00  0.00    -0.114 NA
HETATM   22  C15 UNL     1      -6.220   6.897 -15.992  1.00  0.00     0.161 C 
ENDROOT
BRANCH   3  23
HETATM   23  O1  UNL     1      -0.891   7.651 -18.538  1.00  0.00    -0.359 OA
ATOM     24  H1  UNL     1      -0.558   7.218 -19.316  1.00  0.00     0.217 HD
ENDBRANCH   3  23
TORSDOF 1
ENDMDL
MODEL 3
REMARK VINA RESULT: -9.422067910      0.909      1.009
REMARK  1 active torsions:
REMARK  status: ('A' for Active; 'I' for Inactive)
REMARK    1  A    between atoms: C3_3  and  O1_4 
ROOT
HETATM    1  C1  UNL     1      -2.872   6.428 -17.097  1.00  0.00     0.052 C 
HETATM    2  C2  UNL     1      -2.690   7.631 -17.932  1.00  0.00    -0.014 A 
HETATM    3  C3  UNL     1      -1.451   7.937 -18.490  1.00  0.00     0.089 A 
HETATM    4  C4  UNL     1      -1.314   9.065 -19.303  1.00  0.00     0.046 A 
HETATM    5 BR1  UNL     1       0.398   9.434 -20.038  1.00  0.00    -0.048 Br
HETATM    6  C5  UNL     1      -2.416   9.853 -19.533  1.00  0.00     0.052 A 
HETATM    7  C6  UNL     1      -3.635   9.542 -18.976  1.00  0.00     0.047 A 
HETATM    8  C7  UNL     1      -3.797   8.435 -18.171  1.00  0.00     0.009 A 
HETATM    9  C8  UNL     1      -5.132   8.388 -17.763  1.00  0.00     0.002 A 
HETATM   10  C9  UNL     1      -5.745   9.474 -18.340  1.00  0.00     0.030 A 
HETATM   11  N1  UNL     1      -4.815  10.155 -19.068  1.00  0.00    -0.353 N 
HETATM   12  C10 UNL     1      -5.067  11.355 -19.823  1.00  0.00     0.156 C 
HETATM   13  C11 UNL     1      -7.175   9.507 -17.986  1.00  0.00     0.019 C 
HETATM   14  C12 UNL     1      -8.012   8.873 -19.099  1.00  0.00     0.024 C 
HETATM   15  C13 UNL     1      -7.681  10.912 -17.797  1.00  0.00     0.024 C 
HETATM   16  C14 UNL     1      -7.273   8.660 -16.777  1.00  0.00     0.140 C 
HETATM   17  N2  UNL     1      -6.885   9.366 -15.561  1.00  0.00    -0.317 N 
ATOM     18  H2  UNL     1      -7.253  10.271 -15.267  1.00  0.00     0.181 HD
HETATM   19  N3  UNL     1      -6.028   8.696 -14.926  1.00  0.00    -0.250 N 
ATOM     20  H3  UNL     1      -5.608   8.986 -14.044  1.00  0.00     0.203 HD
HETATM   21  N4  UNL     1      -5.731   7.502 -15.588  1.00  0.00    -0.114 NA
HETATM   22  C15 UNL     1      -6.134   7.658 -16.960  1.00  0.00     0.161 C 
ENDROOT
BRANCH   3  23
HETATM   23  O1  UNL     1      -0.347   7.166 -18.271  1.00  0.00    -0.359 OA
ATOM     24  H1  UNL     1       0.535   7.506 -18.374  1.00  0.00     0.217 HD
ENDBRANCH   3  23
TORSDOF 1
ENDMDL
MODEL 4
REMARK VINA RESULT: -8.475734755      1.998      3.497
REMARK  1 active torsions:
REMARK  status: ('A' for Active; 'I' for Inactive)
REMARK    1  A    between atoms: C3_3  and  O1_4 
ROOT
HETATM    1  C1  UNL     1      -4.723  11.252 -19.504  1.00  0.00     0.052 C 
HETATM    2  C2  UNL     1      -3.955  10.060 -19.096  1.00  0.00    -0.014 A 
HETATM    3  C3  UNL     1      -2.648   9.862 -19.536  1.00  0.00     0.089 A 
HETATM    4  C4  UNL     1      -1.933   8.741 -19.110  1.00  0.00     0.046 A 
HETATM    5 BR1  UNL     1      -0.154   8.522 -19.740  1.00  0.00    -0.048 Br
HETATM    6  C5  UNL     1      -2.543   7.850 -18.259  1.00  0.00     0.052 A 
HETATM    7  C6  UNL     1      -3.835   8.054 -17.832  1.00  0.00     0.047 A 
HETATM    8  C7  UNL     1      -4.562   9.152 -18.238  1.00  0.00     0.009 A 
HETATM    9  C8  UNL     1      -5.824   9.080 -17.642  1.00  0.00     0.002 A 
HETATM   10  C9  UNL     1      -5.822   7.933 -16.884  1.00  0.00     0.030 A 
HETATM   11  N1  UNL     1      -4.606   7.333 -17.019  1.00  0.00    -0.353 N 
HETATM   12  C10 UNL     1      -4.213   6.103 -16.380  1.00  0.00     0.156 C 
HETATM   13  C11 UNL     1      -7.113   7.772 -16.191  1.00  0.00     0.019 C 
HETATM   14  C12 UNL     1      -7.017   8.310 -14.762  1.00  0.00     0.024 C 
HETATM   15  C13 UNL     1      -7.529   6.329 -16.095  1.00  0.00     0.024 C 
HETATM   16  C14 UNL     1      -8.049   8.624 -16.958  1.00  0.00     0.140 C 
HETATM   17  N2  UNL     1      -8.540   7.975 -18.168  1.00  0.00    -0.317 N 
ATOM     18  H2  UNL     1      -8.955   7.044 -18.204  1.00  0.00     0.181 HD
HETATM   19  N3  UNL     1      -8.376   8.731 -19.162  1.00  0.00    -0.250 N 
ATOM     20  H3  UNL     1      -8.643   8.493 -20.117  1.00  0.00     0.203 HD
HETATM   21  N4  UNL     1      -7.782   9.937 -18.784  1.00  0.00    -0.114 NA
HETATM   22  C15 UNL     1      -7.146   9.725 -17.511  1.00  0.00     0.161 C 
ENDROOT
BRANCH   3  23
HETATM   23  O1  UNL     1      -2.028  10.736 -20.381  1.00  0.00    -0.359 OA
ATOM     24  H1  UNL     1      -2.092  10.655 -21.326  1.00  0.00     0.217 HD
ENDBRANCH   3  23
TORSDOF 1
ENDMDL
MODEL 5
REMARK VINA RESULT: -8.060472453      2.444      4.020
REMARK  1 active torsions:
REMARK  status: ('A' for Active; 'I' for Inactive)
REMARK    1  A    between atoms: C3_3  and  O1_4 
ROOT
HETATM    1  C1  UNL     1      -7.059  11.052 -18.518  1.00  0.00     0.052 C 
HETATM    2  C2  UNL     1      -5.777  10.320 -18.524  1.00  0.00    -0.014 A 
HETATM    3  C3  UNL     1      -4.754  10.670 -19.402  1.00  0.00     0.089 A 
HETATM    4  C4  UNL     1      -3.540   9.981 -19.364  1.00  0.00     0.046 A 
HETATM    5 BR1  UNL     1      -2.179  10.501 -20.584  1.00  0.00    -0.048 Br
HETATM    6  C5  UNL     1      -3.382   8.964 -18.453  1.00  0.00     0.052 A 
HETATM    7  C6  UNL     1      -4.400   8.626 -17.591  1.00  0.00     0.047 A 
HETATM    8  C7  UNL     1      -5.608   9.290 -17.607  1.00  0.00     0.009 A 
HETATM    9  C8  UNL     1      -6.426   8.724 -16.626  1.00  0.00     0.002 A 
HETATM   10  C9  UNL     1      -5.683   7.729 -16.038  1.00  0.00     0.030 A 
HETATM   11  N1  UNL     1      -4.462   7.692 -16.642  1.00  0.00    -0.353 N 
HETATM   12  C10 UNL     1      -3.397   6.781 -16.307  1.00  0.00     0.156 C 
HETATM   13  C11 UNL     1      -6.454   7.076 -14.965  1.00  0.00     0.019 C 
HETATM   14  C12 UNL     1      -6.091   7.681 -13.608  1.00  0.00     0.024 C 
HETATM   15  C13 UNL     1      -6.173   5.600 -14.882  1.00  0.00     0.024 C 
HETATM   16  C14 UNL     1      -7.863   7.408 -15.273  1.00  0.00     0.140 C 
HETATM   17  N2  UNL     1      -8.434   6.547 -16.302  1.00  0.00    -0.317 N 
ATOM     18  H2  UNL     1      -8.410   5.528 -16.290  1.00  0.00     0.181 HD
HETATM   19  N3  UNL     1      -8.960   7.246 -17.208  1.00  0.00    -0.250 N 
ATOM     20  H3  UNL     1      -9.423   6.866 -18.033  1.00  0.00     0.203 HD
HETATM   21  N4  UNL     1      -8.827   8.609 -16.934  1.00  0.00    -0.114 NA
HETATM   22  C15 UNL     1      -7.756   8.756 -15.985  1.00  0.00     0.161 C 
ENDROOT
BRANCH   3  23
HETATM   23  O1  UNL     1      -4.894  11.676 -20.313  1.00  0.00    -0.359 OA
ATOM     24  H1  UNL     1      -4.359  12.462 -20.284  1.00  0.00     0.217 HD
ENDBRANCH   3  23
TORSDOF 1
ENDMDL
