MODEL 1
REMARK VINA RESULT: -9.182822255      0.000      0.000
REMARK  2 active torsions:
REMARK  status: ('A' for Active; 'I' for Inactive)
REMARK    1  A    between atoms: C12_15  and  O3_17 
REMARK    2  A    between atoms: N1_23  and  O4_25 
ROOT
HETATM    1  C1  UNL     1      -8.078  11.170 -18.439  1.00  0.00     0.065 C 
HETATM    2  C2  UNL     1      -8.170  10.549 -17.116  1.00  0.00     0.043 C 
HETATM    3 CL1  UNL     1      -9.543  11.028 -16.093  1.00  0.00    -0.086 Cl
HETATM    4  C3  UNL     1      -7.333   9.691 -16.631  1.00  0.00     0.115 C 
HETATM    5  O1  UNL     1      -7.477   9.120 -15.337  1.00  0.00    -0.341 OA
HETATM    6  C4  UNL     1      -7.231   7.744 -15.105  1.00  0.00     0.138 C 
HETATM    7  C5  UNL     1      -8.414   6.978 -15.704  1.00  0.00     0.041 C 
HETATM    8  C6  UNL     1      -5.916   7.252 -15.631  1.00  0.00     0.018 C 
HETATM    9  C7  UNL     1      -6.165   5.898 -16.250  1.00  0.00     0.023 C 
HETATM   10  C8  UNL     1      -5.292   8.198 -16.586  1.00  0.00    -0.019 C 
HETATM   11  C9  UNL     1      -3.995   8.152 -16.767  1.00  0.00    -0.014 C 
HETATM   12  C10 UNL     1      -3.058   7.222 -16.099  1.00  0.00     0.060 C 
HETATM   13  C11 UNL     1      -3.613   6.624 -14.843  1.00  0.00     0.134 C 
HETATM   14  O2  UNL     1      -3.698   5.233 -14.878  1.00  0.00    -0.350 OA
HETATM   15  C12 UNL     1      -3.617   4.786 -13.562  1.00  0.00     0.158 C 
HETATM   16  C13 UNL     1      -4.042   3.345 -13.413  1.00  0.00     0.078 C 
HETATM   17  C14 UNL     1      -4.362   5.685 -12.618  1.00  0.00     0.068 C 
HETATM   18  C15 UNL     1      -5.505   6.430 -13.288  1.00  0.00     0.013 C 
HETATM   19  C16 UNL     1      -4.953   7.159 -14.466  1.00  0.00     0.030 C 
HETATM   20  C17 UNL     1      -6.125   9.177 -17.320  1.00  0.00     0.095 C 
HETATM   21  N1  UNL     1      -5.872   9.581 -18.477  1.00  0.00    -0.266 N 
ATOM     22  H1  UNL     1      -6.544  10.252 -18.851  1.00  0.00     0.194 HD
ENDROOT
BRANCH  21  23
HETATM   23  O4  UNL     1      -4.864   9.279 -19.305  1.00  0.00    -0.289 OA
ATOM     24  H4  UNL     1      -4.045   9.729 -19.474  1.00  0.00     0.244 HD
ENDBRANCH  21  23
BRANCH  15  25
HETATM   25  O3  UNL     1      -2.248   4.876 -13.213  1.00  0.00    -0.366 OA
ATOM     26  H3  UNL     1      -2.230   4.949 -12.267  1.00  0.00     0.213 HD
ENDBRANCH  15  25
TORSDOF 2
ENDMDL
MODEL 2
REMARK VINA RESULT: -8.835845625      2.964      6.066
REMARK  2 active torsions:
REMARK  status: ('A' for Active; 'I' for Inactive)
REMARK    1  A    between atoms: C12_15  and  O3_17 
REMARK    2  A    between atoms: N1_23  and  O4_25 
ROOT
HETATM    1  C1  UNL     1      -1.922   3.414 -14.572  1.00  0.00     0.065 C 
HETATM    2  C2  UNL     1      -3.338   3.761 -14.428  1.00  0.00     0.043 C 
HETATM    3 CL1  UNL     1      -4.303   2.768 -13.312  1.00  0.00    -0.086 Cl
HETATM    4  C3  UNL     1      -3.941   4.722 -15.049  1.00  0.00     0.115 C 
HETATM    5  O1  UNL     1      -5.321   5.012 -14.865  1.00  0.00    -0.341 OA
HETATM    6  C4  UNL     1      -5.787   6.346 -14.763  1.00  0.00     0.138 C 
HETATM    7  C5  UNL     1      -5.376   6.851 -13.377  1.00  0.00     0.041 C 
HETATM    8  C6  UNL     1      -5.315   7.254 -15.858  1.00  0.00     0.018 C 
HETATM    9  C7  UNL     1      -4.958   8.573 -15.218  1.00  0.00     0.023 C 
HETATM   10  C8  UNL     1      -4.186   6.681 -16.629  1.00  0.00    -0.019 C 
HETATM   11  C9  UNL     1      -3.974   7.104 -17.850  1.00  0.00    -0.014 C 
HETATM   12  C10 UNL     1      -4.767   8.130 -18.564  1.00  0.00     0.060 C 
HETATM   13  C11 UNL     1      -6.127   8.342 -17.974  1.00  0.00     0.134 C 
HETATM   14  O2  UNL     1      -6.345   9.644 -17.528  1.00  0.00    -0.350 OA
HETATM   15  C12 UNL     1      -7.717   9.874 -17.594  1.00  0.00     0.158 C 
HETATM   16  C13 UNL     1      -8.136  11.102 -16.823  1.00  0.00     0.078 C 
HETATM   17  C14 UNL     1      -8.508   8.665 -17.187  1.00  0.00     0.068 C 
HETATM   18  C15 UNL     1      -7.754   7.760 -16.226  1.00  0.00     0.013 C 
HETATM   19  C16 UNL     1      -6.446   7.411 -16.853  1.00  0.00     0.030 C 
HETATM   20  C17 UNL     1      -3.316   5.648 -16.023  1.00  0.00     0.095 C 
HETATM   21  N1  UNL     1      -2.098   5.523 -16.280  1.00  0.00    -0.266 N 
ATOM     22  H1  UNL     1      -1.632   4.767 -15.777  1.00  0.00     0.194 HD
ENDROOT
BRANCH  21  23
HETATM   23  O4  UNL     1      -1.304   6.217 -17.104  1.00  0.00    -0.289 OA
ATOM     24  H4  UNL     1      -0.383   6.441 -17.035  1.00  0.00     0.244 HD
ENDBRANCH  21  23
BRANCH  15  25
HETATM   25  O3  UNL     1      -7.998  10.101 -18.963  1.00  0.00    -0.366 OA
ATOM     26  H3  UNL     1      -8.928   9.936 -19.063  1.00  0.00     0.213 HD
ENDBRANCH  15  25
TORSDOF 2
ENDMDL
MODEL 3
REMARK VINA RESULT: -8.391838786      3.165      5.420
REMARK  2 active torsions:
REMARK  status: ('A' for Active; 'I' for Inactive)
REMARK    1  A    between atoms: C12_15  and  O3_17 
REMARK    2  A    between atoms: N1_23  and  O4_25 
ROOT
HETATM    1  C1  UNL     1      -8.412   8.278 -15.739  1.00  0.00     0.065 C 
HETATM    2  C2  UNL     1      -6.987   8.186 -15.412  1.00  0.00     0.043 C 
HETATM    3 CL1  UNL     1      -6.567   7.585 -13.792  1.00  0.00    -0.086 Cl
HETATM    4  C3  UNL     1      -6.014   8.512 -16.200  1.00  0.00     0.115 C 
HETATM    5  O1  UNL     1      -4.648   8.399 -15.826  1.00  0.00    -0.341 OA
HETATM    6  C4  UNL     1      -3.673   7.909 -16.729  1.00  0.00     0.138 C 
HETATM    7  C5  UNL     1      -3.892   6.397 -16.835  1.00  0.00     0.041 C 
HETATM    8  C6  UNL     1      -3.680   8.575 -18.072  1.00  0.00     0.018 C 
HETATM    9  C7  UNL     1      -3.482   7.494 -19.105  1.00  0.00     0.023 C 
HETATM   10  C8  UNL     1      -4.914   9.361 -18.313  1.00  0.00    -0.019 C 
HETATM   11  C9  UNL     1      -4.883  10.337 -19.186  1.00  0.00    -0.014 C 
HETATM   12  C10 UNL     1      -3.707  10.750 -19.985  1.00  0.00     0.060 C 
HETATM   13  C11 UNL     1      -2.407  10.281 -19.409  1.00  0.00     0.134 C 
HETATM   14  O2  UNL     1      -1.685   9.451 -20.265  1.00  0.00    -0.350 OA
HETATM   15  C12 UNL     1      -0.340   9.591 -19.931  1.00  0.00     0.158 C 
HETATM   16  C13 UNL     1       0.521   8.505 -20.529  1.00  0.00     0.078 C 
HETATM   17  C14 UNL     1      -0.141   9.705 -18.447  1.00  0.00     0.068 C 
HETATM   18  C15 UNL     1      -1.240   9.025 -17.648  1.00  0.00     0.013 C 
HETATM   19  C16 UNL     1      -2.549   9.581 -18.100  1.00  0.00     0.030 C 
HETATM   20  C17 UNL     1      -6.158   9.043 -17.577  1.00  0.00     0.095 C 
HETATM   21  N1  UNL     1      -7.307   9.187 -18.052  1.00  0.00    -0.266 N 
ATOM     22  H1  UNL     1      -8.065   8.918 -17.424  1.00  0.00     0.194 HD
ENDROOT
BRANCH  21  23
HETATM   23  O4  UNL     1      -7.707   9.636 -19.248  1.00  0.00    -0.289 OA
ATOM     24  H4  UNL     1      -7.575  10.477 -19.670  1.00  0.00     0.244 HD
ENDBRANCH  21  23
BRANCH  15  25
HETATM   25  O3  UNL     1       0.064  10.827 -20.491  1.00  0.00    -0.366 OA
ATOM     26  H3  UNL     1       1.013  10.798 -20.514  1.00  0.00     0.213 HD
ENDBRANCH  15  25
TORSDOF 2
ENDMDL
MODEL 4
REMARK VINA RESULT: -8.291179596      4.255      5.973
REMARK  2 active torsions:
REMARK  status: ('A' for Active; 'I' for Inactive)
REMARK    1  A    between atoms: C12_15  and  O3_17 
REMARK    2  A    between atoms: N1_23  and  O4_25 
ROOT
HETATM    1  C1  UNL     1       0.385  10.877 -21.590  1.00  0.00     0.065 C 
HETATM    2  C2  UNL     1       0.410   9.606 -20.863  1.00  0.00     0.043 C 
HETATM    3 CL1  UNL     1       1.857   8.592 -21.061  1.00  0.00    -0.086 Cl
HETATM    4  C3  UNL     1      -0.534   9.161 -20.099  1.00  0.00     0.115 C 
HETATM    5  O1  UNL     1      -0.451   7.917 -19.416  1.00  0.00    -0.341 OA
HETATM    6  C4  UNL     1      -0.890   7.779 -18.076  1.00  0.00     0.138 C 
HETATM    7  C5  UNL     1       0.159   8.466 -17.197  1.00  0.00     0.041 C 
HETATM    8  C6  UNL     1      -2.272   8.301 -17.819  1.00  0.00     0.018 C 
HETATM    9  C7  UNL     1      -2.233   9.024 -16.495  1.00  0.00     0.023 C 
HETATM   10  C8  UNL     1      -2.769   9.165 -18.916  1.00  0.00    -0.019 C 
HETATM   11  C9  UNL     1      -4.062   9.311 -19.070  1.00  0.00    -0.014 C 
HETATM   12  C10 UNL     1      -5.112   8.686 -18.235  1.00  0.00     0.060 C 
HETATM   13  C11 UNL     1      -4.626   7.494 -17.470  1.00  0.00     0.134 C 
HETATM   14  O2  UNL     1      -4.744   7.633 -16.088  1.00  0.00    -0.350 OA
HETATM   15  C12 UNL     1      -4.865   6.351 -15.558  1.00  0.00     0.158 C 
HETATM   16  C13 UNL     1      -4.651   6.320 -14.063  1.00  0.00     0.078 C 
HETATM   17  C14 UNL     1      -3.981   5.366 -16.266  1.00  0.00     0.068 C 
HETATM   18  C15 UNL     1      -2.754   6.013 -16.888  1.00  0.00     0.013 C 
HETATM   19  C16 UNL     1      -3.216   7.118 -17.776  1.00  0.00     0.030 C 
HETATM   20  C17 UNL     1      -1.816   9.850 -19.818  1.00  0.00     0.095 C 
HETATM   21  N1  UNL     1      -2.029  10.967 -20.342  1.00  0.00    -0.266 N 
ATOM     22  H1  UNL     1      -1.274  11.310 -20.935  1.00  0.00     0.194 HD
ENDROOT
BRANCH  21  23
HETATM   23  O4  UNL     1      -3.085  11.785 -20.252  1.00  0.00    -0.289 OA
ATOM     24  H4  UNL     1      -3.898  11.696 -19.769  1.00  0.00     0.244 HD
ENDBRANCH  21  23
BRANCH  15  25
HETATM   25  O3  UNL     1      -6.200   5.957 -15.816  1.00  0.00    -0.366 OA
ATOM     26  H3  UNL     1      -6.600   5.838 -14.963  1.00  0.00     0.213 HD
ENDBRANCH  15  25
TORSDOF 2
ENDMDL
MODEL 5
REMARK VINA RESULT: -7.656672933      2.059      3.411
REMARK  2 active torsions:
REMARK  status: ('A' for Active; 'I' for Inactive)
REMARK    1  A    between atoms: C12_15  and  O3_17 
REMARK    2  A    between atoms: N1_23  and  O4_25 
ROOT
HETATM    1  C1  UNL     1      -6.815  10.490 -18.500  1.00  0.00     0.065 C 
HETATM    2  C2  UNL     1      -5.734   9.506 -18.597  1.00  0.00     0.043 C 
HETATM    3 CL1  UNL     1      -4.692   9.591 -20.036  1.00  0.00    -0.086 Cl
HETATM    4  C3  UNL     1      -5.482   8.581 -17.730  1.00  0.00     0.115 C 
HETATM    5  O1  UNL     1      -4.415   7.654 -17.879  1.00  0.00    -0.341 OA
HETATM    6  C4  UNL     1      -3.599   7.284 -16.781  1.00  0.00     0.138 C 
HETATM    7  C5  UNL     1      -2.680   8.476 -16.495  1.00  0.00     0.041 C 
HETATM    8  C6  UNL     1      -4.356   6.850 -15.563  1.00  0.00     0.018 C 
HETATM    9  C7  UNL     1      -3.658   7.453 -14.368  1.00  0.00     0.023 C 
HETATM   10  C8  UNL     1      -5.791   7.220 -15.620  1.00  0.00    -0.019 C 
HETATM   11  C9  UNL     1      -6.649   6.541 -14.900  1.00  0.00    -0.014 C 
HETATM   12  C10 UNL     1      -6.326   5.408 -14.004  1.00  0.00     0.060 C 
HETATM   13  C11 UNL     1      -5.006   4.770 -14.310  1.00  0.00     0.134 C 
HETATM   14  O2  UNL     1      -4.105   4.817 -13.247  1.00  0.00    -0.350 OA
HETATM   15  C12 UNL     1      -3.242   3.733 -13.397  1.00  0.00     0.158 C 
HETATM   16  C13 UNL     1      -2.011   3.850 -12.531  1.00  0.00     0.078 C 
HETATM   17  C14 UNL     1      -2.888   3.494 -14.836  1.00  0.00     0.068 C 
HETATM   18  C15 UNL     1      -2.969   4.753 -15.683  1.00  0.00     0.013 C 
HETATM   19  C16 UNL     1      -4.331   5.337 -15.513  1.00  0.00     0.030 C 
HETATM   20  C17 UNL     1      -6.240   8.339 -16.478  1.00  0.00     0.095 C 
HETATM   21  N1  UNL     1      -7.205   9.087 -16.203  1.00  0.00    -0.266 N 
ATOM     22  H1  UNL     1      -7.388   9.818 -16.891  1.00  0.00     0.194 HD
ENDROOT
BRANCH  21  23
HETATM   23  O4  UNL     1      -8.037   9.086 -15.154  1.00  0.00    -0.289 OA
ATOM     24  H4  UNL     1      -8.778   9.646 -14.951  1.00  0.00     0.244 HD
ENDBRANCH  21  23
BRANCH  15  25
HETATM   25  O3  UNL     1      -3.975   2.601 -12.965  1.00  0.00    -0.366 OA
ATOM     26  H3  UNL     1      -3.546   1.853 -13.363  1.00  0.00     0.213 HD
ENDBRANCH  15  25
TORSDOF 2
ENDMDL
