MODEL 1
REMARK VINA RESULT: -6.892014124      0.000      0.000
REMARK  1 active torsions:
REMARK  status: ('A' for Active; 'I' for Inactive)
REMARK    1  A    between atoms: C13_15  and  N2_16 
ROOT
HETATM    1  C1  UNL     1      -4.956   8.976 -14.960  1.00  0.00     0.011 C 
HETATM    2  C2  UNL     1      -5.624   7.697 -15.415  1.00  0.00    -0.007 C 
HETATM    3  C3  UNL     1      -7.064   7.715 -15.007  1.00  0.00     0.016 C 
HETATM    4  C4  UNL     1      -7.999   8.084 -16.111  1.00  0.00    -0.016 C 
HETATM    5  C5  UNL     1      -8.583   6.828 -16.713  1.00  0.00     0.018 C 
HETATM    6  C6  UNL     1      -9.196   8.866 -15.548  1.00  0.00     0.018 C 
HETATM    7  C7  UNL     1      -7.412   8.934 -17.183  1.00  0.00     0.185 C 
HETATM    8  F1  UNL     1      -8.428   9.013 -18.152  1.00  0.00    -0.248 F 
HETATM    9  C8  UNL     1      -6.178   8.288 -17.799  1.00  0.00     0.067 C 
HETATM   10  C9  UNL     1      -5.404   7.438 -16.873  1.00  0.00     0.053 C 
HETATM   11  C10 UNL     1      -3.926   7.447 -17.069  1.00  0.00     0.073 A 
HETATM   12  C11 UNL     1      -3.172   6.347 -16.730  1.00  0.00     0.113 A 
HETATM   13  C12 UNL     1      -3.755   5.133 -16.207  1.00  0.00     0.105 C 
HETATM   14  N1  UNL     1      -4.232   4.161 -15.806  1.00  0.00    -0.191 NA
HETATM   15  C13 UNL     1      -1.802   6.403 -16.912  1.00  0.00     0.124 A 
HETATM   16  N3  UNL     1      -1.202   7.490 -17.403  1.00  0.00    -0.317 N 
ATOM     17  H3  UNL     1      -0.190   7.512 -17.529  1.00  0.00     0.170 HD
HETATM   18  C14 UNL     1      -1.956   8.562 -17.731  1.00  0.00     0.204 A 
HETATM   19  S1  UNL     1      -1.244   9.918 -18.336  1.00  0.00    -0.038 SA
HETATM   20  N4  UNL     1      -3.288   8.523 -17.561  1.00  0.00    -0.196 N 
HETATM   21  O1  UNL     1      -4.124   9.576 -17.887  1.00  0.00    -0.260 OA
HETATM   22  C15 UNL     1      -5.337   9.259 -18.541  1.00  0.00     0.089 C 
HETATM   23  C16 UNL     1      -6.012  10.624 -18.765  1.00  0.00     0.049 C 
HETATM   24  C17 UNL     1      -5.071   8.786 -19.973  1.00  0.00     0.049 C 
ENDROOT
BRANCH  15  25
HETATM   25  N2  UNL     1      -1.077   5.386 -16.602  1.00  0.00    -0.384 N 
ATOM     26  H22 UNL     1      -1.466   4.451 -16.730  1.00  0.00     0.157 HD
ATOM     27  H21 UNL     1      -0.135   5.531 -16.237  1.00  0.00     0.157 HD
ENDBRANCH  15  25
TORSDOF 1
ENDMDL
MODEL 2
REMARK VINA RESULT: -6.748752290      2.699      4.422
REMARK  1 active torsions:
REMARK  status: ('A' for Active; 'I' for Inactive)
REMARK    1  A    between atoms: C13_15  and  N2_16 
ROOT
HETATM    1  C1  UNL     1      -5.099   9.148 -14.731  1.00  0.00     0.011 C 
HETATM    2  C2  UNL     1      -4.556   7.939 -15.461  1.00  0.00    -0.007 C 
HETATM    3  C3  UNL     1      -4.244   6.859 -14.473  1.00  0.00     0.016 C 
HETATM    4  C4  UNL     1      -5.290   5.797 -14.389  1.00  0.00    -0.016 C 
HETATM    5  C5  UNL     1      -4.871   4.616 -15.232  1.00  0.00     0.018 C 
HETATM    6  C6  UNL     1      -5.386   5.264 -12.951  1.00  0.00     0.018 C 
HETATM    7  C7  UNL     1      -6.664   6.227 -14.768  1.00  0.00     0.185 C 
HETATM    8  F1  UNL     1      -7.413   5.038 -14.749  1.00  0.00    -0.248 F 
HETATM    9  C8  UNL     1      -6.700   6.824 -16.168  1.00  0.00     0.067 C 
HETATM   10  C9  UNL     1      -5.456   7.506 -16.577  1.00  0.00     0.053 C 
HETATM   11  C10 UNL     1      -5.631   8.705 -17.446  1.00  0.00     0.073 A 
HETATM   12  C11 UNL     1      -4.649   9.067 -18.340  1.00  0.00     0.113 A 
HETATM   13  C12 UNL     1      -3.433   8.307 -18.510  1.00  0.00     0.105 C 
HETATM   14  N1  UNL     1      -2.470   7.683 -18.652  1.00  0.00    -0.191 NA
HETATM   15  C13 UNL     1      -4.844  10.195 -19.115  1.00  0.00     0.124 A 
HETATM   16  N3  UNL     1      -5.952  10.934 -19.016  1.00  0.00    -0.317 N 
ATOM     17  H3  UNL     1      -6.076  11.764 -19.596  1.00  0.00     0.170 HD
HETATM   18  C14 UNL     1      -6.907  10.566 -18.133  1.00  0.00     0.204 A 
HETATM   19  S1  UNL     1      -8.282  11.459 -17.986  1.00  0.00    -0.038 SA
HETATM   20  N4  UNL     1      -6.733   9.472 -17.374  1.00  0.00    -0.196 N 
HETATM   21  O1  UNL     1      -7.672   9.027 -16.460  1.00  0.00    -0.260 OA
HETATM   22  C15 UNL     1      -7.917   7.636 -16.411  1.00  0.00     0.089 C 
HETATM   23  C16 UNL     1      -8.996   7.481 -15.324  1.00  0.00     0.049 C 
HETATM   24  C17 UNL     1      -8.655   7.173 -17.672  1.00  0.00     0.049 C 
ENDROOT
BRANCH  15  25
HETATM   25  N2  UNL     1      -3.939  10.552 -19.958  1.00  0.00    -0.384 N 
ATOM     26  H22 UNL     1      -3.053  10.046 -19.966  1.00  0.00     0.157 HD
ATOM     27  H21 UNL     1      -4.121  11.326 -20.596  1.00  0.00     0.157 HD
ENDBRANCH  15  25
TORSDOF 1
ENDMDL
MODEL 3
REMARK VINA RESULT: -6.409619950      3.072      5.399
REMARK  1 active torsions:
REMARK  status: ('A' for Active; 'I' for Inactive)
REMARK    1  A    between atoms: C13_15  and  N2_16 
ROOT
HETATM    1  C1  UNL     1      -3.994   6.816 -18.761  1.00  0.00     0.011 C 
HETATM    2  C2  UNL     1      -3.212   7.504 -17.664  1.00  0.00    -0.007 C 
HETATM    3  C3  UNL     1      -1.747   7.307 -17.898  1.00  0.00     0.016 C 
HETATM    4  C4  UNL     1      -1.072   8.485 -18.521  1.00  0.00    -0.016 C 
HETATM    5  C5  UNL     1      -0.400   9.303 -17.444  1.00  0.00     0.018 C 
HETATM    6  C6  UNL     1       0.060   8.014 -19.449  1.00  0.00     0.018 C 
HETATM    7  C7  UNL     1      -1.952   9.359 -19.346  1.00  0.00     0.185 C 
HETATM    8  F1  UNL     1      -1.131  10.448 -19.687  1.00  0.00    -0.248 F 
HETATM    9  C8  UNL     1      -3.150   9.860 -18.550  1.00  0.00     0.067 C 
HETATM   10  C9  UNL     1      -3.619   8.936 -17.500  1.00  0.00     0.053 C 
HETATM   11  C10 UNL     1      -5.091   8.915 -17.266  1.00  0.00     0.073 A 
HETATM   12  C11 UNL     1      -5.596   8.599 -16.026  1.00  0.00     0.113 A 
HETATM   13  C12 UNL     1      -4.750   8.306 -14.892  1.00  0.00     0.105 C 
HETATM   14  N1  UNL     1      -4.065   8.091 -13.987  1.00  0.00    -0.191 NA
HETATM   15  C13 UNL     1      -6.969   8.575 -15.857  1.00  0.00     0.124 A 
HETATM   16  N3  UNL     1      -7.806   8.848 -16.861  1.00  0.00    -0.317 N 
ATOM     17  H3  UNL     1      -8.815   8.824 -16.716  1.00  0.00     0.170 HD
HETATM   18  C14 UNL     1      -7.294   9.157 -18.073  1.00  0.00     0.204 A 
HETATM   19  S1  UNL     1      -8.302   9.495 -19.331  1.00  0.00    -0.038 SA
HETATM   20  N4  UNL     1      -5.964   9.185 -18.253  1.00  0.00    -0.196 N 
HETATM   21  O1  UNL     1      -5.370   9.506 -19.461  1.00  0.00    -0.260 OA
HETATM   22  C15 UNL     1      -4.243  10.358 -19.420  1.00  0.00     0.089 C 
HETATM   23  C16 UNL     1      -3.839  10.521 -20.896  1.00  0.00     0.049 C 
HETATM   24  C17 UNL     1      -4.657  11.783 -19.035  1.00  0.00     0.049 C 
ENDROOT
BRANCH  15  25
HETATM   25  N2  UNL     1      -7.462   8.281 -14.705  1.00  0.00    -0.384 N 
ATOM     26  H22 UNL     1      -8.342   8.716 -14.425  1.00  0.00     0.157 HD
ATOM     27  H21 UNL     1      -6.970   7.626 -14.098  1.00  0.00     0.157 HD
ENDBRANCH  15  25
TORSDOF 1
ENDMDL
MODEL 4
REMARK VINA RESULT: -5.825895013      2.218      3.974
REMARK  1 active torsions:
REMARK  status: ('A' for Active; 'I' for Inactive)
REMARK    1  A    between atoms: C13_15  and  N2_16 
ROOT
HETATM    1  C1  UNL     1      -4.358   7.292 -19.429  1.00  0.00     0.011 C 
HETATM    2  C2  UNL     1      -4.353   8.695 -18.861  1.00  0.00    -0.007 C 
HETATM    3  C3  UNL     1      -5.667   9.352 -19.145  1.00  0.00     0.016 C 
HETATM    4  C4  UNL     1      -6.605   9.351 -17.984  1.00  0.00    -0.016 C 
HETATM    5  C5  UNL     1      -6.527  10.684 -17.278  1.00  0.00     0.018 C 
HETATM    6  C6  UNL     1      -8.056   9.231 -18.478  1.00  0.00     0.018 C 
HETATM    7  C7  UNL     1      -6.405   8.247 -17.005  1.00  0.00     0.185 C 
HETATM    8  F1  UNL     1      -7.292   8.552 -15.958  1.00  0.00    -0.248 F 
HETATM    9  C8  UNL     1      -4.980   8.225 -16.468  1.00  0.00     0.067 C 
HETATM   10  C9  UNL     1      -3.959   8.712 -17.416  1.00  0.00     0.053 C 
HETATM   11  C10 UNL     1      -2.634   8.031 -17.348  1.00  0.00     0.073 A 
HETATM   12  C11 UNL     1      -1.486   8.703 -17.699  1.00  0.00     0.113 A 
HETATM   13  C12 UNL     1      -1.489  10.086 -18.114  1.00  0.00     0.105 C 
HETATM   14  N1  UNL     1      -1.500  11.198 -18.428  1.00  0.00    -0.191 NA
HETATM   15  C13 UNL     1      -0.280   8.029 -17.637  1.00  0.00     0.124 A 
HETATM   16  N3  UNL     1      -0.207   6.753 -17.249  1.00  0.00    -0.317 N 
ATOM     17  H3  UNL     1       0.692   6.273 -17.211  1.00  0.00     0.170 HD
HETATM   18  C14 UNL     1      -1.343   6.107 -16.907  1.00  0.00     0.204 A 
HETATM   19  S1  UNL     1      -1.285   4.533 -16.427  1.00  0.00    -0.038 SA
HETATM   20  N4  UNL     1      -2.522   6.748 -16.961  1.00  0.00    -0.196 N 
HETATM   21  O1  UNL     1      -3.724   6.156 -16.614  1.00  0.00    -0.260 OA
HETATM   22  C15 UNL     1      -4.626   6.926 -15.845  1.00  0.00     0.089 C 
HETATM   23  C16 UNL     1      -5.829   5.992 -15.626  1.00  0.00     0.049 C 
HETATM   24  C17 UNL     1      -4.096   7.117 -14.420  1.00  0.00     0.049 C 
ENDROOT
BRANCH  15  25
HETATM   25  N2  UNL     1       0.806   8.638 -17.961  1.00  0.00    -0.384 N 
ATOM     26  H22 UNL     1       1.230   8.433 -18.866  1.00  0.00     0.157 HD
ATOM     27  H21 UNL     1       1.220   9.308 -17.313  1.00  0.00     0.157 HD
ENDBRANCH  15  25
TORSDOF 1
ENDMDL
MODEL 5
REMARK VINA RESULT: -5.744237064      6.278      9.370
REMARK  1 active torsions:
REMARK  status: ('A' for Active; 'I' for Inactive)
REMARK    1  A    between atoms: C13_15  and  N2_16 
ROOT
HETATM    1  C1  UNL     1       3.560   9.483 -19.724  1.00  0.00     0.011 C 
HETATM    2  C2  UNL     1       2.464   9.665 -20.750  1.00  0.00    -0.007 C 
HETATM    3  C3  UNL     1       3.004  10.415 -21.928  1.00  0.00     0.016 C 
HETATM    4  C4  UNL     1       3.351   9.543 -23.090  1.00  0.00    -0.016 C 
HETATM    5  C5  UNL     1       2.215   9.562 -24.085  1.00  0.00     0.018 C 
HETATM    6  C6  UNL     1       4.564  10.120 -23.838  1.00  0.00     0.018 C 
HETATM    7  C7  UNL     1       3.701   8.137 -22.748  1.00  0.00     0.185 C 
HETATM    8  F1  UNL     1       3.836   7.504 -23.996  1.00  0.00    -0.248 F 
HETATM    9  C8  UNL     1       2.590   7.459 -21.957  1.00  0.00     0.067 C 
HETATM   10  C9  UNL     1       1.803   8.368 -21.101  1.00  0.00     0.053 C 
HETATM   11  C10 UNL     1       1.328   7.792 -19.810  1.00  0.00     0.073 A 
HETATM   12  C11 UNL     1       0.173   8.255 -19.224  1.00  0.00     0.113 A 
HETATM   13  C12 UNL     1      -0.649   9.280 -19.824  1.00  0.00     0.105 C 
HETATM   14  N1  UNL     1      -1.309  10.088 -20.321  1.00  0.00    -0.191 NA
HETATM   15  C13 UNL     1      -0.223   7.706 -18.018  1.00  0.00     0.124 A 
HETATM   16  N3  UNL     1       0.484   6.746 -17.417  1.00  0.00    -0.317 N 
ATOM     17  H3  UNL     1       0.176   6.354 -16.527  1.00  0.00     0.170 HD
HETATM   18  C14 UNL     1       1.616   6.302 -18.005  1.00  0.00     0.204 A 
HETATM   19  S1  UNL     1       2.512   5.121 -17.286  1.00  0.00    -0.038 SA
HETATM   20  N4  UNL     1       2.014   6.825 -19.177  1.00  0.00    -0.196 N 
HETATM   21  O1  UNL     1       3.154   6.411 -19.843  1.00  0.00    -0.260 OA
HETATM   22  C15 UNL     1       3.058   6.245 -21.244  1.00  0.00     0.089 C 
HETATM   23  C16 UNL     1       4.463   5.778 -21.665  1.00  0.00     0.049 C 
HETATM   24  C17 UNL     1       2.192   5.028 -21.587  1.00  0.00     0.049 C 
ENDROOT
BRANCH  15  25
HETATM   25  N2  UNL     1      -1.301   8.124 -17.452  1.00  0.00    -0.384 N 
ATOM     26  H22 UNL     1      -1.456   7.896 -16.469  1.00  0.00     0.157 HD
ATOM     27  H21 UNL     1      -1.973   8.671 -17.990  1.00  0.00     0.157 HD
ENDBRANCH  15  25
TORSDOF 1
ENDMDL
