MODEL 1
REMARK VINA RESULT: -4.962680316      0.000      0.000
REMARK  4 active torsions:
REMARK  status: ('A' for Active; 'I' for Inactive)
REMARK    1  A    between atoms: N1_1  and  N2_4 
REMARK    2  A    between atoms: C1_6  and  N3_7 
REMARK    3  A    between atoms: C4_10  and  N4_11 
REMARK    4  A    between atoms: N4_11  and  C5_13 
ROOT
HETATM    1  N3  UNL     1      26.019  39.377  72.996  1.00  0.00    -0.374 N 
HETATM    2  C2  UNL     1      27.449  39.408  72.845  1.00  0.00     0.125 C 
HETATM    3  C3  UNL     1      27.681  40.764  72.208  1.00  0.00     0.046 C 
HETATM    4  C4  UNL     1      26.506  40.809  71.219  1.00  0.00     0.103 C 
HETATM    5  C6  UNL     1      25.379  40.360  72.129  1.00  0.00     0.148 C 
ENDROOT
BRANCH   1   6
HETATM    6  C1  UNL     1      25.242  38.531  73.856  1.00  0.00     0.194 C 
HETATM    7  N2  UNL     1      25.203  38.879  75.100  1.00  0.00    -0.303 N 
ATOM      8  H2  UNL     1      25.708  39.712  75.405  1.00  0.00     0.187 HD
BRANCH   7   9
HETATM    9  N1  UNL     1      24.470  38.124  76.042  1.00  0.00    -0.344 N 
ATOM     10  H12 UNL     1      24.829  37.211  76.320  1.00  0.00     0.176 HD
ATOM     11  H11 UNL     1      23.600  38.481  76.437  1.00  0.00     0.176 HD
ENDBRANCH   7   9
ENDBRANCH   1   6
BRANCH   4  12
HETATM   12  N4  UNL     1      26.318  42.131  70.699  1.00  0.00    -0.363 N 
ATOM     13  H4  UNL     1      27.103  42.781  70.664  1.00  0.00     0.162 HD
BRANCH  12  14
HETATM   14  C5  UNL     1      25.040  42.536  70.232  1.00  0.00     0.181 C 
HETATM   15  N5  UNL     1      24.243  43.490  70.959  1.00  0.00    -0.070 NA
HETATM   16  S1  UNL     1      24.384  41.962  68.853  1.00  0.00    -0.044 SA
ENDBRANCH  12  14
ENDBRANCH   4  12
TORSDOF 4
ENDMDL
MODEL 2
REMARK VINA RESULT: -4.943302570      2.150      2.797
REMARK  4 active torsions:
REMARK  status: ('A' for Active; 'I' for Inactive)
REMARK    1  A    between atoms: N1_1  and  N2_4 
REMARK    2  A    between atoms: C1_6  and  N3_7 
REMARK    3  A    between atoms: C4_10  and  N4_11 
REMARK    4  A    between atoms: N4_11  and  C5_13 
ROOT
HETATM    1  N3  UNL     1      25.672  39.203  73.210  1.00  0.00    -0.374 N 
HETATM    2  C2  UNL     1      25.393  39.141  71.800  1.00  0.00     0.125 C 
HETATM    3  C3  UNL     1      26.462  40.044  71.215  1.00  0.00     0.046 C 
HETATM    4  C4  UNL     1      26.461  41.179  72.250  1.00  0.00     0.103 C 
HETATM    5  C6  UNL     1      26.490  40.368  73.531  1.00  0.00     0.148 C 
ENDROOT
BRANCH   1   6
HETATM    6  C1  UNL     1      25.248  38.292  74.233  1.00  0.00     0.194 C 
HETATM    7  N2  UNL     1      24.893  38.832  75.353  1.00  0.00    -0.303 N 
ATOM      8  H2  UNL     1      24.929  39.846  75.456  1.00  0.00     0.187 HD
BRANCH   7   9
HETATM    9  N1  UNL     1      24.457  38.036  76.435  1.00  0.00    -0.344 N 
ATOM     10  H12 UNL     1      25.157  37.539  76.988  1.00  0.00     0.176 HD
ATOM     11  H11 UNL     1      23.466  37.957  76.661  1.00  0.00     0.176 HD
ENDBRANCH   7   9
ENDBRANCH   1   6
BRANCH   4  12
HETATM   12  N4  UNL     1      27.606  42.025  72.092  1.00  0.00    -0.363 N 
ATOM     13  H4  UNL     1      27.614  42.956  72.509  1.00  0.00     0.162 HD
BRANCH  12  14
HETATM   14  C5  UNL     1      28.730  41.569  71.354  1.00  0.00     0.181 C 
HETATM   15  N5  UNL     1      29.699  40.676  71.937  1.00  0.00    -0.070 NA
HETATM   16  S1  UNL     1      29.010  42.014  69.810  1.00  0.00    -0.044 SA
ENDBRANCH  12  14
ENDBRANCH   4  12
TORSDOF 4
ENDMDL
MODEL 3
REMARK VINA RESULT: -4.900900349      2.845      3.523
REMARK  4 active torsions:
REMARK  status: ('A' for Active; 'I' for Inactive)
REMARK    1  A    between atoms: N1_1  and  N2_4 
REMARK    2  A    between atoms: C1_6  and  N3_7 
REMARK    3  A    between atoms: C4_10  and  N4_11 
REMARK    4  A    between atoms: N4_11  and  C5_13 
ROOT
HETATM    1  N3  UNL     1      26.189  39.581  71.798  1.00  0.00    -0.374 N 
HETATM    2  C2  UNL     1      25.823  39.996  70.471  1.00  0.00     0.125 C 
HETATM    3  C3  UNL     1      27.165  40.070  69.769  1.00  0.00     0.046 C 
HETATM    4  C4  UNL     1      28.023  40.695  70.880  1.00  0.00     0.103 C 
HETATM    5  C6  UNL     1      27.604  39.832  72.054  1.00  0.00     0.148 C 
ENDROOT
BRANCH   1   6
HETATM    6  C1  UNL     1      25.349  38.992  72.801  1.00  0.00     0.194 C 
HETATM    7  N2  UNL     1      25.934  38.680  73.911  1.00  0.00    -0.303 N 
ATOM      8  H2  UNL     1      26.932  38.861  74.021  1.00  0.00     0.187 HD
BRANCH   7   9
HETATM    9  N1  UNL     1      25.209  38.094  74.972  1.00  0.00    -0.344 N 
ATOM     10  H12 UNL     1      25.107  38.619  75.841  1.00  0.00     0.176 HD
ATOM     11  H11 UNL     1      24.797  37.166  74.875  1.00  0.00     0.176 HD
ENDBRANCH   7   9
ENDBRANCH   1   6
BRANCH   4  12
HETATM   12  N4  UNL     1      29.419  40.592  70.575  1.00  0.00    -0.363 N 
ATOM     13  H4  UNL     1      30.074  40.274  71.289  1.00  0.00     0.162 HD
BRANCH  12  14
HETATM   14  C5  UNL     1      29.891  40.934  69.281  1.00  0.00     0.181 C 
HETATM   15  N5  UNL     1      29.730  42.262  68.748  1.00  0.00    -0.070 NA
HETATM   16  S1  UNL     1      30.644  39.863  68.308  1.00  0.00    -0.044 SA
ENDBRANCH  12  14
ENDBRANCH   4  12
TORSDOF 4
ENDMDL
MODEL 4
REMARK VINA RESULT: -4.849645616      2.591      3.407
REMARK  4 active torsions:
REMARK  status: ('A' for Active; 'I' for Inactive)
REMARK    1  A    between atoms: N1_1  and  N2_4 
REMARK    2  A    between atoms: C1_6  and  N3_7 
REMARK    3  A    between atoms: C4_10  and  N4_11 
REMARK    4  A    between atoms: N4_11  and  C5_13 
ROOT
HETATM    1  N3  UNL     1      26.008  39.441  72.232  1.00  0.00    -0.374 N 
HETATM    2  C2  UNL     1      25.721  39.615  70.834  1.00  0.00     0.125 C 
HETATM    3  C3  UNL     1      27.106  39.721  70.227  1.00  0.00     0.046 C 
HETATM    4  C4  UNL     1      27.805  40.589  71.285  1.00  0.00     0.103 C 
HETATM    5  C6  UNL     1      27.366  39.872  72.546  1.00  0.00     0.148 C 
ENDROOT
BRANCH   1   6
HETATM    6  C1  UNL     1      25.141  38.925  73.252  1.00  0.00     0.194 C 
HETATM    7  N2  UNL     1      25.694  38.705  74.400  1.00  0.00    -0.303 N 
ATOM      8  H2  UNL     1      26.687  38.902  74.526  1.00  0.00     0.187 HD
BRANCH   7   9
HETATM    9  N1  UNL     1      24.941  38.196  75.482  1.00  0.00    -0.344 N 
ATOM     10  H12 UNL     1      24.503  38.857  76.124  1.00  0.00     0.176 HD
ATOM     11  H11 UNL     1      24.837  37.191  75.620  1.00  0.00     0.176 HD
ENDBRANCH   7   9
ENDBRANCH   1   6
BRANCH   4  12
HETATM   12  N4  UNL     1      29.226  40.587  71.100  1.00  0.00    -0.363 N 
ATOM     13  H4  UNL     1      29.840  40.348  71.878  1.00  0.00     0.162 HD
BRANCH  12  14
HETATM   14  C5  UNL     1      29.779  40.918  69.835  1.00  0.00     0.181 C 
HETATM   15  N5  UNL     1      30.743  40.064  69.191  1.00  0.00    -0.070 NA
HETATM   16  S1  UNL     1      29.371  42.272  69.022  1.00  0.00    -0.044 SA
ENDBRANCH  12  14
ENDBRANCH   4  12
TORSDOF 4
ENDMDL
MODEL 5
REMARK VINA RESULT: -4.836503096      1.830      1.830
REMARK  4 active torsions:
REMARK  status: ('A' for Active; 'I' for Inactive)
REMARK    1  A    between atoms: N1_1  and  N2_4 
REMARK    2  A    between atoms: C1_6  and  N3_7 
REMARK    3  A    between atoms: C4_10  and  N4_11 
REMARK    4  A    between atoms: N4_11  and  C5_13 
ROOT
HETATM    1  N3  UNL     1      25.873  39.650  73.166  1.00  0.00    -0.374 N 
HETATM    2  C2  UNL     1      26.776  40.672  73.624  1.00  0.00     0.125 C 
HETATM    3  C3  UNL     1      26.765  41.658  72.472  1.00  0.00     0.046 C 
HETATM    4  C4  UNL     1      26.771  40.689  71.279  1.00  0.00     0.103 C 
HETATM    5  C6  UNL     1      25.690  39.721  71.720  1.00  0.00     0.148 C 
ENDROOT
BRANCH   1   6
HETATM    6  C1  UNL     1      25.198  38.656  73.949  1.00  0.00     0.194 C 
HETATM    7  N2  UNL     1      25.142  38.884  75.220  1.00  0.00    -0.303 N 
ATOM      8  H2  UNL     1      25.565  39.733  75.597  1.00  0.00     0.187 HD
BRANCH   7   9
HETATM    9  N1  UNL     1      24.503  37.976  76.092  1.00  0.00    -0.344 N 
ATOM     10  H12 UNL     1      24.376  38.245  77.068  1.00  0.00     0.176 HD
ATOM     11  H11 UNL     1      24.175  37.070  75.757  1.00  0.00     0.176 HD
ENDBRANCH   7   9
ENDBRANCH   1   6
BRANCH   4  12
HETATM   12  N4  UNL     1      26.455  41.370  70.059  1.00  0.00    -0.363 N 
ATOM     13  H4  UNL     1      25.661  41.065  69.496  1.00  0.00     0.162 HD
BRANCH  12  14
HETATM   14  C5  UNL     1      27.246  42.468  69.631  1.00  0.00     0.181 C 
HETATM   15  N5  UNL     1      26.671  43.772  69.423  1.00  0.00    -0.070 NA
HETATM   16  S1  UNL     1      28.847  42.342  69.346  1.00  0.00    -0.044 SA
ENDBRANCH  12  14
ENDBRANCH   4  12
TORSDOF 4
ENDMDL
