MODEL 1
REMARK VINA RESULT: -5.115943881      0.000      0.000
REMARK  3 active torsions:
REMARK  status: ('A' for Active; 'I' for Inactive)
REMARK       I    between atoms: N1_2  and  C2_4 
REMARK       I    between atoms: C2_4  and  N3_8 
REMARK    1  A    between atoms: N3_8  and  C4_10 
REMARK    2  A    between atoms: C6_12  and  N4_13 
REMARK    3  A    between atoms: C7_17  and  N5_18 
ROOT
HETATM    1  C4  UNL     1      26.463  40.817  71.313  1.00  0.00     0.105 C 
HETATM    2  C5  UNL     1      26.364  41.682  72.568  1.00  0.00     0.060 C 
HETATM    3  C6  UNL     1      26.746  40.632  73.620  1.00  0.00     0.215 C 
HETATM    4  C7  UNL     1      28.034  40.106  73.025  1.00  0.00     0.215 C 
HETATM    5  C8  UNL     1      27.647  39.954  71.562  1.00  0.00     0.060 C 
ENDROOT
BRANCH   1   6
HETATM    6  N3  UNL     1      26.509  41.609  70.126  1.00  0.00    -0.218 N 
HETATM    7  C2  UNL     1      25.306  41.914  69.461  1.00  0.00     0.669 C 
HETATM    8  N1  UNL     1      25.012  43.226  69.004  1.00  0.00    -0.231 N 
HETATM    9  N2  UNL     1      24.461  40.959  69.272  1.00  0.00    -0.235 N 
HETATM   10  C1  UNL     1      24.498  44.166  69.988  1.00  0.00     0.165 C 
ATOM     11  H1  UNL     1      25.155  43.496  68.031  1.00  0.00     0.177 HD
ATOM     12  H22 UNL     1      23.589  41.180  68.790  1.00  0.00     0.174 HD
ATOM     13  H21 UNL     1      24.672  40.017  69.600  1.00  0.00     0.174 HD
HETATM   14  C3  UNL     1      27.743  42.105  69.593  1.00  0.00     0.169 C 
ENDBRANCH   1   6
BRANCH   3  15
HETATM   15  N4  UNL     1      25.745  39.611  73.569  1.00  0.00    -0.073 N 
ATOM     16  H43 UNL     1      25.331  39.500  72.644  1.00  0.00     0.274 HD
ATOM     17  H42 UNL     1      26.128  38.670  73.653  1.00  0.00     0.274 HD
ATOM     18  H41 UNL     1      25.060  39.833  74.292  1.00  0.00     0.274 HD
ENDBRANCH   3  15
BRANCH   4  19
HETATM   19  N5  UNL     1      28.394  38.815  73.571  1.00  0.00    -0.073 N 
ATOM     20  H53 UNL     1      28.335  38.814  74.590  1.00  0.00     0.274 HD
ATOM     21  H52 UNL     1      27.682  38.114  73.369  1.00  0.00     0.274 HD
ATOM     22  H51 UNL     1      29.315  38.510  73.254  1.00  0.00     0.274 HD
ENDBRANCH   4  19
TORSDOF 3
ENDMDL
MODEL 2
REMARK VINA RESULT: -5.058478738      1.264      1.418
REMARK  3 active torsions:
REMARK  status: ('A' for Active; 'I' for Inactive)
REMARK       I    between atoms: N1_2  and  C2_4 
REMARK       I    between atoms: C2_4  and  N3_8 
REMARK    1  A    between atoms: N3_8  and  C4_10 
REMARK    2  A    between atoms: C6_12  and  N4_13 
REMARK    3  A    between atoms: C7_17  and  N5_18 
ROOT
HETATM    1  C4  UNL     1      26.275  40.690  71.453  1.00  0.00     0.105 C 
HETATM    2  C5  UNL     1      27.245  41.765  71.941  1.00  0.00     0.060 C 
HETATM    3  C6  UNL     1      27.866  41.015  73.127  1.00  0.00     0.215 C 
HETATM    4  C7  UNL     1      28.268  39.722  72.451  1.00  0.00     0.215 C 
HETATM    5  C8  UNL     1      27.030  39.420  71.621  1.00  0.00     0.060 C 
ENDROOT
BRANCH   1   6
HETATM    6  N3  UNL     1      25.803  40.962  70.134  1.00  0.00    -0.218 N 
HETATM    7  C2  UNL     1      25.121  42.169  69.889  1.00  0.00     0.669 C 
HETATM    8  N1  UNL     1      25.416  42.983  68.763  1.00  0.00    -0.231 N 
HETATM    9  N2  UNL     1      24.206  42.527  70.723  1.00  0.00    -0.235 N 
HETATM   10  C1  UNL     1      26.569  43.865  68.871  1.00  0.00     0.165 C 
ATOM     11  H1  UNL     1      24.846  42.952  67.918  1.00  0.00     0.177 HD
ATOM     12  H22 UNL     1      23.712  43.402  70.545  1.00  0.00     0.174 HD
ATOM     13  H21 UNL     1      23.994  41.943  71.531  1.00  0.00     0.174 HD
HETATM   14  C3  UNL     1      26.004  40.046  69.051  1.00  0.00     0.169 C 
ENDBRANCH   1   6
BRANCH   3  15
HETATM   15  N4  UNL     1      26.808  40.759  74.055  1.00  0.00    -0.073 N 
ATOM     16  H43 UNL     1      25.956  41.282  73.849  1.00  0.00     0.274 HD
ATOM     17  H42 UNL     1      26.410  39.824  73.962  1.00  0.00     0.274 HD
ATOM     18  H41 UNL     1      27.179  40.947  74.986  1.00  0.00     0.274 HD
ENDBRANCH   3  15
BRANCH   4  19
HETATM   19  N5  UNL     1      28.486  38.658  73.408  1.00  0.00    -0.073 N 
ATOM     20  H53 UNL     1      29.453  38.333  73.387  1.00  0.00     0.274 HD
ATOM     21  H52 UNL     1      28.455  39.007  74.365  1.00  0.00     0.274 HD
ATOM     22  H51 UNL     1      27.833  37.885  73.273  1.00  0.00     0.274 HD
ENDBRANCH   4  19
TORSDOF 3
ENDMDL
MODEL 3
REMARK VINA RESULT: -5.039922172      1.382      2.270
REMARK  3 active torsions:
REMARK  status: ('A' for Active; 'I' for Inactive)
REMARK       I    between atoms: N1_2  and  C2_4 
REMARK       I    between atoms: C2_4  and  N3_8 
REMARK    1  A    between atoms: N3_8  and  C4_10 
REMARK    2  A    between atoms: C6_12  and  N4_13 
REMARK    3  A    between atoms: C7_17  and  N5_18 
ROOT
HETATM    1  C4  UNL     1      26.277  40.883  71.519  1.00  0.00     0.105 C 
HETATM    2  C5  UNL     1      27.528  40.008  71.450  1.00  0.00     0.060 C 
HETATM    3  C6  UNL     1      27.470  39.385  72.851  1.00  0.00     0.215 C 
HETATM    4  C7  UNL     1      26.047  38.869  72.860  1.00  0.00     0.215 C 
HETATM    5  C8  UNL     1      25.296  40.050  72.264  1.00  0.00     0.060 C 
ENDROOT
BRANCH   1   6
HETATM    6  N3  UNL     1      25.865  41.320  70.224  1.00  0.00    -0.218 N 
HETATM    7  C2  UNL     1      25.848  42.699  69.943  1.00  0.00     0.669 C 
HETATM    8  N1  UNL     1      26.385  43.226  68.739  1.00  0.00    -0.231 N 
HETATM    9  N2  UNL     1      25.325  43.489  70.817  1.00  0.00    -0.235 N 
HETATM   10  C1  UNL     1      27.827  43.416  68.688  1.00  0.00     0.165 C 
ATOM     11  H1  UNL     1      25.788  43.462  67.946  1.00  0.00     0.177 HD
ATOM     12  H22 UNL     1      25.312  44.488  70.613  1.00  0.00     0.174 HD
ATOM     13  H21 UNL     1      24.939  43.110  71.681  1.00  0.00     0.174 HD
HETATM   14  C3  UNL     1      25.470  40.397  69.202  1.00  0.00     0.169 C 
ENDBRANCH   1   6
BRANCH   3  15
HETATM   15  N4  UNL     1      27.593  40.459  73.788  1.00  0.00    -0.073 N 
ATOM     16  H43 UNL     1      28.022  41.293  73.389  1.00  0.00     0.274 HD
ATOM     17  H42 UNL     1      26.698  40.880  74.036  1.00  0.00     0.274 HD
ATOM     18  H41 UNL     1      28.102  40.091  74.593  1.00  0.00     0.274 HD
ENDBRANCH   3  15
BRANCH   4  19
HETATM   19  N5  UNL     1      25.572  38.617  74.204  1.00  0.00    -0.073 N 
ATOM     20  H53 UNL     1      25.210  39.467  74.635  1.00  0.00     0.274 HD
ATOM     21  H52 UNL     1      24.715  38.064  74.196  1.00  0.00     0.274 HD
ATOM     22  H51 UNL     1      26.288  38.181  74.786  1.00  0.00     0.274 HD
ENDBRANCH   4  19
TORSDOF 3
ENDMDL
MODEL 4
REMARK VINA RESULT: -4.830739848      1.482      1.994
REMARK  3 active torsions:
REMARK  status: ('A' for Active; 'I' for Inactive)
REMARK       I    between atoms: N1_2  and  C2_4 
REMARK       I    between atoms: C2_4  and  N3_8 
REMARK    1  A    between atoms: N3_8  and  C4_10 
REMARK    2  A    between atoms: C6_12  and  N4_13 
REMARK    3  A    between atoms: C7_17  and  N5_18 
ROOT
HETATM    1  C4  UNL     1      26.841  41.103  71.200  1.00  0.00     0.105 C 
HETATM    2  C5  UNL     1      28.230  41.014  70.571  1.00  0.00     0.060 C 
HETATM    3  C6  UNL     1      29.010  40.470  71.775  1.00  0.00     0.215 C 
HETATM    4  C7  UNL     1      28.145  39.285  72.147  1.00  0.00     0.215 C 
HETATM    5  C8  UNL     1      26.753  39.890  72.054  1.00  0.00     0.060 C 
ENDROOT
BRANCH   1   6
HETATM    6  N3  UNL     1      25.821  41.243  70.211  1.00  0.00    -0.218 N 
HETATM    7  C2  UNL     1      24.862  42.264  70.358  1.00  0.00     0.669 C 
HETATM    8  N1  UNL     1      24.488  43.104  69.277  1.00  0.00    -0.231 N 
HETATM    9  N2  UNL     1      24.321  42.422  71.517  1.00  0.00    -0.235 N 
HETATM   10  C1  UNL     1      25.370  44.222  68.976  1.00  0.00     0.165 C 
ATOM     11  H1  UNL     1      23.640  42.933  68.736  1.00  0.00     0.177 HD
ATOM     12  H22 UNL     1      23.626  43.162  71.624  1.00  0.00     0.174 HD
ATOM     13  H21 UNL     1      24.589  41.818  72.294  1.00  0.00     0.174 HD
HETATM   14  C3  UNL     1      25.744  40.377  69.073  1.00  0.00     0.169 C 
ENDBRANCH   1   6
BRANCH   3  15
HETATM   15  N4  UNL     1      28.929  41.461  72.804  1.00  0.00    -0.073 N 
ATOM     16  H43 UNL     1      28.961  41.068  73.744  1.00  0.00     0.274 HD
ATOM     17  H42 UNL     1      29.769  42.035  72.875  1.00  0.00     0.274 HD
ATOM     18  H41 UNL     1      28.085  42.004  72.624  1.00  0.00     0.274 HD
ENDBRANCH   3  15
BRANCH   4  19
HETATM   19  N5  UNL     1      28.394  38.838  73.501  1.00  0.00    -0.073 N 
ATOM     20  H53 UNL     1      29.393  38.760  73.688  1.00  0.00     0.274 HD
ATOM     21  H52 UNL     1      28.160  39.563  74.180  1.00  0.00     0.274 HD
ATOM     22  H51 UNL     1      27.908  37.965  73.710  1.00  0.00     0.274 HD
ENDBRANCH   4  19
TORSDOF 3
ENDMDL
MODEL 5
REMARK VINA RESULT: -4.762105882      1.939      3.130
REMARK  3 active torsions:
REMARK  status: ('A' for Active; 'I' for Inactive)
REMARK       I    between atoms: N1_2  and  C2_4 
REMARK       I    between atoms: C2_4  and  N3_8 
REMARK    1  A    between atoms: N3_8  and  C4_10 
REMARK    2  A    between atoms: C6_12  and  N4_13 
REMARK    3  A    between atoms: C7_17  and  N5_18 
ROOT
HETATM    1  C4  UNL     1      26.969  40.576  71.187  1.00  0.00     0.105 C 
HETATM    2  C5  UNL     1      28.130  39.626  71.475  1.00  0.00     0.060 C 
HETATM    3  C6  UNL     1      27.792  39.257  72.926  1.00  0.00     0.215 C 
HETATM    4  C7  UNL     1      26.345  38.841  72.770  1.00  0.00     0.215 C 
HETATM    5  C8  UNL     1      25.810  39.947  71.874  1.00  0.00     0.060 C 
ENDROOT
BRANCH   1   6
HETATM    6  N3  UNL     1      26.811  40.809  69.788  1.00  0.00    -0.218 N 
HETATM    7  C2  UNL     1      27.809  41.524  69.098  1.00  0.00     0.669 C 
HETATM    8  N1  UNL     1      28.318  41.086  67.847  1.00  0.00    -0.231 N 
HETATM    9  N2  UNL     1      28.259  42.606  69.636  1.00  0.00    -0.235 N 
HETATM   10  C1  UNL     1      29.336  40.047  67.878  1.00  0.00     0.165 C 
ATOM     11  H1  UNL     1      27.986  41.482  66.967  1.00  0.00     0.177 HD
ATOM     12  H22 UNL     1      28.982  43.124  69.136  1.00  0.00     0.174 HD
ATOM     13  H21 UNL     1      27.893  42.920  70.534  1.00  0.00     0.174 HD
HETATM   14  C3  UNL     1      25.669  40.336  69.064  1.00  0.00     0.169 C 
ENDBRANCH   1   6
BRANCH   3  15
HETATM   15  N4  UNL     1      27.860  40.466  73.688  1.00  0.00    -0.073 N 
ATOM     16  H43 UNL     1      28.550  40.429  74.438  1.00  0.00     0.274 HD
ATOM     17  H42 UNL     1      28.273  41.243  73.172  1.00  0.00     0.274 HD
ATOM     18  H41 UNL     1      26.916  40.660  74.020  1.00  0.00     0.274 HD
ENDBRANCH   3  15
BRANCH   4  19
HETATM   19  N5  UNL     1      25.640  38.853  74.034  1.00  0.00    -0.073 N 
ATOM     20  H53 UNL     1      26.077  38.226  74.709  1.00  0.00     0.274 HD
ATOM     21  H52 UNL     1      25.775  39.736  74.526  1.00  0.00     0.274 HD
ATOM     22  H51 UNL     1      24.648  38.641  73.920  1.00  0.00     0.274 HD
ENDBRANCH   4  19
TORSDOF 3
ENDMDL
