MODEL 1
REMARK VINA RESULT: -5.789908548      0.000      0.000
REMARK  3 active torsions:
REMARK  status: ('A' for Active; 'I' for Inactive)
REMARK       I    between atoms: C2_5  and  N4_7 
REMARK    1  A    between atoms: N4_7  and  C3_9 
REMARK    2  A    between atoms: C7_13  and  C8_14 
REMARK    3  A    between atoms: C8_14  and  N5_15 
ROOT
HETATM    1  N1  UNL     1      24.983  38.618  72.360  1.00  0.00    -0.172 NA
HETATM    2  C1  UNL     1      25.975  38.902  72.917  1.00  0.00     0.184 C 
HETATM    3  N2  UNL     1      27.168  39.225  73.582  1.00  0.00    -0.268 N 
ATOM      4  H2  UNL     1      27.449  38.716  74.420  1.00  0.00     0.180 HD
HETATM    5  C2  UNL     1      27.896  40.168  73.118  1.00  0.00     0.197 C 
HETATM    6  N3  UNL     1      29.105  40.468  73.823  1.00  0.00    -0.063 NA
HETATM    7  N4  UNL     1      27.532  40.894  71.956  1.00  0.00    -0.359 N 
ATOM      8  H4  UNL     1      27.073  41.802  72.024  1.00  0.00     0.162 HD
ENDROOT
BRANCH   7   9
HETATM    9  C3  UNL     1      27.830  40.311  70.680  1.00  0.00     0.089 C 
HETATM   10  C4  UNL     1      29.255  40.727  70.287  1.00  0.00     0.026 C 
HETATM   11  C5  UNL     1      29.239  40.942  68.789  1.00  0.00     0.002 C 
HETATM   12  C6  UNL     1      27.901  40.378  68.355  1.00  0.00     0.008 C 
HETATM   13  C7  UNL     1      27.042  40.828  69.526  1.00  0.00     0.034 C 
BRANCH  13  14
HETATM   14  C8  UNL     1      25.639  40.289  69.418  1.00  0.00     0.236 C 
BRANCH  14  15
HETATM   15  N5  UNL     1      24.777  41.167  70.176  1.00  0.00    -0.079 N 
ATOM     16  H53 UNL     1      24.168  40.666  70.824  1.00  0.00     0.274 HD
ATOM     17  H52 UNL     1      25.282  41.719  70.869  1.00  0.00     0.274 HD
ATOM     18  H51 UNL     1      24.262  41.741  69.508  1.00  0.00     0.274 HD
ENDBRANCH  14  15
ENDBRANCH  13  14
ENDBRANCH   7   9
TORSDOF 3
ENDMDL
MODEL 2
REMARK VINA RESULT: -5.763090000      1.265      1.292
REMARK  3 active torsions:
REMARK  status: ('A' for Active; 'I' for Inactive)
REMARK       I    between atoms: C2_5  and  N4_7 
REMARK    1  A    between atoms: N4_7  and  C3_9 
REMARK    2  A    between atoms: C7_13  and  C8_14 
REMARK    3  A    between atoms: C8_14  and  N5_15 
ROOT
HETATM    1  N1  UNL     1      24.970  38.720  72.404  1.00  0.00    -0.172 NA
HETATM    2  C1  UNL     1      26.033  38.933  72.854  1.00  0.00     0.184 C 
HETATM    3  N2  UNL     1      27.309  39.172  73.383  1.00  0.00    -0.268 N 
ATOM      4  H2  UNL     1      27.809  38.438  73.885  1.00  0.00     0.180 HD
HETATM    5  C2  UNL     1      27.835  40.327  73.224  1.00  0.00     0.197 C 
HETATM    6  N3  UNL     1      29.140  40.533  73.777  1.00  0.00    -0.063 NA
HETATM    7  N4  UNL     1      27.166  41.367  72.531  1.00  0.00    -0.359 N 
ATOM      8  H4  UNL     1      26.657  42.093  73.036  1.00  0.00     0.162 HD
ENDROOT
BRANCH   7   9
HETATM    9  C3  UNL     1      27.227  41.367  71.099  1.00  0.00     0.089 C 
HETATM   10  C4  UNL     1      28.655  41.747  70.682  1.00  0.00     0.026 C 
HETATM   11  C5  UNL     1      28.525  42.591  69.433  1.00  0.00     0.002 C 
HETATM   12  C6  UNL     1      27.073  42.429  69.034  1.00  0.00     0.008 C 
HETATM   13  C7  UNL     1      26.429  42.420  70.412  1.00  0.00     0.034 C 
BRANCH  13  14
HETATM   14  C8  UNL     1      24.950  42.146  70.325  1.00  0.00     0.236 C 
BRANCH  14  15
HETATM   15  N5  UNL     1      24.788  40.777  69.888  1.00  0.00    -0.079 N 
ATOM     16  H53 UNL     1      25.543  40.168  70.201  1.00  0.00     0.274 HD
ATOM     17  H52 UNL     1      24.024  40.296  70.362  1.00  0.00     0.274 HD
ATOM     18  H51 UNL     1      24.681  40.791  68.874  1.00  0.00     0.274 HD
ENDBRANCH  14  15
ENDBRANCH  13  14
ENDBRANCH   7   9
TORSDOF 3
ENDMDL
MODEL 3
REMARK VINA RESULT: -5.596562689      1.273      3.054
REMARK  3 active torsions:
REMARK  status: ('A' for Active; 'I' for Inactive)
REMARK       I    between atoms: C2_5  and  N4_7 
REMARK    1  A    between atoms: N4_7  and  C3_9 
REMARK    2  A    between atoms: C7_13  and  C8_14 
REMARK    3  A    between atoms: C8_14  and  N5_15 
ROOT
HETATM    1  N1  UNL     1      29.056  40.868  73.406  1.00  0.00    -0.172 NA
HETATM    2  C1  UNL     1      28.011  40.340  73.483  1.00  0.00     0.184 C 
HETATM    3  N2  UNL     1      26.754  39.727  73.580  1.00  0.00    -0.268 N 
ATOM      4  H2  UNL     1      26.218  39.773  74.447  1.00  0.00     0.180 HD
HETATM    5  C2  UNL     1      26.290  39.108  72.561  1.00  0.00     0.197 C 
HETATM    6  N3  UNL     1      25.003  38.495  72.698  1.00  0.00    -0.063 NA
HETATM    7  N4  UNL     1      27.010  39.026  71.342  1.00  0.00    -0.359 N 
ATOM      8  H4  UNL     1      27.561  38.199  71.112  1.00  0.00     0.162 HD
ENDROOT
BRANCH   7   9
HETATM    9  C3  UNL     1      26.937  40.141  70.444  1.00  0.00     0.089 C 
HETATM   10  C4  UNL     1      25.683  39.972  69.575  1.00  0.00     0.026 C 
HETATM   11  C5  UNL     1      26.045  40.482  68.197  1.00  0.00     0.002 C 
HETATM   12  C6  UNL     1      27.380  41.170  68.404  1.00  0.00     0.008 C 
HETATM   13  C7  UNL     1      28.006  40.215  69.409  1.00  0.00     0.034 C 
BRANCH  13  14
HETATM   14  C8  UNL     1      29.335  40.727  69.899  1.00  0.00     0.236 C 
BRANCH  14  15
HETATM   15  N5  UNL     1      29.112  42.040  70.463  1.00  0.00    -0.079 N 
ATOM     16  H53 UNL     1      28.830  42.729  69.767  1.00  0.00     0.274 HD
ATOM     17  H52 UNL     1      28.276  42.086  71.044  1.00  0.00     0.274 HD
ATOM     18  H51 UNL     1      29.960  42.305  70.964  1.00  0.00     0.274 HD
ENDBRANCH  14  15
ENDBRANCH  13  14
ENDBRANCH   7   9
TORSDOF 3
ENDMDL
MODEL 4
REMARK VINA RESULT: -5.179163641      2.041      4.483
REMARK  3 active torsions:
REMARK  status: ('A' for Active; 'I' for Inactive)
REMARK       I    between atoms: C2_5  and  N4_7 
REMARK    1  A    between atoms: N4_7  and  C3_9 
REMARK    2  A    between atoms: C7_13  and  C8_14 
REMARK    3  A    between atoms: C8_14  and  N5_15 
ROOT
HETATM    1  N1  UNL     1      24.185  43.495  70.952  1.00  0.00    -0.172 NA
HETATM    2  C1  UNL     1      24.476  42.857  70.012  1.00  0.00     0.184 C 
HETATM    3  N2  UNL     1      24.839  42.105  68.884  1.00  0.00    -0.268 N 
ATOM      4  H2  UNL     1      24.917  42.548  67.969  1.00  0.00     0.180 HD
HETATM    5  C2  UNL     1      25.069  40.856  69.025  1.00  0.00     0.197 C 
HETATM    6  N3  UNL     1      25.438  40.122  67.852  1.00  0.00    -0.063 NA
HETATM    7  N4  UNL     1      24.969  40.212  70.285  1.00  0.00    -0.359 N 
ATOM      8  H4  UNL     1      24.130  39.694  70.545  1.00  0.00     0.162 HD
ENDROOT
BRANCH   7   9
HETATM    9  C3  UNL     1      26.084  40.312  71.180  1.00  0.00     0.089 C 
HETATM   10  C4  UNL     1      27.371  40.151  70.358  1.00  0.00     0.026 C 
HETATM   11  C5  UNL     1      28.339  39.378  71.227  1.00  0.00     0.002 C 
HETATM   12  C6  UNL     1      27.679  39.372  72.591  1.00  0.00     0.008 C 
HETATM   13  C7  UNL     1      26.226  39.208  72.170  1.00  0.00     0.034 C 
BRANCH  13  14
HETATM   14  C8  UNL     1      25.299  39.289  73.355  1.00  0.00     0.236 C 
BRANCH  14  15
HETATM   15  N5  UNL     1      25.684  38.246  74.279  1.00  0.00    -0.079 N 
ATOM     16  H53 UNL     1      26.694  38.175  74.400  1.00  0.00     0.274 HD
ATOM     17  H52 UNL     1      25.450  38.466  75.247  1.00  0.00     0.274 HD
ATOM     18  H51 UNL     1      25.259  37.378  73.954  1.00  0.00     0.274 HD
ENDBRANCH  14  15
ENDBRANCH  13  14
ENDBRANCH   7   9
TORSDOF 3
ENDMDL
MODEL 5
REMARK VINA RESULT: -5.123728156      1.470      3.314
REMARK  3 active torsions:
REMARK  status: ('A' for Active; 'I' for Inactive)
REMARK       I    between atoms: C2_5  and  N4_7 
REMARK    1  A    between atoms: N4_7  and  C3_9 
REMARK    2  A    between atoms: C7_13  and  C8_14 
REMARK    3  A    between atoms: C8_14  and  N5_15 
ROOT
HETATM    1  N1  UNL     1      29.143  40.551  73.498  1.00  0.00    -0.172 NA
HETATM    2  C1  UNL     1      28.129  39.961  73.491  1.00  0.00     0.184 C 
HETATM    3  N2  UNL     1      26.910  39.268  73.497  1.00  0.00    -0.268 N 
ATOM      4  H2  UNL     1      26.546  38.865  74.361  1.00  0.00     0.180 HD
HETATM    5  C2  UNL     1      26.263  39.149  72.401  1.00  0.00     0.197 C 
HETATM    6  N3  UNL     1      25.022  38.435  72.447  1.00  0.00    -0.063 NA
HETATM    7  N4  UNL     1      26.742  39.697  71.184  1.00  0.00    -0.359 N 
ATOM      8  H4  UNL     1      27.239  39.120  70.506  1.00  0.00     0.162 HD
ENDROOT
BRANCH   7   9
HETATM    9  C3  UNL     1      26.506  41.090  70.937  1.00  0.00     0.089 C 
HETATM   10  C4  UNL     1      24.990  41.330  70.971  1.00  0.00     0.026 C 
HETATM   11  C5  UNL     1      24.699  42.372  69.913  1.00  0.00     0.002 C 
HETATM   12  C6  UNL     1      26.070  42.881  69.517  1.00  0.00     0.008 C 
HETATM   13  C7  UNL     1      26.853  41.578  69.573  1.00  0.00     0.034 C 
BRANCH  13  14
HETATM   14  C8  UNL     1      28.322  41.808  69.331  1.00  0.00     0.236 C 
BRANCH  14  15
HETATM   15  N5  UNL     1      28.935  42.076  70.612  1.00  0.00    -0.079 N 
ATOM     16  H53 UNL     1      29.900  42.398  70.532  1.00  0.00     0.274 HD
ATOM     17  H52 UNL     1      28.556  42.905  71.069  1.00  0.00     0.274 HD
ATOM     18  H51 UNL     1      28.843  41.233  71.178  1.00  0.00     0.274 HD
ENDBRANCH  14  15
ENDBRANCH  13  14
ENDBRANCH   7   9
TORSDOF 3
ENDMDL
