MODEL 1
REMARK VINA RESULT: -5.699113642      0.000      0.000
REMARK  3 active torsions:
REMARK  status: ('A' for Active; 'I' for Inactive)
REMARK    1  A    between atoms: C3_3  and  N1_4 
REMARK    2  A    between atoms: C5_6  and  N2_7 
REMARK    3  A    between atoms: C7_12  and  C8_13 
ROOT
HETATM    1  C1  UNL     1      30.928  40.085  68.541  1.00  0.00     0.013 C 
HETATM    2  C2  UNL     1      29.754  40.174  68.792  1.00  0.00    -0.087 C 
HETATM    3  C3  UNL     1      28.354  40.297  69.115  1.00  0.00     0.365 C 
ENDROOT
BRANCH   3   4
HETATM    4  N1  UNL     1      28.176  40.672  70.503  1.00  0.00     0.102 N 
HETATM    5  C4  UNL     1      28.665  39.659  71.410  1.00  0.00     0.306 C 
HETATM    6  C5  UNL     1      27.733  39.430  72.555  1.00  0.00     0.212 C 
HETATM    7  C6  UNL     1      27.159  40.674  73.152  1.00  0.00     0.048 C 
HETATM    8  C7  UNL     1      26.890  41.777  72.158  1.00  0.00     0.080 C 
HETATM    9  C9  UNL     1      26.825  41.082  70.789  1.00  0.00     0.285 C 
BRANCH   6  10
HETATM   10  N2  UNL     1      28.396  38.717  73.631  1.00  0.00    -0.073 N 
ATOM     11  H23 UNL     1      29.202  38.191  73.292  1.00  0.00     0.274 HD
ATOM     12  H22 UNL     1      28.882  39.355  74.261  1.00  0.00     0.274 HD
ATOM     13  H21 UNL     1      27.739  38.119  74.133  1.00  0.00     0.274 HD
ENDBRANCH   6  10
BRANCH   8  14
HETATM   14  C8  UNL     1      25.620  42.463  72.388  1.00  0.00     0.092 C 
HETATM   15  N3  UNL     1      24.508  41.953  71.995  1.00  0.00    -0.391 N 
ATOM     16  H32 UNL     1      24.504  41.054  71.513  1.00  0.00     0.157 HD
ATOM     17  H31 UNL     1      23.622  42.432  72.155  1.00  0.00     0.157 HD
HETATM   18  N4  UNL     1      25.626  43.709  73.057  1.00  0.00    -0.088 NA
ENDBRANCH   8  14
ENDBRANCH   3   4
TORSDOF 3
ENDMDL
MODEL 2
REMARK VINA RESULT: -5.615970056      1.730      2.146
REMARK  3 active torsions:
REMARK  status: ('A' for Active; 'I' for Inactive)
REMARK    1  A    between atoms: C3_3  and  N1_4 
REMARK    2  A    between atoms: C5_6  and  N2_7 
REMARK    3  A    between atoms: C7_12  and  C8_13 
ROOT
HETATM    1  C1  UNL     1      29.616  40.484  69.726  1.00  0.00     0.013 C 
HETATM    2  C2  UNL     1      29.460  40.874  70.855  1.00  0.00    -0.087 C 
HETATM    3  C3  UNL     1      29.249  41.327  72.207  1.00  0.00     0.365 C 
ENDROOT
BRANCH   3   4
HETATM    4  N1  UNL     1      27.844  41.278  72.554  1.00  0.00     0.102 N 
HETATM    5  C4  UNL     1      27.512  40.101  73.325  1.00  0.00     0.306 C 
HETATM    6  C5  UNL     1      26.234  39.472  72.873  1.00  0.00     0.212 C 
HETATM    7  C6  UNL     1      25.133  40.438  72.577  1.00  0.00     0.048 C 
HETATM    8  C7  UNL     1      25.593  41.746  71.981  1.00  0.00     0.080 C 
HETATM    9  C9  UNL     1      26.990  41.462  71.409  1.00  0.00     0.285 C 
BRANCH   6  10
HETATM   10  N2  UNL     1      25.726  38.551  73.872  1.00  0.00    -0.073 N 
ATOM     11  H23 UNL     1      26.369  37.775  74.029  1.00  0.00     0.274 HD
ATOM     12  H22 UNL     1      25.746  38.961  74.806  1.00  0.00     0.274 HD
ATOM     13  H21 UNL     1      24.792  38.223  73.625  1.00  0.00     0.274 HD
ENDBRANCH   6  10
BRANCH   8  14
HETATM   14  C8  UNL     1      24.736  42.217  70.895  1.00  0.00     0.092 C 
HETATM   15  N3  UNL     1      24.443  41.456  69.902  1.00  0.00    -0.391 N 
ATOM     16  H32 UNL     1      24.811  40.506  69.864  1.00  0.00     0.157 HD
ATOM     17  H31 UNL     1      23.845  41.786  69.143  1.00  0.00     0.157 HD
HETATM   18  N4  UNL     1      24.226  43.536  70.947  1.00  0.00    -0.088 NA
ENDBRANCH   8  14
ENDBRANCH   3   4
TORSDOF 3
ENDMDL
MODEL 3
REMARK VINA RESULT: -5.611978529      1.620      1.683
REMARK  3 active torsions:
REMARK  status: ('A' for Active; 'I' for Inactive)
REMARK    1  A    between atoms: C3_3  and  N1_4 
REMARK    2  A    between atoms: C5_6  and  N2_7 
REMARK    3  A    between atoms: C7_12  and  C8_13 
ROOT
HETATM    1  C1  UNL     1      29.610  44.073  68.644  1.00  0.00     0.013 C 
HETATM    2  C2  UNL     1      29.500  42.953  69.070  1.00  0.00    -0.087 C 
HETATM    3  C3  UNL     1      29.345  41.619  69.595  1.00  0.00     0.365 C 
ENDROOT
BRANCH   3   4
HETATM    4  N1  UNL     1      28.616  41.638  70.847  1.00  0.00     0.102 N 
HETATM    5  C4  UNL     1      29.018  40.567  71.729  1.00  0.00     0.306 C 
HETATM    6  C5  UNL     1      27.850  39.913  72.393  1.00  0.00     0.212 C 
HETATM    7  C6  UNL     1      26.802  40.858  72.885  1.00  0.00     0.048 C 
HETATM    8  C7  UNL     1      26.604  42.078  72.018  1.00  0.00     0.080 C 
HETATM    9  C9  UNL     1      27.191  41.701  70.649  1.00  0.00     0.285 C 
BRANCH   6  10
HETATM   10  N2  UNL     1      28.274  39.126  73.536  1.00  0.00    -0.073 N 
ATOM     11  H23 UNL     1      27.507  38.570  73.914  1.00  0.00     0.274 HD
ATOM     12  H22 UNL     1      28.895  38.366  73.259  1.00  0.00     0.274 HD
ATOM     13  H21 UNL     1      28.698  39.719  74.250  1.00  0.00     0.274 HD
ENDBRANCH   6  10
BRANCH   8  14
HETATM   14  C8  UNL     1      25.199  42.433  71.836  1.00  0.00     0.092 C 
HETATM   15  N3  UNL     1      24.258  41.649  72.227  1.00  0.00    -0.391 N 
ATOM     16  H32 UNL     1      24.490  40.761  72.672  1.00  0.00     0.157 HD
ATOM     17  H31 UNL     1      23.277  41.898  72.100  1.00  0.00     0.157 HD
HETATM   18  N4  UNL     1      24.878  43.665  71.219  1.00  0.00    -0.088 NA
ENDBRANCH   8  14
ENDBRANCH   3   4
TORSDOF 3
ENDMDL
MODEL 4
REMARK VINA RESULT: -5.533134998      1.566      1.713
REMARK  3 active torsions:
REMARK  status: ('A' for Active; 'I' for Inactive)
REMARK    1  A    between atoms: C3_3  and  N1_4 
REMARK    2  A    between atoms: C5_6  and  N2_7 
REMARK    3  A    between atoms: C7_12  and  C8_13 
ROOT
HETATM    1  C1  UNL     1      29.857  41.683  68.641  1.00  0.00     0.013 C 
HETATM    2  C2  UNL     1      29.415  40.784  69.308  1.00  0.00    -0.087 C 
HETATM    3  C3  UNL     1      28.860  39.723  70.112  1.00  0.00     0.365 C 
ENDROOT
BRANCH   3   4
HETATM    4  N1  UNL     1      27.857  40.235  71.022  1.00  0.00     0.102 N 
HETATM    5  C4  UNL     1      27.621  39.342  72.134  1.00  0.00     0.306 C 
HETATM    6  C5  UNL     1      26.167  39.199  72.444  1.00  0.00     0.212 C 
HETATM    7  C6  UNL     1      25.391  40.476  72.407  1.00  0.00     0.048 C 
HETATM    8  C7  UNL     1      25.855  41.457  71.358  1.00  0.00     0.080 C 
HETATM    9  C9  UNL     1      26.647  40.621  70.342  1.00  0.00     0.285 C 
BRANCH   6  10
HETATM   10  N2  UNL     1      25.970  38.629  73.764  1.00  0.00    -0.073 N 
ATOM     11  H23 UNL     1      25.002  38.342  73.909  1.00  0.00     0.274 HD
ATOM     12  H22 UNL     1      26.417  37.716  73.850  1.00  0.00     0.274 HD
ATOM     13  H21 UNL     1      26.286  39.272  74.490  1.00  0.00     0.274 HD
ENDBRANCH   6  10
BRANCH   8  14
HETATM   14  C8  UNL     1      24.754  42.115  70.657  1.00  0.00     0.092 C 
HETATM   15  N3  UNL     1      24.242  41.603  69.595  1.00  0.00    -0.391 N 
ATOM     16  H32 UNL     1      24.606  40.723  69.229  1.00  0.00     0.157 HD
ATOM     17  H31 UNL     1      23.474  42.062  69.106  1.00  0.00     0.157 HD
HETATM   18  N4  UNL     1      24.250  43.335  71.165  1.00  0.00    -0.088 NA
ENDBRANCH   8  14
ENDBRANCH   3   4
TORSDOF 3
ENDMDL
MODEL 5
REMARK VINA RESULT: -5.450631349      2.017      3.160
REMARK  3 active torsions:
REMARK  status: ('A' for Active; 'I' for Inactive)
REMARK    1  A    between atoms: C3_3  and  N1_4 
REMARK    2  A    between atoms: C5_6  and  N2_7 
REMARK    3  A    between atoms: C7_12  and  C8_13 
ROOT
HETATM    1  C1  UNL     1      30.934  38.989  67.869  1.00  0.00     0.013 C 
HETATM    2  C2  UNL     1      30.198  39.844  68.288  1.00  0.00    -0.087 C 
HETATM    3  C3  UNL     1      29.306  40.849  68.811  1.00  0.00     0.365 C 
ENDROOT
BRANCH   3   4
HETATM    4  N1  UNL     1      28.200  40.241  69.521  1.00  0.00     0.102 N 
HETATM    5  C4  UNL     1      26.923  40.582  68.938  1.00  0.00     0.306 C 
HETATM    6  C5  UNL     1      25.899  40.910  69.975  1.00  0.00     0.212 C 
HETATM    7  C6  UNL     1      25.897  40.001  71.162  1.00  0.00     0.048 C 
HETATM    8  C7  UNL     1      27.262  39.502  71.567  1.00  0.00     0.080 C 
HETATM    9  C9  UNL     1      28.258  40.488  70.939  1.00  0.00     0.285 C 
BRANCH   6  10
HETATM   10  N2  UNL     1      24.560  40.871  69.416  1.00  0.00    -0.073 N 
ATOM     11  H23 UNL     1      24.278  41.781  69.054  1.00  0.00     0.274 HD
ATOM     12  H22 UNL     1      24.533  40.342  68.544  1.00  0.00     0.274 HD
ATOM     13  H21 UNL     1      23.891  40.511  70.096  1.00  0.00     0.274 HD
ENDBRANCH   6  10
BRANCH   8  14
HETATM   14  C8  UNL     1      27.467  39.497  73.014  1.00  0.00     0.092 C 
HETATM   15  N3  UNL     1      26.590  38.996  73.809  1.00  0.00    -0.391 N 
ATOM     16  H32 UNL     1      25.732  38.594  73.429  1.00  0.00     0.157 HD
ATOM     17  H31 UNL     1      26.733  38.994  74.819  1.00  0.00     0.157 HD
HETATM   18  N4  UNL     1      28.656  40.056  73.540  1.00  0.00    -0.088 NA
ENDBRANCH   8  14
ENDBRANCH   3   4
TORSDOF 3
ENDMDL
