MODEL 1
REMARK VINA RESULT: -5.623391439      0.000      0.000
REMARK  5 active torsions:
REMARK  status: ('A' for Active; 'I' for Inactive)
REMARK    1  A    between atoms: C5_6  and  O1_7 
REMARK    2  A    between atoms: C5_6  and  C6_9 
REMARK    3  A    between atoms: C6_9  and  N2_10 
REMARK    4  A    between atoms: C6_9  and  C7_14 
REMARK    5  A    between atoms: C7_14  and  O2_15 
ROOT
HETATM    1  C1  UNL     1      24.936  41.287  69.183  1.00  0.00     0.272 C 
HETATM    2  N1  UNL     1      26.117  41.768  69.828  1.00  0.00    -0.074 N 
HETATM    3  C2  UNL     1      26.557  42.963  69.093  1.00  0.00     0.272 C 
HETATM    4  C3  UNL     1      27.209  40.859  69.854  1.00  0.00     0.239 C 
HETATM    5  C4  UNL     1      27.078  39.696  70.754  1.00  0.00     0.068 C 
HETATM    6  C5  UNL     1      26.154  39.808  71.889  1.00  0.00     0.091 C 
HETATM    7  C8  UNL     1      25.269  41.014  71.906  1.00  0.00     0.068 C 
HETATM    8  C9  UNL     1      25.858  42.205  71.186  1.00  0.00     0.239 C 
ENDROOT
BRANCH   6   9
HETATM    9  O1  UNL     1      25.294  38.682  71.880  1.00  0.00    -0.388 OA
ATOM     10  H1  UNL     1      25.794  37.920  72.144  1.00  0.00     0.210 HD
ENDBRANCH   6   9
BRANCH   6  11
HETATM   11  C6  UNL     1      26.840  39.762  73.251  1.00  0.00     0.241 C 
BRANCH  11  12
HETATM   12  N2  UNL     1      26.181  38.677  73.971  1.00  0.00    -0.070 N 
ATOM     13  H23 UNL     1      26.407  37.748  73.616  1.00  0.00     0.274 HD
ATOM     14  H22 UNL     1      26.537  38.532  74.915  1.00  0.00     0.274 HD
ATOM     15  H21 UNL     1      25.187  38.902  73.935  1.00  0.00     0.274 HD
ENDBRANCH  11  12
BRANCH  11  16
HETATM   16  C7  UNL     1      28.302  39.421  73.133  1.00  0.00     0.200 C 
BRANCH  16  17
HETATM   17  O2  UNL     1      28.963  40.166  74.125  1.00  0.00    -0.399 OA
ATOM     18  H2  UNL     1      29.416  40.869  73.674  1.00  0.00     0.209 HD
ENDBRANCH  16  17
ENDBRANCH  11  16
ENDBRANCH   6  11
TORSDOF 5
ENDMDL
MODEL 2
REMARK VINA RESULT: -5.471301733      1.084      1.169
REMARK  5 active torsions:
REMARK  status: ('A' for Active; 'I' for Inactive)
REMARK    1  A    between atoms: C5_6  and  O1_7 
REMARK    2  A    between atoms: C5_6  and  C6_9 
REMARK    3  A    between atoms: C6_9  and  N2_10 
REMARK    4  A    between atoms: C6_9  and  C7_14 
REMARK    5  A    between atoms: C7_14  and  O2_15 
ROOT
HETATM    1  C1  UNL     1      25.809  42.179  69.368  1.00  0.00     0.272 C 
HETATM    2  N1  UNL     1      27.016  41.506  69.731  1.00  0.00    -0.074 N 
HETATM    3  C2  UNL     1      28.006  41.797  68.684  1.00  0.00     0.272 C 
HETATM    4  C3  UNL     1      26.917  40.093  69.842  1.00  0.00     0.239 C 
HETATM    5  C4  UNL     1      26.168  39.573  71.004  1.00  0.00     0.068 C 
HETATM    6  C5  UNL     1      26.044  40.439  72.182  1.00  0.00     0.091 C 
HETATM    7  C8  UNL     1      26.504  41.853  72.017  1.00  0.00     0.068 C 
HETATM    8  C9  UNL     1      27.578  42.019  70.966  1.00  0.00     0.239 C 
ENDROOT
BRANCH   6   9
HETATM    9  O1  UNL     1      24.676  40.506  72.547  1.00  0.00    -0.388 OA
ATOM     10  H1  UNL     1      24.610  40.386  73.487  1.00  0.00     0.210 HD
ENDBRANCH   6   9
BRANCH   6  11
HETATM   11  C6  UNL     1      26.751  39.901  73.421  1.00  0.00     0.241 C 
BRANCH  11  12
HETATM   12  N2  UNL     1      26.004  38.705  73.795  1.00  0.00    -0.070 N 
ATOM     13  H23 UNL     1      26.258  37.875  73.259  1.00  0.00     0.274 HD
ATOM     14  H22 UNL     1      26.252  38.332  74.711  1.00  0.00     0.274 HD
ATOM     15  H21 UNL     1      25.023  38.967  73.709  1.00  0.00     0.274 HD
ENDBRANCH  11  12
BRANCH  11  16
HETATM   16  C7  UNL     1      28.169  39.492  73.126  1.00  0.00     0.200 C 
BRANCH  16  17
HETATM   17  O2  UNL     1      28.971  40.110  74.102  1.00  0.00    -0.399 OA
ATOM     18  H2  UNL     1      29.386  40.851  73.676  1.00  0.00     0.209 HD
ENDBRANCH  16  17
ENDBRANCH  11  16
ENDBRANCH   6  11
TORSDOF 5
ENDMDL
MODEL 3
REMARK VINA RESULT: -5.382184650      1.945      2.902
REMARK  5 active torsions:
REMARK  status: ('A' for Active; 'I' for Inactive)
REMARK    1  A    between atoms: C5_6  and  O1_7 
REMARK    2  A    between atoms: C5_6  and  C6_9 
REMARK    3  A    between atoms: C6_9  and  N2_10 
REMARK    4  A    between atoms: C6_9  and  C7_14 
REMARK    5  A    between atoms: C7_14  and  O2_15 
ROOT
HETATM    1  C1  UNL     1      29.453  40.597  70.469  1.00  0.00     0.272 C 
HETATM    2  N1  UNL     1      28.094  40.890  70.140  1.00  0.00    -0.074 N 
HETATM    3  C2  UNL     1      28.046  41.160  68.696  1.00  0.00     0.272 C 
HETATM    4  C3  UNL     1      27.536  42.018  70.802  1.00  0.00     0.239 C 
HETATM    5  C4  UNL     1      27.252  41.863  72.243  1.00  0.00     0.068 C 
HETATM    6  C5  UNL     1      27.057  40.503  72.761  1.00  0.00     0.091 C 
HETATM    7  C8  UNL     1      27.379  39.384  71.822  1.00  0.00     0.068 C 
HETATM    8  C9  UNL     1      27.220  39.755  70.364  1.00  0.00     0.239 C 
ENDROOT
BRANCH   6   9
HETATM    9  O1  UNL     1      27.897  40.330  73.889  1.00  0.00    -0.388 OA
ATOM     10  H1  UNL     1      28.644  39.803  73.629  1.00  0.00     0.210 HD
ENDBRANCH   6   9
BRANCH   6  11
HETATM   11  C6  UNL     1      25.649  40.236  73.280  1.00  0.00     0.241 C 
BRANCH  11  12
HETATM   12  N2  UNL     1      24.763  40.916  72.340  1.00  0.00    -0.070 N 
ATOM     13  H23 UNL     1      25.250  41.361  71.562  1.00  0.00     0.274 HD
ATOM     14  H22 UNL     1      24.195  40.283  71.777  1.00  0.00     0.274 HD
ATOM     15  H21 UNL     1      24.218  41.562  72.910  1.00  0.00     0.274 HD
ENDBRANCH  11  12
BRANCH  11  16
HETATM   16  C7  UNL     1      25.311  38.769  73.260  1.00  0.00     0.200 C 
BRANCH  16  17
HETATM   17  O2  UNL     1      25.563  38.288  74.557  1.00  0.00    -0.399 OA
ATOM     18  H2  UNL     1      26.401  37.842  74.518  1.00  0.00     0.209 HD
ENDBRANCH  16  17
ENDBRANCH  11  16
ENDBRANCH   6  11
TORSDOF 5
ENDMDL
MODEL 4
REMARK VINA RESULT: -5.349125602      1.860      2.299
REMARK  5 active torsions:
REMARK  status: ('A' for Active; 'I' for Inactive)
REMARK    1  A    between atoms: C5_6  and  O1_7 
REMARK    2  A    between atoms: C5_6  and  C6_9 
REMARK    3  A    between atoms: C6_9  and  N2_10 
REMARK    4  A    between atoms: C6_9  and  C7_14 
REMARK    5  A    between atoms: C7_14  and  O2_15 
ROOT
HETATM    1  C1  UNL     1      27.291  42.659  69.392  1.00  0.00     0.272 C 
HETATM    2  N1  UNL     1      28.144  41.603  69.837  1.00  0.00    -0.074 N 
HETATM    3  C2  UNL     1      29.411  41.730  69.104  1.00  0.00     0.272 C 
HETATM    4  C3  UNL     1      27.654  40.288  69.614  1.00  0.00     0.239 C 
HETATM    5  C4  UNL     1      26.520  39.854  70.456  1.00  0.00     0.068 C 
HETATM    6  C5  UNL     1      26.326  40.530  71.744  1.00  0.00     0.091 C 
HETATM    7  C8  UNL     1      27.166  41.744  71.990  1.00  0.00     0.068 C 
HETATM    8  C9  UNL     1      28.481  41.729  71.242  1.00  0.00     0.239 C 
ENDROOT
BRANCH   6   9
HETATM    9  O1  UNL     1      24.977  40.957  71.828  1.00  0.00    -0.388 OA
ATOM     10  H1  UNL     1      24.807  41.242  72.718  1.00  0.00     0.210 HD
ENDBRANCH   6   9
BRANCH   6  11
HETATM   11  C6  UNL     1      26.523  39.622  72.953  1.00  0.00     0.241 C 
BRANCH  11  12
HETATM   12  N2  UNL     1      26.730  40.528  74.078  1.00  0.00    -0.070 N 
ATOM     13  H23 UNL     1      26.993  41.474  73.804  1.00  0.00     0.274 HD
ATOM     14  H22 UNL     1      25.873  40.782  74.568  1.00  0.00     0.274 HD
ATOM     15  H21 UNL     1      27.420  40.063  74.669  1.00  0.00     0.274 HD
ENDBRANCH  11  12
BRANCH  11  16
HETATM   16  C7  UNL     1      25.298  38.795  73.241  1.00  0.00     0.200 C 
BRANCH  16  17
HETATM   17  O2  UNL     1      25.484  38.244  74.520  1.00  0.00    -0.399 OA
ATOM     18  H2  UNL     1      26.422  38.133  74.630  1.00  0.00     0.209 HD
ENDBRANCH  16  17
ENDBRANCH  11  16
ENDBRANCH   6  11
TORSDOF 5
ENDMDL
MODEL 5
REMARK VINA RESULT: -5.323894532      1.902      2.848
REMARK  5 active torsions:
REMARK  status: ('A' for Active; 'I' for Inactive)
REMARK    1  A    between atoms: C5_6  and  O1_7 
REMARK    2  A    between atoms: C5_6  and  C6_9 
REMARK    3  A    between atoms: C6_9  and  N2_10 
REMARK    4  A    between atoms: C6_9  and  C7_14 
REMARK    5  A    between atoms: C7_14  and  O2_15 
ROOT
HETATM    1  C1  UNL     1      29.410  40.100  69.800  1.00  0.00     0.272 C 
HETATM    2  N1  UNL     1      28.441  41.087  70.160  1.00  0.00    -0.074 N 
HETATM    3  C2  UNL     1      28.326  42.015  69.026  1.00  0.00     0.272 C 
HETATM    4  C3  UNL     1      28.756  41.858  71.311  1.00  0.00     0.239 C 
HETATM    5  C4  UNL     1      28.671  41.166  72.613  1.00  0.00     0.068 C 
HETATM    6  C5  UNL     1      27.811  39.980  72.703  1.00  0.00     0.091 C 
HETATM    7  C8  UNL     1      27.267  39.455  71.412  1.00  0.00     0.068 C 
HETATM    8  C9  UNL     1      27.121  40.515  70.344  1.00  0.00     0.239 C 
ENDROOT
BRANCH   6   9
HETATM    9  O1  UNL     1      28.563  38.924  73.277  1.00  0.00    -0.388 OA
ATOM     10  H1  UNL     1      29.203  39.300  73.869  1.00  0.00     0.210 HD
ENDBRANCH   6   9
BRANCH   6  11
HETATM   11  C6  UNL     1      26.614  40.154  73.632  1.00  0.00     0.241 C 
BRANCH  11  12
HETATM   12  N2  UNL     1      26.144  41.515  73.394  1.00  0.00    -0.070 N 
ATOM     13  H23 UNL     1      26.106  42.092  74.234  1.00  0.00     0.274 HD
ATOM     14  H22 UNL     1      26.808  42.097  72.882  1.00  0.00     0.274 HD
ATOM     15  H21 UNL     1      25.245  41.407  72.926  1.00  0.00     0.274 HD
ENDBRANCH  11  12
BRANCH  11  16
HETATM   16  C7  UNL     1      25.494  39.208  73.291  1.00  0.00     0.200 C 
BRANCH  16  17
HETATM   17  O2  UNL     1      25.651  38.090  74.127  1.00  0.00    -0.399 OA
ATOM     18  H2  UNL     1      24.806  37.939  74.534  1.00  0.00     0.209 HD
ENDBRANCH  16  17
ENDBRANCH  11  16
ENDBRANCH   6  11
TORSDOF 5
ENDMDL
