MODEL 1
REMARK VINA RESULT: -6.185360445      0.000      0.000
REMARK  2 active torsions:
REMARK  status: ('A' for Active; 'I' for Inactive)
REMARK    1  A    between atoms: N1_1  and  C1_4 
REMARK    2  A    between atoms: C5_10  and  N3_11 
ROOT
HETATM    1  C1  UNL     1      24.644   8.414  38.528  1.00  0.00     0.686 A 
HETATM    2  N2  UNL     1      24.743   8.589  37.201  1.00  0.00    -0.202 N 
ATOM      3  H2  UNL     1      25.643   8.427  36.750  1.00  0.00     0.183 HD
HETATM    4  C2  UNL     1      23.696   8.970  36.446  1.00  0.00     0.108 A 
HETATM    5  C3  UNL     1      22.492   9.182  37.084  1.00  0.00     0.051 A 
HETATM    6  C4  UNL     1      22.383   9.003  38.456  1.00  0.00     0.102 A 
HETATM    7  C5  UNL     1      21.174   9.212  39.125  1.00  0.00     0.198 A 
HETATM    8  C6  UNL     1      21.078   9.032  40.485  1.00  0.00     0.284 A 
HETATM    9  O3  UNL     1      19.974   9.230  41.046  1.00  0.00    -0.265 OA
HETATM   10  N4  UNL     1      22.174   8.649  41.163  1.00  0.00    -0.272 N 
ATOM     11  H4  UNL     1      22.132   8.508  42.172  1.00  0.00     0.173 HD
HETATM   12  C7  UNL     1      23.328   8.453  40.499  1.00  0.00     0.348 A 
HETATM   13  O4  UNL     1      24.334   8.095  41.165  1.00  0.00    -0.245 OA
HETATM   14  N5  UNL     1      23.457   8.620  39.170  1.00  0.00    -0.094 N 
ENDROOT
BRANCH   1  15
HETATM   15  N1  UNL     1      25.653   8.047  39.245  1.00  0.00    -0.234 N 
ATOM     16  H12 UNL     1      26.343   8.759  39.487  1.00  0.00     0.174 HD
ATOM     17  H11 UNL     1      25.767   7.084  39.563  1.00  0.00     0.174 HD
ENDBRANCH   1  15
BRANCH   7  18
HETATM   18  N3  UNL     1      20.054   9.617  38.348  1.00  0.00    -0.107 N 
HETATM   19  O1  UNL     1      19.757  10.820  38.155  1.00  0.00    -0.531 OA
HETATM   20  O2  UNL     1      19.201   8.699  37.741  1.00  0.00    -0.531 OA
ENDBRANCH   7  18
TORSDOF 2
ENDMDL
MODEL 2
REMARK VINA RESULT: -6.150034402      1.874      4.983
REMARK  2 active torsions:
REMARK  status: ('A' for Active; 'I' for Inactive)
REMARK    1  A    between atoms: N1_1  and  C1_4 
REMARK    2  A    between atoms: C5_10  and  N3_11 
ROOT
HETATM    1  C1  UNL     1      20.403   9.380  39.157  1.00  0.00     0.686 A 
HETATM    2  N2  UNL     1      20.119   9.263  40.463  1.00  0.00    -0.202 N 
ATOM      3  H2  UNL     1      19.148   9.344  40.764  1.00  0.00     0.183 HD
HETATM    4  C2  UNL     1      21.070   9.043  41.389  1.00  0.00     0.108 A 
HETATM    5  C3  UNL     1      22.374   8.938  40.952  1.00  0.00     0.051 A 
HETATM    6  C4  UNL     1      22.674   9.058  39.603  1.00  0.00     0.102 A 
HETATM    7  C5  UNL     1      23.988   8.957  39.136  1.00  0.00     0.198 A 
HETATM    8  C6  UNL     1      24.273   9.078  37.796  1.00  0.00     0.284 A 
HETATM    9  O3  UNL     1      25.465   8.980  37.420  1.00  0.00    -0.265 OA
HETATM   10  N4  UNL     1      23.261   9.297  36.939  1.00  0.00    -0.272 N 
ATOM     11  H4  UNL     1      23.443   9.392  35.940  1.00  0.00     0.173 HD
HETATM   12  C7  UNL     1      22.004   9.391  37.410  1.00  0.00     0.348 A 
HETATM   13  O4  UNL     1      21.081   9.597  36.579  1.00  0.00    -0.245 OA
HETATM   14  N5  UNL     1      21.689   9.278  38.713  1.00  0.00    -0.094 N 
ENDROOT
BRANCH   1  15
HETATM   15  N1  UNL     1      19.483   9.591  38.275  1.00  0.00    -0.234 N 
ATOM     16  H12 UNL     1      19.702   9.367  37.304  1.00  0.00     0.174 HD
ATOM     17  H11 UNL     1      18.568   9.965  38.529  1.00  0.00     0.174 HD
ENDBRANCH   1  15
BRANCH   7  18
HETATM   18  N3  UNL     1      25.011   8.725  40.096  1.00  0.00    -0.107 N 
HETATM   19  O1  UNL     1      25.504   9.638  40.800  1.00  0.00    -0.531 OA
HETATM   20  O2  UNL     1      25.541   7.458  40.325  1.00  0.00    -0.531 OA
ENDBRANCH   7  18
TORSDOF 2
ENDMDL
MODEL 3
REMARK VINA RESULT: -5.927611438      2.096      3.874
REMARK  2 active torsions:
REMARK  status: ('A' for Active; 'I' for Inactive)
REMARK    1  A    between atoms: N1_1  and  C1_4 
REMARK    2  A    between atoms: C5_10  and  N3_11 
ROOT
HETATM    1  C1  UNL     1      22.490   8.081  36.391  1.00  0.00     0.686 A 
HETATM    2  N2  UNL     1      23.515   8.584  35.686  1.00  0.00    -0.202 N 
ATOM      3  H2  UNL     1      23.423   8.667  34.674  1.00  0.00     0.183 HD
HETATM    4  C2  UNL     1      24.661   8.983  36.269  1.00  0.00     0.108 A 
HETATM    5  C3  UNL     1      24.757   8.859  37.639  1.00  0.00     0.051 A 
HETATM    6  C4  UNL     1      23.700   8.339  38.373  1.00  0.00     0.102 A 
HETATM    7  C5  UNL     1      23.775   8.203  39.762  1.00  0.00     0.198 A 
HETATM    8  C6  UNL     1      22.721   7.686  40.479  1.00  0.00     0.284 A 
HETATM    9  O3  UNL     1      22.829   7.581  41.724  1.00  0.00    -0.265 OA
HETATM   10  N4  UNL     1      21.612   7.312  39.816  1.00  0.00    -0.272 N 
ATOM     11  H4  UNL     1      20.815   6.926  40.322  1.00  0.00     0.173 HD
HETATM   12  C7  UNL     1      21.562   7.453  38.479  1.00  0.00     0.348 A 
HETATM   13  O4  UNL     1      20.509   7.093  37.891  1.00  0.00    -0.245 OA
HETATM   14  N5  UNL     1      22.574   7.954  37.747  1.00  0.00    -0.094 N 
ENDROOT
BRANCH   1  15
HETATM   15  N1  UNL     1      21.393   7.702  35.823  1.00  0.00    -0.234 N 
ATOM     16  H12 UNL     1      20.709   8.423  35.593  1.00  0.00     0.174 HD
ATOM     17  H11 UNL     1      21.209   6.721  35.608  1.00  0.00     0.174 HD
ENDBRANCH   1  15
BRANCH   7  18
HETATM   18  N3  UNL     1      24.976   8.616  40.400  1.00  0.00    -0.107 N 
HETATM   19  O1  UNL     1      25.197   9.805  40.732  1.00  0.00    -0.531 OA
HETATM   20  O2  UNL     1      25.999   7.723  40.707  1.00  0.00    -0.531 OA
ENDBRANCH   7  18
TORSDOF 2
ENDMDL
MODEL 4
REMARK VINA RESULT: -5.849663195      1.961      3.393
REMARK  2 active torsions:
REMARK  status: ('A' for Active; 'I' for Inactive)
REMARK    1  A    between atoms: N1_1  and  C1_4 
REMARK    2  A    between atoms: C5_10  and  N3_11 
ROOT
HETATM    1  C1  UNL     1      25.257   6.991  40.654  1.00  0.00     0.686 A 
HETATM    2  N2  UNL     1      24.607   6.282  41.590  1.00  0.00    -0.202 N 
ATOM      3  H2  UNL     1      25.150   5.748  42.268  1.00  0.00     0.183 HD
HETATM    4  C2  UNL     1      23.264   6.250  41.664  1.00  0.00     0.108 A 
HETATM    5  C3  UNL     1      22.555   6.981  40.733  1.00  0.00     0.051 A 
HETATM    6  C4  UNL     1      23.222   7.716  39.764  1.00  0.00     0.102 A 
HETATM    7  C5  UNL     1      22.526   8.464  38.809  1.00  0.00     0.198 A 
HETATM    8  C6  UNL     1      23.197   9.189  37.852  1.00  0.00     0.284 A 
HETATM    9  O3  UNL     1      22.534   9.847  37.015  1.00  0.00    -0.265 OA
HETATM   10  N4  UNL     1      24.542   9.165  37.851  1.00  0.00    -0.272 N 
ATOM     11  H4  UNL     1      25.065   9.693  37.153  1.00  0.00     0.173 HD
HETATM   12  C7  UNL     1      25.191   8.439  38.779  1.00  0.00     0.348 A 
HETATM   13  O4  UNL     1      26.449   8.439  38.748  1.00  0.00    -0.245 OA
HETATM   14  N5  UNL     1      24.567   7.718  39.728  1.00  0.00    -0.094 N 
ENDROOT
BRANCH   1  15
HETATM   15  N1  UNL     1      26.547   7.017  40.591  1.00  0.00    -0.234 N 
ATOM     16  H12 UNL     1      27.012   7.892  40.833  1.00  0.00     0.174 HD
ATOM     17  H11 UNL     1      27.089   6.198  40.312  1.00  0.00     0.174 HD
ENDBRANCH   1  15
BRANCH   7  18
HETATM   18  N3  UNL     1      21.106   8.445  38.867  1.00  0.00    -0.107 N 
HETATM   19  O1  UNL     1      20.406   7.650  38.195  1.00  0.00    -0.531 OA
HETATM   20  O2  UNL     1      20.384   9.315  39.680  1.00  0.00    -0.531 OA
ENDBRANCH   7  18
TORSDOF 2
ENDMDL
MODEL 5
REMARK VINA RESULT: -5.815793587      1.807      3.414
REMARK  2 active torsions:
REMARK  status: ('A' for Active; 'I' for Inactive)
REMARK    1  A    between atoms: N1_1  and  C1_4 
REMARK    2  A    between atoms: C5_10  and  N3_11 
ROOT
HETATM    1  C1  UNL     1      23.531   9.514  40.244  1.00  0.00     0.686 A 
HETATM    2  N2  UNL     1      22.559   9.837  41.110  1.00  0.00    -0.202 N 
ATOM      3  H2  UNL     1      22.818  10.174  42.037  1.00  0.00     0.183 HD
HETATM    4  C2  UNL     1      21.254   9.730  40.799  1.00  0.00     0.108 A 
HETATM    5  C3  UNL     1      20.934   9.271  39.539  1.00  0.00     0.051 A 
HETATM    6  C4  UNL     1      21.935   8.935  38.638  1.00  0.00     0.102 A 
HETATM    7  C5  UNL     1      21.635   8.466  37.356  1.00  0.00     0.198 A 
HETATM    8  C6  UNL     1      22.636   8.136  36.472  1.00  0.00     0.284 A 
HETATM    9  O3  UNL     1      22.324   7.720  35.332  1.00  0.00    -0.265 OA
HETATM   10  N4  UNL     1      23.914   8.273  36.866  1.00  0.00    -0.272 N 
ATOM     11  H4  UNL     1      24.677   8.035  36.232  1.00  0.00     0.173 HD
HETATM   12  C7  UNL     1      24.180   8.727  38.105  1.00  0.00     0.348 A 
HETATM   13  O4  UNL     1      25.387   8.842  38.440  1.00  0.00    -0.245 OA
HETATM   14  N5  UNL     1      23.227   9.058  38.994  1.00  0.00    -0.094 N 
ENDROOT
BRANCH   1  15
HETATM   15  N1  UNL     1      24.781   9.620  40.552  1.00  0.00    -0.234 N 
ATOM     16  H12 UNL     1      25.462   9.511  39.799  1.00  0.00     0.174 HD
ATOM     17  H11 UNL     1      25.088   9.805  41.507  1.00  0.00     0.174 HD
ENDBRANCH   1  15
BRANCH   7  18
HETATM   18  N3  UNL     1      20.263   8.344  37.004  1.00  0.00    -0.107 N 
HETATM   19  O1  UNL     1      19.592   7.308  37.224  1.00  0.00    -0.531 OA
HETATM   20  O2  UNL     1      19.561   9.376  36.387  1.00  0.00    -0.531 OA
ENDBRANCH   7  18
TORSDOF 2
ENDMDL
