MODEL 1
REMARK VINA RESULT: -7.480014332      0.000      0.000
REMARK  3 active torsions:
REMARK  status: ('A' for Active; 'I' for Inactive)
REMARK    1  A    between atoms: N1_1  and  N2_4 
REMARK    2  A    between atoms: N2_4  and  C1_6 
REMARK    3  A    between atoms: C5_13  and  N4_14 
ROOT
HETATM    1  C1  UNL     1      25.579   7.657  40.236  1.00  0.00     0.699 A 
HETATM    2  N3  UNL     1      25.539   8.031  38.944  1.00  0.00    -0.154 N 
ATOM      3  H3  UNL     1      26.367   7.903  38.362  1.00  0.00     0.187 HD
HETATM    4  C2  UNL     1      24.435   8.570  38.405  1.00  0.00     0.272 A 
HETATM    5  O1  UNL     1      24.397   8.920  37.197  1.00  0.00    -0.267 OA
HETATM    6  C3  UNL     1      23.333   8.730  39.225  1.00  0.00     0.062 A 
HETATM    7  C4  UNL     1      22.162   9.289  38.700  1.00  0.00     0.055 A 
HETATM    8  C5  UNL     1      21.063   9.448  39.515  1.00  0.00     0.104 A 
HETATM    9  C6  UNL     1      21.110   9.060  40.847  1.00  0.00     0.038 A 
HETATM   10  C7  UNL     1      22.246   8.514  41.371  1.00  0.00     0.033 A 
HETATM   11  C8  UNL     1      23.348   8.354  40.552  1.00  0.00     0.065 A 
HETATM   12  N5  UNL     1      24.500   7.818  41.021  1.00  0.00    -0.189 N 
ATOM     13  H5  UNL     1      24.550   7.529  41.998  1.00  0.00     0.184 HD
ENDROOT
BRANCH   1  14
HETATM   14  N2  UNL     1      26.642   7.139  40.752  1.00  0.00    -0.138 N 
ATOM     15  H2  UNL     1      26.525   6.323  41.351  1.00  0.00     0.205 HD
BRANCH  14  16
HETATM   16  N1  UNL     1      27.923   7.605  40.555  1.00  0.00    -0.331 N 
ATOM     17  H12 UNL     1      28.055   8.614  40.625  1.00  0.00     0.177 HD
ATOM     18  H11 UNL     1      28.733   7.020  40.348  1.00  0.00     0.177 HD
ENDBRANCH  14  16
ENDBRANCH   1  14
BRANCH   8  19
HETATM   19  N4  UNL     1      19.871  10.022  38.964  1.00  0.00    -0.116 N 
HETATM   20  O2  UNL     1      19.889  10.569  37.868  1.00  0.00    -0.532 OA
HETATM   21  O3  UNL     1      18.691   9.966  39.661  1.00  0.00    -0.532 OA
ENDBRANCH   8  19
TORSDOF 3
ENDMDL
MODEL 2
REMARK VINA RESULT: -6.876152096      1.554      2.330
REMARK  3 active torsions:
REMARK  status: ('A' for Active; 'I' for Inactive)
REMARK    1  A    between atoms: N1_1  and  N2_4 
REMARK    2  A    between atoms: N2_4  and  C1_6 
REMARK    3  A    between atoms: C5_13  and  N4_14 
ROOT
HETATM    1  C1  UNL     1      25.771   7.440  40.199  1.00  0.00     0.699 A 
HETATM    2  N3  UNL     1      24.871   7.167  41.161  1.00  0.00    -0.154 N 
ATOM      3  H3  UNL     1      25.178   6.696  42.013  1.00  0.00     0.187 HD
HETATM    4  C2  UNL     1      23.578   7.501  41.027  1.00  0.00     0.272 A 
HETATM    5  O1  UNL     1      22.737   7.246  41.926  1.00  0.00    -0.267 OA
HETATM    6  C3  UNL     1      23.199   8.138  39.859  1.00  0.00     0.062 A 
HETATM    7  C4  UNL     1      21.859   8.502  39.681  1.00  0.00     0.055 A 
HETATM    8  C5  UNL     1      21.478   9.137  38.519  1.00  0.00     0.104 A 
HETATM    9  C6  UNL     1      22.412   9.415  37.529  1.00  0.00     0.038 A 
HETATM   10  C7  UNL     1      23.720   9.066  37.691  1.00  0.00     0.033 A 
HETATM   11  C8  UNL     1      24.101   8.429  38.858  1.00  0.00     0.065 A 
HETATM   12  N5  UNL     1      25.387   8.060  39.070  1.00  0.00    -0.189 N 
ATOM     13  H5  UNL     1      26.084   8.258  38.352  1.00  0.00     0.184 HD
ENDROOT
BRANCH   1  14
HETATM   14  N2  UNL     1      27.013   7.118  40.331  1.00  0.00    -0.138 N 
ATOM     15  H2  UNL     1      27.249   6.127  40.288  1.00  0.00     0.205 HD
BRANCH  14  16
HETATM   16  N1  UNL     1      28.044   8.009  40.526  1.00  0.00    -0.331 N 
ATOM     17  H12 UNL     1      28.144   8.747  39.828  1.00  0.00     0.177 HD
ATOM     18  H11 UNL     1      28.701   7.983  41.305  1.00  0.00     0.177 HD
ENDBRANCH  14  16
ENDBRANCH   1  14
BRANCH   8  19
HETATM   19  N4  UNL     1      20.103   9.503  38.349  1.00  0.00    -0.116 N 
HETATM   20  O2  UNL     1      19.589   9.501  37.238  1.00  0.00    -0.532 OA
HETATM   21  O3  UNL     1      19.345   9.864  39.434  1.00  0.00    -0.532 OA
ENDBRANCH   8  19
TORSDOF 3
ENDMDL
MODEL 3
REMARK VINA RESULT: -6.835192834      3.384      5.580
REMARK  3 active torsions:
REMARK  status: ('A' for Active; 'I' for Inactive)
REMARK    1  A    between atoms: N1_1  and  N2_4 
REMARK    2  A    between atoms: N2_4  and  C1_6 
REMARK    3  A    between atoms: C5_13  and  N4_14 
ROOT
HETATM    1  C1  UNL     1      22.946   9.207  38.461  1.00  0.00     0.699 A 
HETATM    2  N3  UNL     1      21.875   8.645  39.049  1.00  0.00    -0.154 N 
ATOM      3  H3  UNL     1      20.941   8.983  38.814  1.00  0.00     0.187 HD
HETATM    4  C2  UNL     1      22.006   7.648  39.939  1.00  0.00     0.272 A 
HETATM    5  O1  UNL     1      21.005   7.122  40.489  1.00  0.00    -0.267 OA
HETATM    6  C3  UNL     1      23.287   7.216  40.233  1.00  0.00     0.062 A 
HETATM    7  C4  UNL     1      23.466   6.179  41.156  1.00  0.00     0.055 A 
HETATM    8  C5  UNL     1      24.740   5.747  41.449  1.00  0.00     0.104 A 
HETATM    9  C6  UNL     1      25.842   6.332  40.839  1.00  0.00     0.038 A 
HETATM   10  C7  UNL     1      25.681   7.343  39.938  1.00  0.00     0.033 A 
HETATM   11  C8  UNL     1      24.401   7.776  39.643  1.00  0.00     0.065 A 
HETATM   12  N5  UNL     1      24.184   8.777  38.757  1.00  0.00    -0.189 N 
ATOM     13  H5  UNL     1      24.984   9.216  38.301  1.00  0.00     0.184 HD
ENDROOT
BRANCH   1  14
HETATM   14  N2  UNL     1      22.817  10.165  37.607  1.00  0.00    -0.138 N 
ATOM     15  H2  UNL     1      23.659  10.672  37.337  1.00  0.00     0.205 HD
BRANCH  14  16
HETATM   16  N1  UNL     1      21.628  10.555  37.032  1.00  0.00    -0.331 N 
ATOM     17  H12 UNL     1      21.229   9.920  36.340  1.00  0.00     0.177 HD
ATOM     18  H11 UNL     1      21.129  11.418  37.247  1.00  0.00     0.177 HD
ENDBRANCH  14  16
ENDBRANCH   1  14
BRANCH   8  19
HETATM   19  N4  UNL     1      24.909   4.684  42.397  1.00  0.00    -0.116 N 
HETATM   20  O2  UNL     1      25.636   3.732  42.144  1.00  0.00    -0.532 OA
HETATM   21  O3  UNL     1      24.256   4.722  43.601  1.00  0.00    -0.532 OA
ENDBRANCH   8  19
TORSDOF 3
ENDMDL
MODEL 4
REMARK VINA RESULT: -6.691485445      3.088      5.316
REMARK  3 active torsions:
REMARK  status: ('A' for Active; 'I' for Inactive)
REMARK    1  A    between atoms: N1_1  and  N2_4 
REMARK    2  A    between atoms: N2_4  and  C1_6 
REMARK    3  A    between atoms: C5_13  and  N4_14 
ROOT
HETATM    1  C1  UNL     1      22.145   9.727  37.342  1.00  0.00     0.699 A 
HETATM    2  N3  UNL     1      21.344   8.647  37.368  1.00  0.00    -0.154 N 
ATOM      3  H3  UNL     1      20.559   8.590  36.719  1.00  0.00     0.187 HD
HETATM    4  C2  UNL     1      21.554   7.640  38.231  1.00  0.00     0.272 A 
HETATM    5  O1  UNL     1      20.805   6.629  38.256  1.00  0.00    -0.267 OA
HETATM    6  C3  UNL     1      22.626   7.751  39.097  1.00  0.00     0.062 A 
HETATM    7  C4  UNL     1      22.878   6.722  40.012  1.00  0.00     0.055 A 
HETATM    8  C5  UNL     1      23.946   6.830  40.875  1.00  0.00     0.104 A 
HETATM    9  C6  UNL     1      24.769   7.948  40.843  1.00  0.00     0.038 A 
HETATM   10  C7  UNL     1      24.534   8.958  39.956  1.00  0.00     0.033 A 
HETATM   11  C8  UNL     1      23.462   8.848  39.090  1.00  0.00     0.065 A 
HETATM   12  N5  UNL     1      23.183   9.821  38.190  1.00  0.00    -0.189 N 
ATOM     13  H5  UNL     1      23.779  10.648  38.154  1.00  0.00     0.184 HD
ENDROOT
BRANCH   1  14
HETATM   14  N2  UNL     1      21.940  10.693  36.512  1.00  0.00    -0.138 N 
ATOM     15  H2  UNL     1      22.653  10.863  35.803  1.00  0.00     0.205 HD
BRANCH  14  16
HETATM   16  N1  UNL     1      20.833  11.512  36.509  1.00  0.00    -0.331 N 
ATOM     17  H12 UNL     1      20.139  11.333  35.784  1.00  0.00     0.177 HD
ATOM     18  H11 UNL     1      20.664  12.269  37.170  1.00  0.00     0.177 HD
ENDBRANCH  14  16
ENDBRANCH   1  14
BRANCH   8  19
HETATM   19  N4  UNL     1      24.192   5.770  41.807  1.00  0.00    -0.116 N 
HETATM   20  O2  UNL     1      23.464   5.610  42.779  1.00  0.00    -0.532 OA
HETATM   21  O3  UNL     1      25.251   4.919  41.622  1.00  0.00    -0.532 OA
ENDBRANCH   8  19
TORSDOF 3
ENDMDL
MODEL 5
REMARK VINA RESULT: -6.537790350      2.615      5.653
REMARK  3 active torsions:
REMARK  status: ('A' for Active; 'I' for Inactive)
REMARK    1  A    between atoms: N1_1  and  N2_4 
REMARK    2  A    between atoms: N2_4  and  C1_6 
REMARK    3  A    between atoms: C5_13  and  N4_14 
ROOT
HETATM    1  C1  UNL     1      21.835   7.864  38.543  1.00  0.00     0.699 A 
HETATM    2  N3  UNL     1      22.509   8.959  38.148  1.00  0.00    -0.154 N 
ATOM      3  H3  UNL     1      22.033   9.660  37.580  1.00  0.00     0.187 HD
HETATM    4  C2  UNL     1      23.794   9.150  38.485  1.00  0.00     0.272 A 
HETATM    5  O1  UNL     1      24.425  10.174  38.115  1.00  0.00    -0.267 OA
HETATM    6  C3  UNL     1      24.406   8.179  39.255  1.00  0.00     0.062 A 
HETATM    7  C4  UNL     1      25.746   8.341  39.627  1.00  0.00     0.055 A 
HETATM    8  C5  UNL     1      26.358   7.376  40.395  1.00  0.00     0.104 A 
HETATM    9  C6  UNL     1      25.657   6.247  40.799  1.00  0.00     0.038 A 
HETATM   10  C7  UNL     1      24.351   6.077  40.444  1.00  0.00     0.033 A 
HETATM   11  C8  UNL     1      23.738   7.047  39.673  1.00  0.00     0.065 A 
HETATM   12  N5  UNL     1      22.444   6.928  39.292  1.00  0.00    -0.189 N 
ATOM     13  H5  UNL     1      21.916   6.105  39.581  1.00  0.00     0.184 HD
ENDROOT
BRANCH   1  14
HETATM   14  N2  UNL     1      20.600   7.683  38.218  1.00  0.00    -0.138 N 
ATOM     15  H2  UNL     1      20.225   6.739  38.303  1.00  0.00     0.205 HD
BRANCH  14  16
HETATM   16  N1  UNL     1      19.750   8.666  37.765  1.00  0.00    -0.331 N 
ATOM     17  H12 UNL     1      19.509   8.637  36.774  1.00  0.00     0.177 HD
ATOM     18  H11 UNL     1      19.352   9.407  38.342  1.00  0.00     0.177 HD
ENDBRANCH  14  16
ENDBRANCH   1  14
BRANCH   8  19
HETATM   19  N4  UNL     1      27.730   7.554  40.767  1.00  0.00    -0.116 N 
HETATM   20  O2  UNL     1      28.326   8.586  40.481  1.00  0.00    -0.532 OA
HETATM   21  O3  UNL     1      28.395   6.569  41.451  1.00  0.00    -0.532 OA
ENDBRANCH   8  19
TORSDOF 3
ENDMDL
