MODEL 1
REMARK VINA RESULT: -6.135371412      0.000      0.000
REMARK  2 active torsions:
REMARK  status: ('A' for Active; 'I' for Inactive)
REMARK    1  A    between atoms: N1_1  and  C1_4 
REMARK    2  A    between atoms: C3_9  and  N3_10 
ROOT
HETATM    1  C1  UNL     1      20.957   9.222  39.250  1.00  0.00     0.700 A 
HETATM    2  N2  UNL     1      21.276   8.720  40.451  1.00  0.00    -0.152 N 
ATOM      3  H2  UNL     1      20.546   8.653  41.160  1.00  0.00     0.187 HD
HETATM    4  C2  UNL     1      22.514   8.302  40.761  1.00  0.00     0.295 A 
HETATM    5  O1  UNL     1      22.817   7.835  41.875  1.00  0.00    -0.265 OA
HETATM    6  C3  UNL     1      23.505   8.398  39.778  1.00  0.00     0.203 A 
HETATM    7  C4  UNL     1      23.154   8.909  38.569  1.00  0.00     0.158 A 
HETATM    8  N4  UNL     1      21.885   9.327  38.285  1.00  0.00    -0.085 N 
HETATM    9  N5  UNL     1      21.601   9.845  37.030  1.00  0.00    -0.315 N 
ATOM     10  H5  UNL     1      20.781  10.447  36.948  1.00  0.00     0.181 HD
HETATM   11  C5  UNL     1      22.367   9.604  35.829  1.00  0.00     0.148 C 
HETATM   12  C6  UNL     1      23.684   8.971  36.078  1.00  0.00     0.106 C 
HETATM   13  C7  UNL     1      24.126   9.010  37.503  1.00  0.00     0.182 C 
HETATM   14  O4  UNL     1      25.327   9.128  37.775  1.00  0.00    -0.291 OA
ENDROOT
BRANCH   1  15
HETATM   15  N1  UNL     1      19.735   9.622  38.985  1.00  0.00    -0.233 N 
ATOM     16  H12 UNL     1      18.995   8.920  38.943  1.00  0.00     0.174 HD
ATOM     17  H11 UNL     1      19.525  10.607  38.827  1.00  0.00     0.174 HD
ENDBRANCH   1  15
BRANCH   6  18
HETATM   18  N3  UNL     1      24.803   7.985  40.116  1.00  0.00    -0.107 N 
HETATM   19  O2  UNL     1      25.150   6.811  39.949  1.00  0.00    -0.531 OA
HETATM   20  O3  UNL     1      25.701   8.868  40.636  1.00  0.00    -0.531 OA
ENDBRANCH   6  18
TORSDOF 2
ENDMDL
MODEL 2
REMARK VINA RESULT: -6.077069300      0.994      3.431
REMARK  2 active torsions:
REMARK  status: ('A' for Active; 'I' for Inactive)
REMARK    1  A    between atoms: N1_1  and  C1_4 
REMARK    2  A    between atoms: C3_9  and  N3_10 
ROOT
HETATM    1  C1  UNL     1      22.112   9.414  37.381  1.00  0.00     0.700 A 
HETATM    2  N2  UNL     1      23.385   9.375  36.965  1.00  0.00    -0.152 N 
ATOM      3  H2  UNL     1      23.585   9.595  35.989  1.00  0.00     0.187 HD
HETATM    4  C2  UNL     1      24.409   9.062  37.776  1.00  0.00     0.295 A 
HETATM    5  O1  UNL     1      25.593   9.025  37.395  1.00  0.00    -0.265 OA
HETATM    6  C3  UNL     1      24.121   8.766  39.112  1.00  0.00     0.203 A 
HETATM    7  C4  UNL     1      22.821   8.814  39.508  1.00  0.00     0.158 A 
HETATM    8  N4  UNL     1      21.802   9.135  38.658  1.00  0.00    -0.085 N 
HETATM    9  N5  UNL     1      20.499   9.157  39.131  1.00  0.00    -0.315 N 
ATOM     10  H5  UNL     1      19.751   9.058  38.444  1.00  0.00     0.181 HD
HETATM   11  C5  UNL     1      20.109   9.307  40.514  1.00  0.00     0.148 C 
HETATM   12  C6  UNL     1      21.233   9.152  41.470  1.00  0.00     0.106 C 
HETATM   13  C7  UNL     1      22.462   8.543  40.882  1.00  0.00     0.182 C 
HETATM   14  O4  UNL     1      23.176   7.805  41.571  1.00  0.00    -0.291 OA
ENDROOT
BRANCH   1  15
HETATM   15  N1  UNL     1      21.138   9.724  36.557  1.00  0.00    -0.233 N 
ATOM     16  H12 UNL     1      20.837  10.697  36.509  1.00  0.00     0.174 HD
ATOM     17  H11 UNL     1      20.692   9.014  35.977  1.00  0.00     0.174 HD
ENDBRANCH   1  15
BRANCH   6  18
HETATM   18  N3  UNL     1      25.191   8.413  39.948  1.00  0.00    -0.107 N 
HETATM   19  O2  UNL     1      25.733   9.262  40.664  1.00  0.00    -0.531 OA
HETATM   20  O3  UNL     1      25.652   7.131  39.985  1.00  0.00    -0.531 OA
ENDBRANCH   6  18
TORSDOF 2
ENDMDL
MODEL 3
REMARK VINA RESULT: -6.035501612      2.721      5.572
REMARK  2 active torsions:
REMARK  status: ('A' for Active; 'I' for Inactive)
REMARK    1  A    between atoms: N1_1  and  C1_4 
REMARK    2  A    between atoms: C3_9  and  N3_10 
ROOT
HETATM    1  C1  UNL     1      26.620   7.754  40.321  1.00  0.00     0.700 A 
HETATM    2  N2  UNL     1      25.956   8.700  39.644  1.00  0.00    -0.152 N 
ATOM      3  H2  UNL     1      26.492   9.371  39.094  1.00  0.00     0.187 HD
HETATM    4  C2  UNL     1      24.617   8.803  39.656  1.00  0.00     0.295 A 
HETATM    5  O1  UNL     1      23.995   9.679  39.028  1.00  0.00    -0.265 OA
HETATM    6  C3  UNL     1      23.895   7.874  40.411  1.00  0.00     0.203 A 
HETATM    7  C4  UNL     1      24.592   6.923  41.088  1.00  0.00     0.158 A 
HETATM    8  N4  UNL     1      25.955   6.846  41.056  1.00  0.00    -0.085 N 
HETATM    9  N5  UNL     1      26.601   5.854  41.778  1.00  0.00    -0.315 N 
ATOM     10  H5  UNL     1      27.580   6.012  42.017  1.00  0.00     0.181 HD
HETATM   11  C5  UNL     1      26.005   4.614  42.220  1.00  0.00     0.148 C 
HETATM   12  C6  UNL     1      24.528   4.584  42.092  1.00  0.00     0.106 C 
HETATM   13  C7  UNL     1      23.902   5.920  41.867  1.00  0.00     0.182 C 
HETATM   14  O4  UNL     1      22.789   6.170  42.345  1.00  0.00    -0.291 OA
ENDROOT
BRANCH   1  15
HETATM   15  N1  UNL     1      27.931   7.687  40.285  1.00  0.00    -0.233 N 
ATOM     16  H12 UNL     1      28.409   8.011  39.445  1.00  0.00     0.174 HD
ATOM     17  H11 UNL     1      28.462   7.321  41.076  1.00  0.00     0.174 HD
ENDBRANCH   1  15
BRANCH   6  18
HETATM   18  N3  UNL     1      22.498   8.002  40.442  1.00  0.00    -0.107 N 
HETATM   19  O2  UNL     1      21.956   8.765  41.250  1.00  0.00    -0.531 OA
HETATM   20  O3  UNL     1      21.713   7.287  39.587  1.00  0.00    -0.531 OA
ENDBRANCH   6  18
TORSDOF 2
ENDMDL
MODEL 4
REMARK VINA RESULT: -5.911591190      3.148      5.027
REMARK  2 active torsions:
REMARK  status: ('A' for Active; 'I' for Inactive)
REMARK    1  A    between atoms: N1_1  and  C1_4 
REMARK    2  A    between atoms: C3_9  and  N3_10 
ROOT
HETATM    1  C1  UNL     1      23.777   8.588  37.727  1.00  0.00     0.700 A 
HETATM    2  N2  UNL     1      23.301   8.062  36.591  1.00  0.00    -0.152 N 
ATOM      3  H2  UNL     1      23.965   7.713  35.900  1.00  0.00     0.187 HD
HETATM    4  C2  UNL     1      21.988   7.974  36.321  1.00  0.00     0.295 A 
HETATM    5  O1  UNL     1      21.539   7.487  35.268  1.00  0.00    -0.265 OA
HETATM    6  C3  UNL     1      21.088   8.455  37.278  1.00  0.00     0.203 A 
HETATM    7  C4  UNL     1      21.598   8.983  38.423  1.00  0.00     0.158 A 
HETATM    8  N4  UNL     1      22.939   9.058  38.666  1.00  0.00    -0.085 N 
HETATM    9  N5  UNL     1      23.388   9.616  39.854  1.00  0.00    -0.315 N 
ATOM     10  H5  UNL     1      24.344   9.970  39.872  1.00  0.00     0.181 HD
HETATM   11  C5  UNL     1      22.615   9.739  41.069  1.00  0.00     0.148 C 
HETATM   12  C6  UNL     1      21.168   9.475  40.884  1.00  0.00     0.106 C 
HETATM   13  C7  UNL     1      20.719   9.473  39.461  1.00  0.00     0.182 C 
HETATM   14  O4  UNL     1      19.593   9.891  39.167  1.00  0.00    -0.291 OA
ENDROOT
BRANCH   1  15
HETATM   15  N1  UNL     1      25.069   8.657  37.954  1.00  0.00    -0.233 N 
ATOM     16  H12 UNL     1      25.437   9.497  38.402  1.00  0.00     0.174 HD
ATOM     17  H11 UNL     1      25.691   7.894  37.692  1.00  0.00     0.174 HD
ENDBRANCH   1  15
BRANCH   6  18
HETATM   18  N3  UNL     1      19.719   8.386  36.980  1.00  0.00    -0.107 N 
HETATM   19  O2  UNL     1      19.051   7.405  37.324  1.00  0.00    -0.531 OA
HETATM   20  O3  UNL     1      19.101   9.396  36.305  1.00  0.00    -0.531 OA
ENDBRANCH   6  18
TORSDOF 2
ENDMDL
MODEL 5
REMARK VINA RESULT: -5.887408565      2.755      4.965
REMARK  2 active torsions:
REMARK  status: ('A' for Active; 'I' for Inactive)
REMARK    1  A    between atoms: N1_1  and  C1_4 
REMARK    2  A    between atoms: C3_9  and  N3_10 
ROOT
HETATM    1  C1  UNL     1      23.715   8.981  37.500  1.00  0.00     0.700 A 
HETATM    2  N2  UNL     1      22.905   9.406  36.522  1.00  0.00    -0.152 N 
ATOM      3  H2  UNL     1      23.295   9.538  35.589  1.00  0.00     0.187 HD
HETATM    4  C2  UNL     1      21.601   9.666  36.716  1.00  0.00     0.295 A 
HETATM    5  O1  UNL     1      20.843  10.061  35.812  1.00  0.00    -0.265 OA
HETATM    6  C3  UNL     1      21.079   9.478  37.999  1.00  0.00     0.203 A 
HETATM    7  C4  UNL     1      21.923   9.044  38.973  1.00  0.00     0.158 A 
HETATM    8  N4  UNL     1      23.245   8.790  38.743  1.00  0.00    -0.085 N 
HETATM    9  N5  UNL     1      24.048   8.356  39.787  1.00  0.00    -0.315 N 
ATOM     10  H5  UNL     1      25.054   8.500  39.692  1.00  0.00     0.181 HD
HETATM   11  C5  UNL     1      23.583   7.718  40.997  1.00  0.00     0.148 C 
HETATM   12  C6  UNL     1      22.116   7.807  41.191  1.00  0.00     0.106 C 
HETATM   13  C7  UNL     1      21.438   8.807  40.314  1.00  0.00     0.182 C 
HETATM   14  O4  UNL     1      20.458   9.433  40.734  1.00  0.00    -0.291 OA
ENDROOT
BRANCH   1  15
HETATM   15  N1  UNL     1      24.986   8.739  37.271  1.00  0.00    -0.233 N 
ATOM     16  H12 UNL     1      25.516   9.417  36.724  1.00  0.00     0.174 HD
ATOM     17  H11 UNL     1      25.435   7.896  37.630  1.00  0.00     0.174 HD
ENDBRANCH   1  15
BRANCH   6  18
HETATM   18  N3  UNL     1      19.723   9.776  38.203  1.00  0.00    -0.107 N 
HETATM   19  O2  UNL     1      18.860   8.905  38.050  1.00  0.00    -0.531 OA
HETATM   20  O3  UNL     1      19.333  11.029  38.571  1.00  0.00    -0.531 OA
ENDBRANCH   6  18
TORSDOF 2
ENDMDL
