MODEL 1
REMARK VINA RESULT: -7.234815376      0.000      0.000
REMARK  2 active torsions:
REMARK  status: ('A' for Active; 'I' for Inactive)
REMARK    1  A    between atoms: C3_4  and  C4_5 
REMARK    2  A    between atoms: N2_7  and  N3_8 
ROOT
HETATM    1  C4  UNL     1      22.546   8.352  39.743  1.00  0.00     0.060 A 
HETATM    2  C5  UNL     1      22.251   8.535  38.399  1.00  0.00     0.138 A 
HETATM    3  N2  UNL     1      21.152   9.186  37.977  1.00  0.00    -0.222 N 
HETATM    4  C6  UNL     1      20.316   9.672  38.912  1.00  0.00     0.347 A 
HETATM    5  O1  UNL     1      19.286  10.282  38.515  1.00  0.00    -0.245 OA
HETATM    6  N4  UNL     1      20.547   9.527  40.230  1.00  0.00    -0.273 N 
ATOM      7  H4  UNL     1      19.890   9.910  40.909  1.00  0.00     0.173 HD
HETATM    8  C7  UNL     1      21.651   8.873  40.654  1.00  0.00     0.261 A 
HETATM    9  O2  UNL     1      21.893   8.722  41.879  1.00  0.00    -0.267 OA
ENDROOT
BRANCH   1  10
HETATM   10  C3  UNL     1      23.757   7.636  40.163  1.00  0.00    -0.015 A 
HETATM   11  C2  UNL     1      24.995   8.245  40.137  1.00  0.00     0.057 A 
HETATM   12  C1  UNL     1      26.156   7.625  40.517  1.00  0.00     0.116 A 
HETATM   13  N1  UNL     1      27.427   8.253  40.490  1.00  0.00    -0.083 NA
HETATM   14  N5  UNL     1      26.072   6.342  40.939  1.00  0.00    -0.355 N 
HETATM   15  C9  UNL     1      24.895   5.690  40.988  1.00  0.00     0.090 A 
ATOM     16  H5  UNL     1      26.922   5.856  41.228  1.00  0.00     0.166 HD
HETATM   17  C8  UNL     1      23.716   6.329  40.600  1.00  0.00     0.029 A 
ENDBRANCH   1  10
BRANCH   3  18
HETATM   18  N3  UNL     1      20.899   9.345  36.616  1.00  0.00    -0.335 N 
ATOM     19  H32 UNL     1      21.453   8.863  35.908  1.00  0.00     0.177 HD
ATOM     20  H31 UNL     1      20.146   9.953  36.294  1.00  0.00     0.177 HD
ENDBRANCH   3  18
TORSDOF 2
ENDMDL
MODEL 2
REMARK VINA RESULT: -6.815276307      1.615      2.120
REMARK  2 active torsions:
REMARK  status: ('A' for Active; 'I' for Inactive)
REMARK    1  A    between atoms: C3_4  and  C4_5 
REMARK    2  A    between atoms: N2_7  and  N3_8 
ROOT
HETATM    1  C4  UNL     1      23.019   8.529  38.956  1.00  0.00     0.060 A 
HETATM    2  C5  UNL     1      21.782   8.719  39.557  1.00  0.00     0.138 A 
HETATM    3  N2  UNL     1      20.781   9.396  38.966  1.00  0.00    -0.222 N 
HETATM    4  C6  UNL     1      21.008   9.903  37.741  1.00  0.00     0.347 A 
HETATM    5  O1  UNL     1      20.069  10.537  37.188  1.00  0.00    -0.245 OA
HETATM    6  N4  UNL     1      22.185   9.753  37.106  1.00  0.00    -0.273 N 
ATOM      7  H4  UNL     1      22.319  10.152  36.177  1.00  0.00     0.173 HD
HETATM    8  C7  UNL     1      23.190   9.072  37.700  1.00  0.00     0.261 A 
HETATM    9  O2  UNL     1      24.301   8.916  37.131  1.00  0.00    -0.267 OA
ENDROOT
BRANCH   1  10
HETATM   10  C3  UNL     1      24.085   7.784  39.634  1.00  0.00    -0.015 A 
HETATM   11  C2  UNL     1      25.349   8.318  39.787  1.00  0.00     0.057 A 
HETATM   12  C1  UNL     1      26.380   7.667  40.411  1.00  0.00     0.116 A 
HETATM   13  N1  UNL     1      27.677   8.218  40.566  1.00  0.00    -0.083 NA
HETATM   14  N5  UNL     1      26.135   6.430  40.902  1.00  0.00    -0.355 N 
HETATM   15  C9  UNL     1      24.925   5.852  40.786  1.00  0.00     0.090 A 
ATOM     16  H5  UNL     1      26.886   5.923  41.372  1.00  0.00     0.166 HD
HETATM   17  C8  UNL     1      23.878   6.521  40.150  1.00  0.00     0.029 A 
ENDBRANCH   1  10
BRANCH   3  18
HETATM   18  N3  UNL     1      19.556   9.561  39.610  1.00  0.00    -0.335 N 
ATOM     19  H32 UNL     1      19.464  10.140  40.445  1.00  0.00     0.177 HD
ATOM     20  H31 UNL     1      18.716   9.101  39.257  1.00  0.00     0.177 HD
ENDBRANCH   3  18
TORSDOF 2
ENDMDL
MODEL 3
REMARK VINA RESULT: -6.797594661      0.916      1.784
REMARK  2 active torsions:
REMARK  status: ('A' for Active; 'I' for Inactive)
REMARK    1  A    between atoms: C3_4  and  C4_5 
REMARK    2  A    between atoms: N2_7  and  N3_8 
ROOT
HETATM    1  C4  UNL     1      22.665   8.338  39.399  1.00  0.00     0.060 A 
HETATM    2  C5  UNL     1      22.076   7.888  38.226  1.00  0.00     0.138 A 
HETATM    3  N2  UNL     1      20.950   8.426  37.723  1.00  0.00    -0.222 N 
HETATM    4  C6  UNL     1      20.386   9.442  38.402  1.00  0.00     0.347 A 
HETATM    5  O1  UNL     1      19.330   9.945  37.929  1.00  0.00    -0.245 OA
HETATM    6  N4  UNL     1      20.909   9.922  39.544  1.00  0.00    -0.273 N 
ATOM      7  H4  UNL     1      20.452  10.694  40.030  1.00  0.00     0.173 HD
HETATM    8  C7  UNL     1      22.040   9.382  40.049  1.00  0.00     0.261 A 
HETATM    9  O2  UNL     1      22.551   9.811  41.115  1.00  0.00    -0.267 OA
ENDROOT
BRANCH   1  10
HETATM   10  C3  UNL     1      23.895   7.725  39.914  1.00  0.00    -0.015 A 
HETATM   11  C2  UNL     1      23.862   6.544  40.628  1.00  0.00     0.057 A 
HETATM   12  C1  UNL     1      24.978   5.928  41.131  1.00  0.00     0.116 A 
HETATM   13  N1  UNL     1      24.942   4.715  41.864  1.00  0.00    -0.083 NA
HETATM   14  N5  UNL     1      26.175   6.521  40.909  1.00  0.00    -0.355 N 
HETATM   15  C9  UNL     1      26.275   7.673  40.221  1.00  0.00     0.090 A 
ATOM     16  H5  UNL     1      27.022   6.083  41.273  1.00  0.00     0.166 HD
HETATM   17  C8  UNL     1      25.134   8.294  39.711  1.00  0.00     0.029 A 
ENDBRANCH   1  10
BRANCH   3  18
HETATM   18  N3  UNL     1      20.395   7.940  36.541  1.00  0.00    -0.335 N 
ATOM     19  H32 UNL     1      20.336   6.939  36.349  1.00  0.00     0.177 HD
ATOM     20  H31 UNL     1      20.033   8.579  35.833  1.00  0.00     0.177 HD
ENDBRANCH   3  18
TORSDOF 2
ENDMDL
MODEL 4
REMARK VINA RESULT: -6.379585773      1.167      1.916
REMARK  2 active torsions:
REMARK  status: ('A' for Active; 'I' for Inactive)
REMARK    1  A    between atoms: C3_4  and  C4_5 
REMARK    2  A    between atoms: N2_7  and  N3_8 
ROOT
HETATM    1  C4  UNL     1      22.002   8.962  39.073  1.00  0.00     0.060 A 
HETATM    2  C5  UNL     1      21.960   9.273  37.721  1.00  0.00     0.138 A 
HETATM    3  N2  UNL     1      20.868   9.781  37.123  1.00  0.00    -0.222 N 
HETATM    4  C6  UNL     1      19.778   9.988  37.885  1.00  0.00     0.347 A 
HETATM    5  O1  UNL     1      18.754  10.464  37.324  1.00  0.00    -0.245 OA
HETATM    6  N4  UNL     1      19.756   9.706  39.201  1.00  0.00    -0.273 N 
ATOM      7  H4  UNL     1      18.911   9.878  39.745  1.00  0.00     0.173 HD
HETATM    8  C7  UNL     1      20.854   9.197  39.801  1.00  0.00     0.261 A 
HETATM    9  O2  UNL     1      20.863   8.924  41.028  1.00  0.00    -0.267 OA
ENDROOT
BRANCH   1  10
HETATM   10  C3  UNL     1      23.215   8.410  39.687  1.00  0.00    -0.015 A 
HETATM   11  C2  UNL     1      23.400   7.047  39.810  1.00  0.00     0.057 A 
HETATM   12  C1  UNL     1      24.511   6.479  40.375  1.00  0.00     0.116 A 
HETATM   13  N1  UNL     1      24.699   5.079  40.499  1.00  0.00    -0.083 NA
HETATM   14  N5  UNL     1      25.476   7.309  40.834  1.00  0.00    -0.355 N 
HETATM   15  C9  UNL     1      25.357   8.647  40.744  1.00  0.00     0.090 A 
ATOM     16  H5  UNL     1      26.314   6.911  41.258  1.00  0.00     0.166 HD
HETATM   17  C8  UNL     1      24.222   9.220  40.168  1.00  0.00     0.029 A 
ENDBRANCH   1  10
BRANCH   3  18
HETATM   18  N3  UNL     1      20.874  10.078  35.762  1.00  0.00    -0.335 N 
ATOM     19  H32 UNL     1      21.700   9.920  35.183  1.00  0.00     0.177 HD
ATOM     20  H31 UNL     1      20.046  10.464  35.308  1.00  0.00     0.177 HD
ENDBRANCH   3  18
TORSDOF 2
ENDMDL
MODEL 5
REMARK VINA RESULT: -6.293773116      1.386      1.654
REMARK  2 active torsions:
REMARK  status: ('A' for Active; 'I' for Inactive)
REMARK    1  A    between atoms: C3_4  and  C4_5 
REMARK    2  A    between atoms: N2_7  and  N3_8 
ROOT
HETATM    1  C4  UNL     1      21.716   9.154  38.854  1.00  0.00     0.060 A 
HETATM    2  C5  UNL     1      21.924   9.386  37.501  1.00  0.00     0.138 A 
HETATM    3  N2  UNL     1      21.047  10.058  36.733  1.00  0.00    -0.222 N 
HETATM    4  C6  UNL     1      19.926  10.515  37.321  1.00  0.00     0.347 A 
HETATM    5  O1  UNL     1      19.104  11.145  36.600  1.00  0.00    -0.245 OA
HETATM    6  N4  UNL     1      19.668  10.323  38.627  1.00  0.00    -0.273 N 
ATOM      7  H4  UNL     1      18.807  10.685  39.036  1.00  0.00     0.173 HD
HETATM    8  C7  UNL     1      20.550   9.649  39.398  1.00  0.00     0.261 A 
HETATM    9  O2  UNL     1      20.335   9.453  40.621  1.00  0.00    -0.267 OA
ENDROOT
BRANCH   1  10
HETATM   10  C3  UNL     1      22.699   8.418  39.656  1.00  0.00    -0.015 A 
HETATM   11  C2  UNL     1      24.014   8.831  39.736  1.00  0.00     0.057 A 
HETATM   12  C1  UNL     1      24.972   8.181  40.469  1.00  0.00     0.116 A 
HETATM   13  N1  UNL     1      26.322   8.608  40.550  1.00  0.00    -0.083 NA
HETATM   14  N5  UNL     1      24.597   7.073  41.149  1.00  0.00    -0.355 N 
HETATM   15  C9  UNL     1      23.331   6.617  41.113  1.00  0.00     0.090 A 
ATOM     16  H5  UNL     1      25.291   6.570  41.704  1.00  0.00     0.166 HD
HETATM   17  C8  UNL     1      22.360   7.284  40.365  1.00  0.00     0.029 A 
ENDBRANCH   1  10
BRANCH   3  18
HETATM   18  N3  UNL     1      21.299  10.266  35.379  1.00  0.00    -0.335 N 
ATOM     19  H32 UNL     1      21.478   9.488  34.743  1.00  0.00     0.177 HD
ATOM     20  H31 UNL     1      21.311  11.208  34.990  1.00  0.00     0.177 HD
ENDBRANCH   3  18
TORSDOF 2
ENDMDL
