MODEL 1
REMARK VINA RESULT: -7.741972195      0.000      0.000
REMARK  6 active torsions:
REMARK  status: ('A' for Active; 'I' for Inactive)
REMARK    1  A    between atoms: C3_3  and  C4_4 
REMARK    2  A    between atoms: C5_5  and  C6_6 
REMARK    3  A    between atoms: C6_6  and  N1_8 
REMARK    4  A    between atoms: C6_6  and  C8_12 
REMARK       I    between atoms: N3_17  and  C12_19 
REMARK    5  A    between atoms: C12_19  and  C13_21 
REMARK    6  A    between atoms: C13_21  and  N4_22 
REMARK       I    between atoms: N4_22  and  C14_24 
ROOT
HETATM    1  C1  UNL     1       3.400  10.117   5.537  1.00  0.00     0.113 C 
HETATM    2  C2  UNL     1       4.820   9.937   5.209  1.00  0.00    -0.097 C 
HETATM    3  C3  UNL     1       5.983   9.784   4.918  1.00  0.00    -0.015 C 
ENDROOT
BRANCH   3   4
HETATM    4  C4  UNL     1       7.342   9.585   4.567  1.00  0.00    -0.013 C 
HETATM    5  C5  UNL     1       8.497   9.426   4.249  1.00  0.00    -0.051 C 
BRANCH   5   6
HETATM    6  C6  UNL     1       9.918   9.233   3.832  1.00  0.00     0.205 C 
HETATM    7  C7  UNL     1      10.262   7.761   3.839  1.00  0.00     0.063 C 
BRANCH   6   8
HETATM    8  N1  UNL     1      10.711   9.897   4.828  1.00  0.00    -0.058 N 
ATOM      9  H13 UNL     1      10.909   9.318   5.645  1.00  0.00     0.276 HD
ATOM     10  H12 UNL     1      11.681  10.046   4.546  1.00  0.00     0.276 HD
ATOM     11  H11 UNL     1      10.214  10.758   5.050  1.00  0.00     0.276 HD
ENDBRANCH   6   8
BRANCH   6  12
HETATM   12  C8  UNL     1      10.049   9.893   2.520  1.00  0.00     0.168 C 
HETATM   13  C9  UNL     1       9.077   9.463   1.483  1.00  0.00     0.170 C 
HETATM   14  N2  UNL     1       9.642   9.921   0.243  1.00  0.00    -0.220 N 
HETATM   15  C10 UNL     1       8.989  10.043  -1.051  1.00  0.00     0.168 C 
HETATM   16  C11 UNL     1      11.030  10.251   0.522  1.00  0.00     0.680 C 
HETATM   17  N3  UNL     1      11.776  10.862  -0.310  1.00  0.00    -0.158 N 
HETATM   18  N5  UNL     1      11.315   9.755   1.842  1.00  0.00    -0.212 N 
HETATM   19  C12 UNL     1      13.110  11.198  -0.081  1.00  0.00     0.253 C 
ATOM     20  H3  UNL     1      11.368  11.124  -1.207  1.00  0.00     0.187 HD
HETATM   21  O1  UNL     1      14.010  10.356  -0.392  1.00  0.00    -0.271 OA
HETATM   22  C16 UNL     1      12.593   9.260   2.283  1.00  0.00     0.169 C 
BRANCH  19  23
HETATM   23  C13 UNL     1      13.477  12.522   0.515  1.00  0.00     0.226 C 
BRANCH  23  24
HETATM   24  N4  UNL     1      13.109  13.547  -0.411  1.00  0.00    -0.353 N 
HETATM   25  C14 UNL     1      14.022  14.002  -1.397  1.00  0.00     0.213 C 
HETATM   26  C15 UNL     1      13.660  15.069  -2.372  1.00  0.00     0.117 C 
HETATM   27  O2  UNL     1      15.158  13.488  -1.440  1.00  0.00    -0.274 OA
ATOM     28  H4  UNL     1      12.176  13.957  -0.362  1.00  0.00     0.162 HD
ENDBRANCH  23  24
ENDBRANCH  19  23
ENDBRANCH   6  12
ENDBRANCH   5   6
ENDBRANCH   3   4
TORSDOF 6
ENDMDL
MODEL 2
REMARK VINA RESULT: -7.255399157      3.401      4.895
REMARK  6 active torsions:
REMARK  status: ('A' for Active; 'I' for Inactive)
REMARK    1  A    between atoms: C3_3  and  C4_4 
REMARK    2  A    between atoms: C5_5  and  C6_6 
REMARK    3  A    between atoms: C6_6  and  N1_8 
REMARK    4  A    between atoms: C6_6  and  C8_12 
REMARK       I    between atoms: N3_17  and  C12_19 
REMARK    5  A    between atoms: C12_19  and  C13_21 
REMARK    6  A    between atoms: C13_21  and  N4_22 
REMARK       I    between atoms: N4_22  and  C14_24 
ROOT
HETATM    1  C1  UNL     1       7.298  10.427  -2.530  1.00  0.00     0.113 C 
HETATM    2  C2  UNL     1       8.306  10.252  -1.476  1.00  0.00    -0.097 C 
HETATM    3  C3  UNL     1       9.119  10.106  -0.594  1.00  0.00    -0.015 C 
ENDROOT
BRANCH   3   4
HETATM    4  C4  UNL     1      10.063   9.952   0.453  1.00  0.00    -0.013 C 
HETATM    5  C5  UNL     1      10.850   9.820   1.360  1.00  0.00    -0.051 C 
BRANCH   5   6
HETATM    6  C6  UNL     1      11.806   9.667   2.496  1.00  0.00     0.205 C 
HETATM    7  C7  UNL     1      11.182   8.825   3.586  1.00  0.00     0.063 C 
BRANCH   6   8
HETATM    8  N1  UNL     1      12.024  10.992   3.005  1.00  0.00    -0.058 N 
ATOM      9  H13 UNL     1      12.425  11.632   2.319  1.00  0.00     0.276 HD
ATOM     10  H12 UNL     1      11.162  11.513   3.169  1.00  0.00     0.276 HD
ATOM     11  H11 UNL     1      12.597  10.878   3.841  1.00  0.00     0.276 HD
ENDBRANCH   6   8
BRANCH   6  12
HETATM   12  C8  UNL     1      13.042   9.111   1.916  1.00  0.00     0.168 C 
HETATM   13  C9  UNL     1      14.031   8.584   2.891  1.00  0.00     0.170 C 
HETATM   14  N2  UNL     1      15.257   8.483   2.146  1.00  0.00    -0.220 N 
HETATM   15  C10 UNL     1      16.466   7.758   2.501  1.00  0.00     0.168 C 
HETATM   16  C11 UNL     1      15.066   9.263   0.934  1.00  0.00     0.680 C 
HETATM   17  N3  UNL     1      15.886   9.239  -0.039  1.00  0.00    -0.158 N 
HETATM   18  N5  UNL     1      13.840   9.997   1.104  1.00  0.00    -0.212 N 
HETATM   19  C12 UNL     1      15.740   9.969  -1.218  1.00  0.00     0.253 C 
ATOM     20  H3  UNL     1      16.709   8.643   0.050  1.00  0.00     0.187 HD
HETATM   21  O1  UNL     1      16.222  11.145  -1.268  1.00  0.00    -0.271 OA
HETATM   22  C16 UNL     1      13.572  11.300   0.554  1.00  0.00     0.169 C 
BRANCH  19  23
HETATM   23  C13 UNL     1      15.034   9.383  -2.402  1.00  0.00     0.226 C 
BRANCH  23  24
HETATM   24  N4  UNL     1      14.379  10.443  -3.102  1.00  0.00    -0.353 N 
HETATM   25  C14 UNL     1      14.651  10.689  -4.474  1.00  0.00     0.213 C 
HETATM   26  C15 UNL     1      13.981  11.788  -5.224  1.00  0.00     0.117 C 
HETATM   27  O2  UNL     1      15.476   9.958  -5.058  1.00  0.00    -0.274 OA
ATOM     28  H4  UNL     1      13.707  11.031  -2.610  1.00  0.00     0.162 HD
ENDBRANCH  23  24
ENDBRANCH  19  23
ENDBRANCH   6  12
ENDBRANCH   5   6
ENDBRANCH   3   4
TORSDOF 6
ENDMDL
MODEL 3
REMARK VINA RESULT: -7.196195396      3.448      5.116
REMARK  6 active torsions:
REMARK  status: ('A' for Active; 'I' for Inactive)
REMARK    1  A    between atoms: C3_3  and  C4_4 
REMARK    2  A    between atoms: C5_5  and  C6_6 
REMARK    3  A    between atoms: C6_6  and  N1_8 
REMARK    4  A    between atoms: C6_6  and  C8_12 
REMARK       I    between atoms: N3_17  and  C12_19 
REMARK    5  A    between atoms: C12_19  and  C13_21 
REMARK    6  A    between atoms: C13_21  and  N4_22 
REMARK       I    between atoms: N4_22  and  C14_24 
ROOT
HETATM    1  C1  UNL     1       6.923  10.474  -2.558  1.00  0.00     0.113 C 
HETATM    2  C2  UNL     1       7.971  10.342  -1.538  1.00  0.00    -0.097 C 
HETATM    3  C3  UNL     1       8.848  10.243  -0.712  1.00  0.00    -0.015 C 
ENDROOT
BRANCH   3   4
HETATM    4  C4  UNL     1       9.891  10.115   0.241  1.00  0.00    -0.013 C 
HETATM    5  C5  UNL     1      10.793  10.003   1.036  1.00  0.00    -0.051 C 
BRANCH   5   6
HETATM    6  C6  UNL     1      11.922   9.852   2.002  1.00  0.00     0.205 C 
HETATM    7  C7  UNL     1      11.635   8.716   2.958  1.00  0.00     0.063 C 
BRANCH   6   8
HETATM    8  N1  UNL     1      11.967  11.080   2.746  1.00  0.00    -0.058 N 
ATOM      9  H13 UNL     1      12.724  11.701   2.462  1.00  0.00     0.276 HD
ATOM     10  H12 UNL     1      11.199  11.716   2.530  1.00  0.00     0.276 HD
ATOM     11  H11 UNL     1      12.008  10.808   3.728  1.00  0.00     0.276 HD
ENDBRANCH   6   8
BRANCH   6  12
HETATM   12  C8  UNL     1      13.136   9.680   1.184  1.00  0.00     0.168 C 
HETATM   13  C9  UNL     1      14.326   9.154   1.901  1.00  0.00     0.170 C 
HETATM   14  N2  UNL     1      15.433   9.452   1.034  1.00  0.00    -0.220 N 
HETATM   15  C10 UNL     1      16.783   8.910   1.082  1.00  0.00     0.168 C 
HETATM   16  C11 UNL     1      14.949  10.425   0.068  1.00  0.00     0.680 C 
HETATM   17  N3  UNL     1      15.615  10.768  -0.960  1.00  0.00    -0.158 N 
HETATM   18  N5  UNL     1      13.656  10.856   0.531  1.00  0.00    -0.212 N 
HETATM   19  C12 UNL     1      15.187  11.695  -1.910  1.00  0.00     0.253 C 
ATOM     20  H3  UNL     1      16.528  10.334  -1.099  1.00  0.00     0.187 HD
HETATM   21  O1  UNL     1      15.459  12.923  -1.727  1.00  0.00    -0.271 OA
HETATM   22  C16 UNL     1      13.105  12.172   0.338  1.00  0.00     0.169 C 
BRANCH  19  23
HETATM   23  C13 UNL     1      14.424  11.255  -3.122  1.00  0.00     0.226 C 
BRANCH  23  24
HETATM   24  N4  UNL     1      14.423   9.827  -3.156  1.00  0.00    -0.353 N 
HETATM   25  C14 UNL     1      15.293   9.116  -4.024  1.00  0.00     0.213 C 
HETATM   26  C15 UNL     1      15.309   7.627  -4.076  1.00  0.00     0.117 C 
HETATM   27  O2  UNL     1      16.063   9.767  -4.759  1.00  0.00    -0.274 OA
ATOM     28  H4  UNL     1      13.787   9.310  -2.548  1.00  0.00     0.162 HD
ENDBRANCH  23  24
ENDBRANCH  19  23
ENDBRANCH   6  12
ENDBRANCH   5   6
ENDBRANCH   3   4
TORSDOF 6
ENDMDL
MODEL 4
REMARK VINA RESULT: -7.084431040      3.902      5.874
REMARK  6 active torsions:
REMARK  status: ('A' for Active; 'I' for Inactive)
REMARK    1  A    between atoms: C3_3  and  C4_4 
REMARK    2  A    between atoms: C5_5  and  C6_6 
REMARK    3  A    between atoms: C6_6  and  N1_8 
REMARK    4  A    between atoms: C6_6  and  C8_12 
REMARK       I    between atoms: N3_17  and  C12_19 
REMARK    5  A    between atoms: C12_19  and  C13_21 
REMARK    6  A    between atoms: C13_21  and  N4_22 
REMARK       I    between atoms: N4_22  and  C14_24 
ROOT
HETATM    1  C1  UNL     1       7.087  10.454  -2.328  1.00  0.00     0.113 C 
HETATM    2  C2  UNL     1       8.187  10.361  -1.359  1.00  0.00    -0.097 C 
HETATM    3  C3  UNL     1       9.081  10.297  -0.548  1.00  0.00    -0.015 C 
ENDROOT
BRANCH   3   4
HETATM    4  C4  UNL     1      10.131  10.246   0.404  1.00  0.00    -0.013 C 
HETATM    5  C5  UNL     1      11.018  10.222   1.224  1.00  0.00    -0.051 C 
BRANCH   5   6
HETATM    6  C6  UNL     1      12.113  10.217   2.239  1.00  0.00     0.205 C 
HETATM    7  C7  UNL     1      12.028   8.966   3.084  1.00  0.00     0.063 C 
BRANCH   6   8
HETATM    8  N1  UNL     1      11.872  11.357   3.078  1.00  0.00    -0.058 N 
ATOM      9  H13 UNL     1      11.373  12.112   2.608  1.00  0.00     0.276 HD
ATOM     10  H12 UNL     1      11.180  11.188   3.808  1.00  0.00     0.276 HD
ATOM     11  H11 UNL     1      12.785  11.634   3.438  1.00  0.00     0.276 HD
ENDBRANCH   6   8
BRANCH   6  12
HETATM   12  C8  UNL     1      13.369  10.369   1.482  1.00  0.00     0.168 C 
HETATM   13  C9  UNL     1      13.255  11.080   0.183  1.00  0.00     0.170 C 
HETATM   14  N2  UNL     1      14.467  10.753  -0.518  1.00  0.00    -0.220 N 
HETATM   15  C10 UNL     1      15.027  11.400  -1.694  1.00  0.00     0.168 C 
HETATM   16  C11 UNL     1      15.054   9.622   0.182  1.00  0.00     0.680 C 
HETATM   17  N3  UNL     1      16.228   9.194  -0.059  1.00  0.00    -0.158 N 
HETATM   18  N5  UNL     1      14.064   9.158   1.119  1.00  0.00    -0.212 N 
HETATM   19  C12 UNL     1      16.827   8.115   0.590  1.00  0.00     0.253 C 
ATOM     20  H3  UNL     1      16.768   9.674  -0.778  1.00  0.00     0.187 HD
HETATM   21  O1  UNL     1      16.658   6.949   0.114  1.00  0.00    -0.271 OA
HETATM   22  C16 UNL     1      13.890   7.790   1.529  1.00  0.00     0.169 C 
BRANCH  19  23
HETATM   23  C13 UNL     1      17.656   8.323   1.820  1.00  0.00     0.226 C 
BRANCH  23  24
HETATM   24  N4  UNL     1      17.368   7.265   2.738  1.00  0.00    -0.353 N 
HETATM   25  C14 UNL     1      16.562   7.493   3.885  1.00  0.00     0.213 C 
HETATM   26  C15 UNL     1      16.249   6.406   4.854  1.00  0.00     0.117 C 
HETATM   27  O2  UNL     1      16.109   8.640   4.076  1.00  0.00    -0.274 OA
ATOM     28  H4  UNL     1      17.746   6.334   2.566  1.00  0.00     0.162 HD
ENDBRANCH  23  24
ENDBRANCH  19  23
ENDBRANCH   6  12
ENDBRANCH   5   6
ENDBRANCH   3   4
TORSDOF 6
ENDMDL
MODEL 5
REMARK VINA RESULT: -6.971554664      3.168      4.769
REMARK  6 active torsions:
REMARK  status: ('A' for Active; 'I' for Inactive)
REMARK    1  A    between atoms: C3_3  and  C4_4 
REMARK    2  A    between atoms: C5_5  and  C6_6 
REMARK    3  A    between atoms: C6_6  and  N1_8 
REMARK    4  A    between atoms: C6_6  and  C8_12 
REMARK       I    between atoms: N3_17  and  C12_19 
REMARK    5  A    between atoms: C12_19  and  C13_21 
REMARK    6  A    between atoms: C13_21  and  N4_22 
REMARK       I    between atoms: N4_22  and  C14_24 
ROOT
HETATM    1  C1  UNL     1       7.078   8.617   5.276  1.00  0.00     0.113 C 
HETATM    2  C2  UNL     1       8.161   9.000   4.360  1.00  0.00    -0.097 C 
HETATM    3  C3  UNL     1       9.057   9.331   3.620  1.00  0.00    -0.015 C 
ENDROOT
BRANCH   3   4
HETATM    4  C4  UNL     1      10.100   9.742   2.750  1.00  0.00    -0.013 C 
HETATM    5  C5  UNL     1      10.982  10.113   2.013  1.00  0.00    -0.051 C 
BRANCH   5   6
HETATM    6  C6  UNL     1      12.059  10.593   1.098  1.00  0.00     0.205 C 
HETATM    7  C7  UNL     1      12.494  11.984   1.497  1.00  0.00     0.063 C 
BRANCH   6   8
HETATM    8  N1  UNL     1      11.464  10.654  -0.208  1.00  0.00    -0.058 N 
ATOM      9  H13 UNL     1      10.479  10.388  -0.220  1.00  0.00     0.276 HD
ATOM     10  H12 UNL     1      11.338  11.605  -0.556  1.00  0.00     0.276 HD
ATOM     11  H11 UNL     1      12.051  10.075  -0.808  1.00  0.00     0.276 HD
ENDBRANCH   6   8
BRANCH   6  12
HETATM   12  C8  UNL     1      13.122   9.573   1.151  1.00  0.00     0.168 C 
HETATM   13  C9  UNL     1      13.567   9.178   2.512  1.00  0.00     0.170 C 
HETATM   14  N2  UNL     1      14.826   8.515   2.304  1.00  0.00    -0.220 N 
HETATM   15  C10 UNL     1      15.561   7.670   3.233  1.00  0.00     0.168 C 
HETATM   16  C11 UNL     1      15.249   8.852   0.955  1.00  0.00     0.680 C 
HETATM   17  N3  UNL     1      16.231   8.284   0.377  1.00  0.00    -0.158 N 
HETATM   18  N5  UNL     1      14.365   9.888   0.491  1.00  0.00    -0.212 N 
HETATM   19  C12 UNL     1      16.668   8.576  -0.915  1.00  0.00     0.253 C 
ATOM     20  H3  UNL     1      16.734   7.564   0.896  1.00  0.00     0.187 HD
HETATM   21  O1  UNL     1      17.531   9.495  -1.072  1.00  0.00    -0.271 OA
HETATM   22  C16 UNL     1      14.732  10.945  -0.415  1.00  0.00     0.169 C 
BRANCH  19  23
HETATM   23  C13 UNL     1      16.135   7.821  -2.094  1.00  0.00     0.226 C 
BRANCH  23  24
HETATM   24  N4  UNL     1      15.120   8.615  -2.712  1.00  0.00    -0.353 N 
HETATM   25  C14 UNL     1      15.416   9.443  -3.825  1.00  0.00     0.213 C 
HETATM   26  C15 UNL     1      14.374  10.279  -4.485  1.00  0.00     0.117 C 
HETATM   27  O2  UNL     1      16.587   9.465  -4.257  1.00  0.00    -0.274 OA
ATOM     28  H4  UNL     1      14.167   8.585  -2.347  1.00  0.00     0.162 HD
ENDBRANCH  23  24
ENDBRANCH  19  23
ENDBRANCH   6  12
ENDBRANCH   5   6
ENDBRANCH   3   4
TORSDOF 6
ENDMDL
