MODEL 1
REMARK VINA RESULT: -6.309924412      0.000      0.000
REMARK  2 active torsions:
REMARK  status: ('A' for Active; 'I' for Inactive)
REMARK    1  A    between atoms: C3_3  and  C4_4 
REMARK       I    between atoms: N1_9  and  C9_10 
REMARK    2  A    between atoms: N5_22  and  C14_23 
ROOT
HETATM    1  C1  UNL     1      12.552  11.676   1.491  1.00  0.00     0.017 C 
HETATM    2  C2  UNL     1      13.137  10.887   0.798  1.00  0.00    -0.089 C 
HETATM    3  C3  UNL     1      13.829   9.912  -0.017  1.00  0.00     0.072 C 
ENDROOT
BRANCH   3   4
HETATM    4  C4  UNL     1      15.060  10.360  -0.637  1.00  0.00    -0.004 C 
HETATM    5  C5  UNL     1      14.964  11.088  -1.934  1.00  0.00    -0.003 C 
HETATM    6  C6  UNL     1      14.293  12.437  -1.722  1.00  0.00     0.021 C 
HETATM    7  C7  UNL     1      14.389  10.398  -3.101  1.00  0.00     0.021 C 
HETATM    8  C8  UNL     1      16.436  11.295  -2.203  1.00  0.00     0.142 C 
HETATM    9  N1  UNL     1      17.004  10.006  -1.842  1.00  0.00    -0.316 N 
HETATM   10  C9  UNL     1      18.125   9.536  -2.574  1.00  0.00     0.186 C 
HETATM   11  C10 UNL     1      16.258   9.487  -0.736  1.00  0.00     0.224 C 
HETATM   12  N2  UNL     1      18.016   9.302  -3.828  1.00  0.00    -0.374 N 
HETATM   13  N3  UNL     1      19.397   9.322  -1.986  1.00  0.00    -0.064 NA
ATOM     14  H22 UNL     1      17.100   9.455  -4.251  1.00  0.00     0.158 HD
ATOM     15  H21 UNL     1      18.821   8.964  -4.354  1.00  0.00     0.158 HD
HETATM   16  C11 UNL     1      17.174   9.701   0.461  1.00  0.00     0.282 C 
HETATM   17  N5  UNL     1      16.073   8.088  -0.639  1.00  0.00    -0.295 N 
HETATM   18  O1  UNL     1      18.171  10.437   0.553  1.00  0.00    -0.268 OA
HETATM   19  N4  UNL     1      16.644   8.868   1.475  1.00  0.00    -0.270 N 
HETATM   20  C12 UNL     1      16.762   8.994   2.917  1.00  0.00     0.164 C 
HETATM   21  C13 UNL     1      15.942   7.838   0.792  1.00  0.00     0.329 C 
HETATM   22  O2  UNL     1      15.328   6.894   1.350  1.00  0.00    -0.246 OA
BRANCH  17  23
HETATM   23  C14 UNL     1      15.978   6.968  -1.546  1.00  0.00     0.126 C 
HETATM   24  C15 UNL     1      15.443   7.304  -2.904  1.00  0.00     0.027 C 
ENDBRANCH  17  23
ENDBRANCH   3   4
TORSDOF 2
ENDMDL
MODEL 2
REMARK VINA RESULT: -5.364706716      4.616      6.305
REMARK  2 active torsions:
REMARK  status: ('A' for Active; 'I' for Inactive)
REMARK    1  A    between atoms: C3_3  and  C4_4 
REMARK       I    between atoms: N1_9  and  C9_10 
REMARK    2  A    between atoms: N5_22  and  C14_23 
ROOT
HETATM    1  C1  UNL     1       6.762   9.571   4.272  1.00  0.00     0.017 C 
HETATM    2  C2  UNL     1       7.495   9.303   3.358  1.00  0.00    -0.089 C 
HETATM    3  C3  UNL     1       8.378   8.949   2.268  1.00  0.00     0.072 C 
ENDROOT
BRANCH   3   4
HETATM    4  C4  UNL     1       9.240  10.007   1.777  1.00  0.00    -0.004 C 
HETATM    5  C5  UNL     1       9.019  10.499   0.388  1.00  0.00    -0.003 C 
HETATM    6  C6  UNL     1       7.679  11.213   0.298  1.00  0.00     0.021 C 
HETATM    7  C7  UNL     1       9.186   9.563  -0.737  1.00  0.00     0.021 C 
HETATM    8  C8  UNL     1      10.136  11.512   0.312  1.00  0.00     0.142 C 
HETATM    9  N1  UNL     1      11.242  10.806   0.938  1.00  0.00    -0.316 N 
HETATM   10  C9  UNL     1      12.555  11.049   0.456  1.00  0.00     0.186 C 
HETATM   11  C10 UNL     1      10.710   9.988   1.985  1.00  0.00     0.224 C 
HETATM   12  N2  UNL     1      12.856  10.752  -0.752  1.00  0.00    -0.374 N 
HETATM   13  N3  UNL     1      13.573  11.634   1.250  1.00  0.00    -0.064 NA
ATOM     14  H22 UNL     1      12.123  10.331  -1.324  1.00  0.00     0.158 HD
ATOM     15  H21 UNL     1      13.799  10.927  -1.098  1.00  0.00     0.158 HD
HETATM   16  C11 UNL     1      11.077  10.736   3.260  1.00  0.00     0.282 C 
HETATM   17  N5  UNL     1      11.330   8.747   2.258  1.00  0.00    -0.295 N 
HETATM   18  O1  UNL     1      11.442  11.916   3.390  1.00  0.00    -0.268 OA
HETATM   19  N4  UNL     1      10.914   9.785   4.296  1.00  0.00    -0.270 N 
HETATM   20  C12 UNL     1      10.641  10.005   5.706  1.00  0.00     0.164 C 
HETATM   21  C13 UNL     1      11.071   8.516   3.675  1.00  0.00     0.329 C 
HETATM   22  O2  UNL     1      10.997   7.411   4.269  1.00  0.00    -0.246 OA
BRANCH  17  23
HETATM   23  C14 UNL     1      12.070   7.750   1.522  1.00  0.00     0.126 C 
HETATM   24  C15 UNL     1      13.544   7.738   1.788  1.00  0.00     0.027 C 
ENDBRANCH  17  23
ENDBRANCH   3   4
TORSDOF 2
ENDMDL
MODEL 3
REMARK VINA RESULT: -5.339438386      2.061      4.517
REMARK  2 active torsions:
REMARK  status: ('A' for Active; 'I' for Inactive)
REMARK    1  A    between atoms: C3_3  and  C4_4 
REMARK       I    between atoms: N1_9  and  C9_10 
REMARK    2  A    between atoms: N5_22  and  C14_23 
ROOT
HETATM    1  C1  UNL     1      10.811  10.872   0.021  1.00  0.00     0.017 C 
HETATM    2  C2  UNL     1      11.981  10.746   0.271  1.00  0.00    -0.089 C 
HETATM    3  C3  UNL     1      13.394  10.621   0.553  1.00  0.00     0.072 C 
ENDROOT
BRANCH   3   4
HETATM    4  C4  UNL     1      13.885   9.273   0.765  1.00  0.00    -0.004 C 
HETATM    5  C5  UNL     1      13.560   8.607   2.057  1.00  0.00    -0.003 C 
HETATM    6  C6  UNL     1      12.065   8.339   2.140  1.00  0.00     0.021 C 
HETATM    7  C7  UNL     1      14.053   9.200   3.312  1.00  0.00     0.021 C 
HETATM    8  C8  UNL     1      14.295   7.304   1.847  1.00  0.00     0.142 C 
HETATM    9  N1  UNL     1      15.549   7.743   1.259  1.00  0.00    -0.316 N 
HETATM   10  C9  UNL     1      16.729   7.016   1.566  1.00  0.00     0.186 C 
HETATM   11  C10 UNL     1      15.276   8.877   0.429  1.00  0.00     0.224 C 
HETATM   12  N2  UNL     1      17.146   6.958   2.775  1.00  0.00    -0.374 N 
HETATM   13  N3  UNL     1      17.481   6.315   0.589  1.00  0.00    -0.064 NA
ATOM     14  H22 UNL     1      16.605   7.462   3.478  1.00  0.00     0.158 HD
ATOM     15  H21 UNL     1      17.993   6.435   2.995  1.00  0.00     0.158 HD
HETATM   16  C11 UNL     1      15.345   8.323  -0.988  1.00  0.00     0.282 C 
HETATM   17  N5  UNL     1      16.253   9.895   0.327  1.00  0.00    -0.295 N 
HETATM   18  O1  UNL     1      15.308   7.139  -1.360  1.00  0.00    -0.268 OA
HETATM   19  N4  UNL     1      15.465   9.464  -1.817  1.00  0.00    -0.270 N 
HETATM   20  C12 UNL     1      15.093   9.625  -3.212  1.00  0.00     0.164 C 
HETATM   21  C13 UNL     1      16.040  10.472  -0.996  1.00  0.00     0.329 C 
HETATM   22  O2  UNL     1      16.306  11.640  -1.373  1.00  0.00    -0.246 OA
BRANCH  17  23
HETATM   23  C14 UNL     1      17.296  10.447   1.159  1.00  0.00     0.126 C 
HETATM   24  C15 UNL     1      18.678   9.967   0.835  1.00  0.00     0.027 C 
ENDBRANCH  17  23
ENDBRANCH   3   4
TORSDOF 2
ENDMDL
MODEL 4
REMARK VINA RESULT: -5.241226115      5.589      7.470
REMARK  2 active torsions:
REMARK  status: ('A' for Active; 'I' for Inactive)
REMARK    1  A    between atoms: C3_3  and  C4_4 
REMARK       I    between atoms: N1_9  and  C9_10 
REMARK    2  A    between atoms: N5_22  and  C14_23 
ROOT
HETATM    1  C1  UNL     1       5.258  10.219   3.706  1.00  0.00     0.017 C 
HETATM    2  C2  UNL     1       6.084   9.814   2.931  1.00  0.00    -0.089 C 
HETATM    3  C3  UNL     1       7.068   9.295   2.006  1.00  0.00     0.072 C 
ENDROOT
BRANCH   3   4
HETATM    4  C4  UNL     1       8.251  10.110   1.810  1.00  0.00    -0.004 C 
HETATM    5  C5  UNL     1       8.538  10.606   0.435  1.00  0.00    -0.003 C 
HETATM    6  C6  UNL     1       7.476  11.610   0.014  1.00  0.00     0.021 C 
HETATM    7  C7  UNL     1       8.786   9.630  -0.640  1.00  0.00     0.021 C 
HETATM    8  C8  UNL     1       9.836  11.329   0.706  1.00  0.00     0.142 C 
HETATM    9  N1  UNL     1      10.535  10.400   1.579  1.00  0.00    -0.316 N 
HETATM   10  C9  UNL     1      11.949  10.319   1.483  1.00  0.00     0.186 C 
HETATM   11  C10 UNL     1       9.563   9.755   2.409  1.00  0.00     0.224 C 
HETATM   12  N2  UNL     1      12.492   9.930   0.390  1.00  0.00    -0.374 N 
HETATM   13  N3  UNL     1      12.817  10.670   2.546  1.00  0.00    -0.064 NA
ATOM     14  H22 UNL     1      11.866   9.677  -0.375  1.00  0.00     0.158 HD
ATOM     15  H21 UNL     1      13.507   9.871   0.321  1.00  0.00     0.158 HD
HETATM   16  C11 UNL     1       9.730  10.427   3.765  1.00  0.00     0.282 C 
HETATM   17  N5  UNL     1       9.780   8.410   2.789  1.00  0.00    -0.295 N 
HETATM   18  O1  UNL     1      10.307  11.493   4.037  1.00  0.00    -0.268 OA
HETATM   19  N4  UNL     1       9.074   9.566   4.678  1.00  0.00    -0.270 N 
HETATM   20  C12 UNL     1       8.486   9.879   5.969  1.00  0.00     0.164 C 
HETATM   21  C13 UNL     1       9.098   8.281   4.073  1.00  0.00     0.329 C 
HETATM   22  O2  UNL     1       8.612   7.239   4.578  1.00  0.00    -0.246 OA
BRANCH  17  23
HETATM   23  C14 UNL     1      10.443   7.250   2.241  1.00  0.00     0.126 C 
HETATM   24  C15 UNL     1      11.822   7.005   2.772  1.00  0.00     0.027 C 
ENDBRANCH  17  23
ENDBRANCH   3   4
TORSDOF 2
ENDMDL
MODEL 5
REMARK VINA RESULT: -5.158555810      1.787      2.578
REMARK  2 active torsions:
REMARK  status: ('A' for Active; 'I' for Inactive)
REMARK    1  A    between atoms: C3_3  and  C4_4 
REMARK       I    between atoms: N1_9  and  C9_10 
REMARK    2  A    between atoms: N5_22  and  C14_23 
ROOT
HETATM    1  C1  UNL     1      11.226  10.296   4.205  1.00  0.00     0.017 C 
HETATM    2  C2  UNL     1      11.951   9.702   3.452  1.00  0.00    -0.089 C 
HETATM    3  C3  UNL     1      12.822   8.960   2.566  1.00  0.00     0.072 C 
ENDROOT
BRANCH   3   4
HETATM    4  C4  UNL     1      13.769   9.746   1.799  1.00  0.00    -0.004 C 
HETATM    5  C5  UNL     1      13.229  10.719   0.809  1.00  0.00    -0.003 C 
HETATM    6  C6  UNL     1      12.505  11.846   1.532  1.00  0.00     0.021 C 
HETATM    7  C7  UNL     1      12.422  10.221  -0.317  1.00  0.00     0.021 C 
HETATM    8  C8  UNL     1      14.532  11.236   0.246  1.00  0.00     0.142 C 
HETATM    9  N1  UNL     1      15.314  10.020   0.099  1.00  0.00    -0.316 N 
HETATM   10  C9  UNL     1      16.223   9.931  -0.988  1.00  0.00     0.186 C 
HETATM   11  C10 UNL     1      14.975   9.142   1.177  1.00  0.00     0.224 C 
HETATM   12  N2  UNL     1      15.785   9.971  -2.190  1.00  0.00    -0.374 N 
HETATM   13  N3  UNL     1      17.625   9.817  -0.814  1.00  0.00    -0.064 NA
ATOM     14  H22 UNL     1      14.776  10.053  -2.315  1.00  0.00     0.158 HD
ATOM     15  H21 UNL     1      16.438   9.907  -2.971  1.00  0.00     0.158 HD
HETATM   16  C11 UNL     1      16.166   9.238   2.120  1.00  0.00     0.282 C 
HETATM   17  N5  UNL     1      14.977   7.747   0.943  1.00  0.00    -0.295 N 
HETATM   18  O1  UNL     1      17.063  10.097   2.153  1.00  0.00    -0.268 OA
HETATM   19  N4  UNL     1      16.040   8.117   2.976  1.00  0.00    -0.270 N 
HETATM   20  C12 UNL     1      16.551   7.933   4.323  1.00  0.00     0.164 C 
HETATM   21  C13 UNL     1      15.287   7.161   2.242  1.00  0.00     0.329 C 
HETATM   22  O2  UNL     1      14.964   6.023   2.665  1.00  0.00    -0.246 OA
BRANCH  17  23
HETATM   23  C14 UNL     1      14.747   6.862  -0.175  1.00  0.00     0.126 C 
HETATM   24  C15 UNL     1      15.962   6.563  -0.999  1.00  0.00     0.027 C 
ENDBRANCH  17  23
ENDBRANCH   3   4
TORSDOF 2
ENDMDL
