MODEL 1
REMARK VINA RESULT: -6.852727517      0.000      0.000
REMARK  3 active torsions:
REMARK  status: ('A' for Active; 'I' for Inactive)
REMARK    1  A    between atoms: N1_2  and  C2_4 
REMARK       I    between atoms: N2_6  and  C4_8 
REMARK       I    between atoms: C4_8  and  N3_10 
REMARK    2  A    between atoms: C8_17  and  C9_18 
REMARK    3  A    between atoms: C12_21  and  S1_22 
ROOT
HETATM    1  C2  UNL     1      13.119  13.109  -0.272  1.00  0.00     0.076 C 
HETATM    2  C3  UNL     1      11.983  13.881   0.305  1.00  0.00     0.089 C 
HETATM    3  N2  UNL     1      13.097  11.844  -0.162  1.00  0.00    -0.299 N 
ATOM      4  H2  UNL     1      12.296  11.435   0.319  1.00  0.00     0.171 HD
HETATM    5  C4  UNL     1      14.077  10.950  -0.643  1.00  0.00     0.325 C 
HETATM    6  O1  UNL     1      14.410  11.074  -1.830  1.00  0.00    -0.247 OA
HETATM    7  N3  UNL     1      14.648   9.972   0.183  1.00  0.00    -0.308 N 
HETATM    8  C5  UNL     1      14.461   9.594   1.541  1.00  0.00     0.129 A 
HETATM    9  C6  UNL     1      15.598   8.585   1.482  1.00  0.00     0.143 A 
HETATM   10  N4  UNL     1      14.920   7.339   1.703  1.00  0.00    -0.351 N 
ATOM     11  H4  UNL     1      15.203   6.434   1.329  1.00  0.00     0.163 HD
HETATM   12  C7  UNL     1      13.796   7.577   2.524  1.00  0.00     0.224 C 
HETATM   13  O2  UNL     1      13.283   6.833   3.415  1.00  0.00    -0.273 OA
HETATM   14  C8  UNL     1      13.301   8.955   2.115  1.00  0.00     0.106 C 
HETATM   15  C12 UNL     1      15.707   9.012   0.036  1.00  0.00     0.207 A 
ENDROOT
BRANCH  15  16
HETATM   16  S1  UNL     1      15.641   7.755  -1.141  1.00  0.00     0.036 S 
HETATM   17  C13 UNL     1      16.140   8.217  -2.759  1.00  0.00     0.129 C 
HETATM   18  O3  UNL     1      16.373   6.341  -0.702  1.00  0.00    -0.256 OA
ENDBRANCH  15  16
BRANCH  14  19
HETATM   19  C9  UNL     1      12.008   8.826   1.398  1.00  0.00    -0.008 C 
HETATM   20  C10 UNL     1      11.114  10.066   1.749  1.00  0.00     0.010 C 
HETATM   21  C11 UNL     1      11.156   7.649   1.786  1.00  0.00     0.010 C 
ENDBRANCH  14  19
BRANCH   1  22
HETATM   22  N1  UNL     1      14.149  13.850  -0.908  1.00  0.00    -0.384 N 
HETATM   23  C1  UNL     1      13.978  14.553  -2.152  1.00  0.00     0.147 C 
ATOM     24  H1  UNL     1      15.064  13.887  -0.458  1.00  0.00     0.160 HD
ENDBRANCH   1  22
TORSDOF 3
ENDMDL
MODEL 2
REMARK VINA RESULT: -6.514441998      2.797      5.853
REMARK  3 active torsions:
REMARK  status: ('A' for Active; 'I' for Inactive)
REMARK    1  A    between atoms: N1_2  and  C2_4 
REMARK       I    between atoms: N2_6  and  C4_8 
REMARK       I    between atoms: C4_8  and  N3_10 
REMARK    2  A    between atoms: C8_17  and  C9_18 
REMARK    3  A    between atoms: C12_21  and  S1_22 
ROOT
HETATM    1  C2  UNL     1      15.328   8.525   1.404  1.00  0.00     0.076 C 
HETATM    2  C3  UNL     1      14.198   8.917   2.291  1.00  0.00     0.089 C 
HETATM    3  N2  UNL     1      15.577   9.257   0.396  1.00  0.00    -0.299 N 
ATOM      4  H2  UNL     1      14.981  10.073   0.259  1.00  0.00     0.171 HD
HETATM    5  C4  UNL     1      16.600   9.048  -0.551  1.00  0.00     0.325 C 
HETATM    6  O1  UNL     1      17.744   8.867  -0.107  1.00  0.00    -0.247 OA
HETATM    7  N3  UNL     1      16.337   9.040  -1.928  1.00  0.00    -0.308 N 
HETATM    8  C5  UNL     1      15.164   9.226  -2.711  1.00  0.00     0.129 A 
HETATM    9  C6  UNL     1      15.898   8.899  -4.002  1.00  0.00     0.143 A 
HETATM   10  N4  UNL     1      15.813  10.135  -4.729  1.00  0.00    -0.351 N 
ATOM     11  H4  UNL     1      16.501  10.479  -5.398  1.00  0.00     0.163 HD
HETATM   12  C7  UNL     1      14.620  10.793  -4.361  1.00  0.00     0.224 C 
HETATM   13  O2  UNL     1      13.852  11.515  -5.068  1.00  0.00    -0.273 OA
HETATM   14  C8  UNL     1      14.425  10.452  -2.893  1.00  0.00     0.106 C 
HETATM   15  C12 UNL     1      17.108   8.760  -3.108  1.00  0.00     0.207 A 
ENDROOT
BRANCH  15  16
HETATM   16  S1  UNL     1      18.491   9.697  -3.537  1.00  0.00     0.036 S 
HETATM   17  C13 UNL     1      19.994   9.204  -2.777  1.00  0.00     0.129 C 
HETATM   18  O3  UNL     1      18.716   9.915  -5.158  1.00  0.00    -0.256 OA
ENDBRANCH  15  16
BRANCH  14  19
HETATM   19  C9  UNL     1      14.649  11.665  -2.067  1.00  0.00    -0.008 C 
HETATM   20  C10 UNL     1      13.646  11.644  -0.861  1.00  0.00     0.010 C 
HETATM   21  C11 UNL     1      14.370  12.980  -2.742  1.00  0.00     0.010 C 
ENDBRANCH  14  19
BRANCH   1  22
HETATM   22  N1  UNL     1      16.049   7.353   1.753  1.00  0.00    -0.384 N 
HETATM   23  C1  UNL     1      16.754   7.188   2.997  1.00  0.00     0.147 C 
ATOM     24  H1  UNL     1      16.068   6.583   1.084  1.00  0.00     0.160 HD
ENDBRANCH   1  22
TORSDOF 3
ENDMDL
MODEL 3
REMARK VINA RESULT: -6.309731044      2.989      4.944
REMARK  3 active torsions:
REMARK  status: ('A' for Active; 'I' for Inactive)
REMARK    1  A    between atoms: N1_2  and  C2_4 
REMARK       I    between atoms: N2_6  and  C4_8 
REMARK       I    between atoms: C4_8  and  N3_10 
REMARK    2  A    between atoms: C8_17  and  C9_18 
REMARK    3  A    between atoms: C12_21  and  S1_22 
ROOT
HETATM    1  C2  UNL     1      11.039   9.536   1.425  1.00  0.00     0.076 C 
HETATM    2  C3  UNL     1      10.326  10.011   0.207  1.00  0.00     0.089 C 
HETATM    3  N2  UNL     1      12.308   9.559   1.422  1.00  0.00    -0.299 N 
ATOM      4  H2  UNL     1      12.762   9.906   0.577  1.00  0.00     0.171 HD
HETATM    5  C4  UNL     1      13.150   9.152   2.477  1.00  0.00     0.325 C 
HETATM    6  O1  UNL     1      12.913   9.628   3.597  1.00  0.00    -0.247 OA
HETATM    7  N3  UNL     1      14.203   8.249   2.271  1.00  0.00    -0.308 N 
HETATM    8  C5  UNL     1      14.711   7.567   1.130  1.00  0.00     0.129 A 
HETATM    9  C6  UNL     1      15.708   6.781   1.966  1.00  0.00     0.143 A 
HETATM   10  N4  UNL     1      16.970   7.245   1.463  1.00  0.00    -0.351 N 
ATOM     11  H4  UNL     1      17.835   7.313   1.999  1.00  0.00     0.163 HD
HETATM   12  C7  UNL     1      16.814   7.592   0.104  1.00  0.00     0.224 C 
HETATM   13  O2  UNL     1      17.640   7.478  -0.853  1.00  0.00    -0.273 OA
HETATM   14  C8  UNL     1      15.403   8.150   0.005  1.00  0.00     0.106 C 
HETATM   15  C12 UNL     1      15.144   7.574   3.122  1.00  0.00     0.207 A 
ENDROOT
BRANCH  15  16
HETATM   16  S1  UNL     1      16.282   8.438   4.087  1.00  0.00     0.036 S 
HETATM   17  C13 UNL     1      17.363   7.439   5.044  1.00  0.00     0.129 C 
HETATM   18  O3  UNL     1      17.139   9.603   3.290  1.00  0.00    -0.256 OA
ENDBRANCH  15  16
BRANCH  14  19
HETATM   19  C9  UNL     1      15.463   9.612  -0.242  1.00  0.00    -0.008 C 
HETATM   20  C10 UNL     1      15.198   9.875  -1.766  1.00  0.00     0.010 C 
HETATM   21  C11 UNL     1      16.794  10.266   0.007  1.00  0.00     0.010 C 
ENDBRANCH  14  19
BRANCH   1  22
HETATM   22  N1  UNL     1      10.239   9.087   2.509  1.00  0.00    -0.384 N 
HETATM   23  C1  UNL     1       9.363   9.944   3.266  1.00  0.00     0.147 C 
ATOM     24  H1  UNL     1      10.287   8.102   2.767  1.00  0.00     0.160 HD
ENDBRANCH   1  22
TORSDOF 3
ENDMDL
MODEL 4
REMARK VINA RESULT: -6.268989891      2.722      4.959
REMARK  3 active torsions:
REMARK  status: ('A' for Active; 'I' for Inactive)
REMARK    1  A    between atoms: N1_2  and  C2_4 
REMARK       I    between atoms: N2_6  and  C4_8 
REMARK       I    between atoms: C4_8  and  N3_10 
REMARK    2  A    between atoms: C8_17  and  C9_18 
REMARK    3  A    between atoms: C12_21  and  S1_22 
ROOT
HETATM    1  C2  UNL     1      17.004   9.436  -2.904  1.00  0.00     0.076 C 
HETATM    2  C3  UNL     1      18.430   9.318  -3.320  1.00  0.00     0.089 C 
HETATM    3  N2  UNL     1      16.757   9.773  -1.705  1.00  0.00    -0.299 N 
ATOM      4  H2  UNL     1      17.560   9.942  -1.098  1.00  0.00     0.171 HD
HETATM    5  C4  UNL     1      15.479   9.934  -1.132  1.00  0.00     0.325 C 
HETATM    6  O1  UNL     1      14.681  10.658  -1.745  1.00  0.00    -0.247 OA
HETATM    7  N3  UNL     1      15.127   9.304   0.069  1.00  0.00    -0.308 N 
HETATM    8  C5  UNL     1      15.815   8.452   0.977  1.00  0.00     0.129 A 
HETATM    9  C6  UNL     1      14.567   8.237   1.819  1.00  0.00     0.143 A 
HETATM   10  N4  UNL     1      14.936   8.822   3.077  1.00  0.00    -0.351 N 
ATOM     11  H4  UNL     1      14.298   9.266   3.737  1.00  0.00     0.163 HD
HETATM   12  C7  UNL     1      16.330   8.680   3.248  1.00  0.00     0.224 C 
HETATM   13  O2  UNL     1      16.991   8.486   4.314  1.00  0.00    -0.273 OA
HETATM   14  C8  UNL     1      16.908   8.811   1.848  1.00  0.00     0.106 C 
HETATM   15  C12 UNL     1      13.917   9.183   0.836  1.00  0.00     0.207 A 
ENDROOT
BRANCH  15  16
HETATM   16  S1  UNL     1      13.120  10.557   1.505  1.00  0.00     0.036 S 
HETATM   17  C13 UNL     1      12.154  11.488   0.373  1.00  0.00     0.129 C 
HETATM   18  O3  UNL     1      12.259  10.268   2.885  1.00  0.00    -0.256 OA
ENDBRANCH  15  16
BRANCH  14  19
HETATM   19  C9  UNL     1      17.650  10.091   1.734  1.00  0.00    -0.008 C 
HETATM   20  C10 UNL     1      18.965   9.839   0.917  1.00  0.00     0.010 C 
HETATM   21  C11 UNL     1      18.141  10.683   3.027  1.00  0.00     0.010 C 
ENDBRANCH  14  19
BRANCH   1  22
HETATM   22  N1  UNL     1      16.018   9.161  -3.888  1.00  0.00    -0.384 N 
HETATM   23  C1  UNL     1      16.049   9.696  -5.224  1.00  0.00     0.147 C 
ATOM     24  H1  UNL     1      15.243   8.548  -3.634  1.00  0.00     0.160 HD
ENDBRANCH   1  22
TORSDOF 3
ENDMDL
MODEL 5
REMARK VINA RESULT: -6.102877790      4.106      5.405
REMARK  3 active torsions:
REMARK  status: ('A' for Active; 'I' for Inactive)
REMARK    1  A    between atoms: N1_2  and  C2_4 
REMARK       I    between atoms: N2_6  and  C4_8 
REMARK       I    between atoms: C4_8  and  N3_10 
REMARK    2  A    between atoms: C8_17  and  C9_18 
REMARK    3  A    between atoms: C12_21  and  S1_22 
ROOT
HETATM    1  C2  UNL     1       6.941  10.894   0.238  1.00  0.00     0.076 C 
HETATM    2  C3  UNL     1       5.570  11.254   0.697  1.00  0.00     0.089 C 
HETATM    3  N2  UNL     1       7.681  10.232   1.028  1.00  0.00    -0.299 N 
ATOM      4  H2  UNL     1       7.285   9.987   1.936  1.00  0.00     0.171 HD
HETATM    5  C4  UNL     1       8.999   9.803   0.771  1.00  0.00     0.325 C 
HETATM    6  O1  UNL     1       9.190   9.192  -0.291  1.00  0.00    -0.247 OA
HETATM    7  N3  UNL     1      10.045  10.058   1.670  1.00  0.00    -0.308 N 
HETATM    8  C5  UNL     1      10.124  10.703   2.935  1.00  0.00     0.129 A 
HETATM    9  C6  UNL     1      11.638  10.568   2.978  1.00  0.00     0.143 A 
HETATM   10  N4  UNL     1      11.841   9.711   4.113  1.00  0.00    -0.351 N 
ATOM     11  H4  UNL     1      12.609   9.050   4.229  1.00  0.00     0.163 HD
HETATM   12  C7  UNL     1      10.801   9.937   5.040  1.00  0.00     0.224 C 
HETATM   13  O2  UNL     1      10.837   9.907   6.308  1.00  0.00    -0.273 OA
HETATM   14  C8  UNL     1       9.579  10.235   4.187  1.00  0.00     0.106 C 
HETATM   15  C12 UNL     1      11.467   9.856   1.656  1.00  0.00     0.207 A 
ENDROOT
BRANCH  15  16
HETATM   16  S1  UNL     1      12.164   8.284   1.536  1.00  0.00     0.036 S 
HETATM   17  C13 UNL     1      13.919   8.241   1.534  1.00  0.00     0.129 C 
HETATM   18  O3  UNL     1      11.568   7.168   2.597  1.00  0.00    -0.256 OA
ENDBRANCH  15  16
BRANCH  14  19
HETATM   19  C9  UNL     1       8.618   9.108   4.282  1.00  0.00    -0.008 C 
HETATM   20  C10 UNL     1       7.801   9.254   5.613  1.00  0.00     0.010 C 
HETATM   21  C11 UNL     1       9.225   7.735   4.384  1.00  0.00     0.010 C 
ENDBRANCH  14  19
BRANCH   1  22
HETATM   22  N1  UNL     1       7.321  11.322  -1.062  1.00  0.00    -0.384 N 
HETATM   23  C1  UNL     1       6.937  10.644  -2.272  1.00  0.00     0.147 C 
ATOM     24  H1  UNL     1       7.900  12.158  -1.143  1.00  0.00     0.160 HD
ENDBRANCH   1  22
TORSDOF 3
ENDMDL
