MODEL 1
REMARK VINA RESULT: -9.056050920      0.000      0.000
REMARK  5 active torsions:
REMARK  status: ('A' for Active; 'I' for Inactive)
REMARK    1  A    between atoms: C5_5  and  C6_6 
REMARK    2  A    between atoms: C6_6  and  C7_7 
REMARK    3  A    between atoms: C15_16  and  O1_18 
REMARK    4  A    between atoms: C17_21  and  O2_22 
REMARK    5  A    between atoms: C19_24  and  O3_25 
ROOT
HETATM    1  C1  UNL     1      14.183  12.390  -1.374  1.00  0.00     0.018 C 
HETATM    2  C2  UNL     1      13.646  11.670  -0.568  1.00  0.00    -0.075 C 
HETATM    3  C3  UNL     1      12.991  10.808   0.402  1.00  0.00     0.053 A 
HETATM    4  C4  UNL     1      11.617  10.742   0.496  1.00  0.00     0.035 A 
HETATM    5  C5  UNL     1      10.970   9.933   1.405  1.00  0.00    -0.030 A 
HETATM    6  C16 UNL     1      11.738   9.153   2.264  1.00  0.00     0.051 A 
HETATM    7  C17 UNL     1      13.100   9.216   2.175  1.00  0.00     0.103 A 
HETATM    8  C19 UNL     1      13.738  10.026   1.262  1.00  0.00     0.117 A 
ENDROOT
BRANCH   8   9
HETATM    9  O3  UNL     1      15.128  10.058   1.206  1.00  0.00    -0.357 OA
ATOM     10  H3  UNL     1      15.625  10.420   1.929  1.00  0.00     0.218 HD
ENDBRANCH   8   9
BRANCH   5  11
HETATM   11  C6  UNL     1       9.565   9.933   1.567  1.00  0.00     0.041 C 
BRANCH  11  12
HETATM   12  C7  UNL     1       8.506  10.080   2.235  1.00  0.00     0.044 A 
HETATM   13  C8  UNL     1       8.720   9.999   3.663  1.00  0.00     0.037 A 
HETATM   14  C9  UNL     1       7.695  10.002   4.550  1.00  0.00    -0.048 A 
HETATM   15  C10 UNL     1       7.945   9.919   6.017  1.00  0.00     0.049 C 
HETATM   16  C11 UNL     1       6.415  10.083   4.097  1.00  0.00    -0.013 A 
HETATM   17  C12 UNL     1       5.461  10.087   4.987  1.00  0.00     0.026 C 
HETATM   18  C13 UNL     1       6.158  10.165   2.726  1.00  0.00     0.043 A 
HETATM   19  C14 UNL     1       4.899  10.180   2.384  1.00  0.00     0.044 C 
HETATM   20  N1  UNL     1       7.230  10.167   1.823  1.00  0.00    -0.281 N 
HETATM   21  C15 UNL     1       6.944  10.452   0.628  1.00  0.00     0.236 C 
HETATM   22  N2  UNL     1       7.655  10.751  -0.535  1.00  0.00    -0.056 NA
BRANCH  21  23
HETATM   23  O1  UNL     1       5.541  10.500   0.301  1.00  0.00    -0.334 OA
ATOM     24  H1  UNL     1       5.276  11.168  -0.320  1.00  0.00     0.220 HD
ENDBRANCH  21  23
ENDBRANCH  11  12
ENDBRANCH   5  11
BRANCH   7  25
HETATM   25  O2  UNL     1      13.862   8.420   3.051  1.00  0.00    -0.353 OA
HETATM   26  C18 UNL     1      14.103   7.059   2.760  1.00  0.00     0.210 C 
ENDBRANCH   7  25
TORSDOF 5
ENDMDL
MODEL 2
REMARK VINA RESULT: -8.924080277      0.794      2.633
REMARK  5 active torsions:
REMARK  status: ('A' for Active; 'I' for Inactive)
REMARK    1  A    between atoms: C5_5  and  C6_6 
REMARK    2  A    between atoms: C6_6  and  C7_7 
REMARK    3  A    between atoms: C15_16  and  O1_18 
REMARK    4  A    between atoms: C17_21  and  O2_22 
REMARK    5  A    between atoms: C19_24  and  O3_25 
ROOT
HETATM    1  C1  UNL     1      14.745   6.803   2.916  1.00  0.00     0.018 C 
HETATM    2  C2  UNL     1      14.079   7.688   2.436  1.00  0.00    -0.075 C 
HETATM    3  C3  UNL     1      13.271   8.749   1.860  1.00  0.00     0.053 A 
HETATM    4  C4  UNL     1      11.907   8.803   2.055  1.00  0.00     0.035 A 
HETATM    5  C5  UNL     1      11.116   9.797   1.521  1.00  0.00    -0.030 A 
HETATM    6  C16 UNL     1      11.722  10.787   0.752  1.00  0.00     0.051 A 
HETATM    7  C17 UNL     1      13.073  10.736   0.555  1.00  0.00     0.103 A 
HETATM    8  C19 UNL     1      13.855   9.740   1.094  1.00  0.00     0.117 A 
ENDROOT
BRANCH   8   9
HETATM    9  O3  UNL     1      15.228   9.729   0.869  1.00  0.00    -0.357 OA
ATOM     10  H3  UNL     1      15.578  10.043   0.043  1.00  0.00     0.218 HD
ENDBRANCH   8   9
BRANCH   5  11
HETATM   11  C6  UNL     1       9.707   9.803   1.641  1.00  0.00     0.041 C 
BRANCH  11  12
HETATM   12  C7  UNL     1       8.628   9.989   2.267  1.00  0.00     0.044 A 
HETATM   13  C8  UNL     1       8.785   9.912   3.704  1.00  0.00     0.037 A 
HETATM   14  C9  UNL     1       7.728   9.955   4.550  1.00  0.00    -0.048 A 
HETATM   15  C10 UNL     1       7.920   9.875   6.026  1.00  0.00     0.049 C 
HETATM   16  C11 UNL     1       6.469  10.073   4.048  1.00  0.00    -0.013 A 
HETATM   17  C12 UNL     1       5.483  10.115   4.901  1.00  0.00     0.026 C 
HETATM   18  C13 UNL     1       6.267  10.153   2.668  1.00  0.00     0.043 A 
HETATM   19  C14 UNL     1       5.024  10.206   2.279  1.00  0.00     0.044 C 
HETATM   20  N1  UNL     1       7.372  10.114   1.807  1.00  0.00    -0.281 N 
HETATM   21  C15 UNL     1       7.141  10.399   0.600  1.00  0.00     0.236 C 
HETATM   22  N2  UNL     1       7.905  10.666  -0.537  1.00  0.00    -0.056 NA
BRANCH  21  23
HETATM   23  O1  UNL     1       5.754  10.489   0.220  1.00  0.00    -0.334 OA
ATOM     24  H1  UNL     1       5.510  10.056  -0.590  1.00  0.00     0.220 HD
ENDBRANCH  21  23
ENDBRANCH  11  12
ENDBRANCH   5  11
BRANCH   7  25
HETATM   25  O2  UNL     1      13.669  11.744  -0.225  1.00  0.00    -0.353 OA
HETATM   26  C18 UNL     1      13.061  13.014  -0.349  1.00  0.00     0.210 C 
ENDBRANCH   7  25
TORSDOF 5
ENDMDL
MODEL 3
REMARK VINA RESULT: -8.881414068      2.109      7.450
REMARK  5 active torsions:
REMARK  status: ('A' for Active; 'I' for Inactive)
REMARK    1  A    between atoms: C5_5  and  C6_6 
REMARK    2  A    between atoms: C6_6  and  C7_7 
REMARK    3  A    between atoms: C15_16  and  O1_18 
REMARK    4  A    between atoms: C17_21  and  O2_22 
REMARK    5  A    between atoms: C19_24  and  O3_25 
ROOT
HETATM    1  C1  UNL     1       4.360  10.068   5.274  1.00  0.00     0.018 C 
HETATM    2  C2  UNL     1       5.158  10.100   4.369  1.00  0.00    -0.075 C 
HETATM    3  C3  UNL     1       6.126  10.141   3.285  1.00  0.00     0.053 A 
HETATM    4  C4  UNL     1       7.473   9.958   3.514  1.00  0.00     0.035 A 
HETATM    5  C5  UNL     1       8.412   9.990   2.506  1.00  0.00    -0.030 A 
HETATM    6  C16 UNL     1       7.979  10.217   1.203  1.00  0.00     0.051 A 
HETATM    7  C17 UNL     1       6.645  10.399   0.972  1.00  0.00     0.103 A 
HETATM    8  C19 UNL     1       5.714  10.365   1.985  1.00  0.00     0.117 A 
ENDROOT
BRANCH   8   9
HETATM    9  O3  UNL     1       4.365  10.554   1.703  1.00  0.00    -0.357 OA
ATOM     10  H3  UNL     1       4.096  11.226   1.088  1.00  0.00     0.218 HD
ENDBRANCH   8   9
BRANCH   5  11
HETATM   11  C6  UNL     1       9.802   9.896   2.750  1.00  0.00     0.041 C 
BRANCH  11  12
HETATM   12  C7  UNL     1      11.004   9.763   2.393  1.00  0.00     0.044 A 
HETATM   13  C8  UNL     1      11.508  10.903   1.659  1.00  0.00     0.037 A 
HETATM   14  C9  UNL     1      12.732  10.906   1.078  1.00  0.00    -0.048 A 
HETATM   15  C10 UNL     1      13.227  12.095   0.329  1.00  0.00     0.049 C 
HETATM   16  C11 UNL     1      13.526   9.805   1.178  1.00  0.00    -0.013 A 
HETATM   17  C12 UNL     1      14.697   9.854   0.606  1.00  0.00     0.026 C 
HETATM   18  C13 UNL     1      13.083   8.680   1.879  1.00  0.00     0.043 A 
HETATM   19  C14 UNL     1      13.888   7.654   1.871  1.00  0.00     0.044 C 
HETATM   20  N1  UNL     1      11.817   8.697   2.480  1.00  0.00    -0.281 N 
HETATM   21  C15 UNL     1      11.567   7.742   3.265  1.00  0.00     0.236 C 
HETATM   22  N2  UNL     1      10.572   7.436   4.194  1.00  0.00    -0.056 NA
BRANCH  21  23
HETATM   23  O1  UNL     1      12.504   6.647   3.257  1.00  0.00    -0.334 OA
ATOM     24  H1  UNL     1      12.261   5.882   3.766  1.00  0.00     0.220 HD
ENDBRANCH  21  23
ENDBRANCH  11  12
ENDBRANCH   5  11
BRANCH   7  25
HETATM   25  O2  UNL     1       6.225  10.628  -0.352  1.00  0.00    -0.353 OA
HETATM   26  C18 UNL     1       7.155  10.997  -1.349  1.00  0.00     0.210 C 
ENDBRANCH   7  25
TORSDOF 5
ENDMDL
MODEL 4
REMARK VINA RESULT: -8.875358295      2.596      3.915
REMARK  5 active torsions:
REMARK  status: ('A' for Active; 'I' for Inactive)
REMARK    1  A    between atoms: C5_5  and  C6_6 
REMARK    2  A    between atoms: C6_6  and  C7_7 
REMARK    3  A    between atoms: C15_16  and  O1_18 
REMARK    4  A    between atoms: C17_21  and  O2_22 
REMARK    5  A    between atoms: C19_24  and  O3_25 
ROOT
HETATM    1  C1  UNL     1      13.978  14.503  -2.224  1.00  0.00     0.018 C 
HETATM    2  C2  UNL     1      14.009  13.448  -1.640  1.00  0.00    -0.075 C 
HETATM    3  C3  UNL     1      14.041  12.180  -0.930  1.00  0.00     0.053 A 
HETATM    4  C4  UNL     1      13.016  11.797  -0.091  1.00  0.00     0.035 A 
HETATM    5  C5  UNL     1      13.019  10.601   0.594  1.00  0.00    -0.030 A 
HETATM    6  C16 UNL     1      14.105   9.745   0.429  1.00  0.00     0.051 A 
HETATM    7  C17 UNL     1      15.123  10.121  -0.401  1.00  0.00     0.103 A 
HETATM    8  C19 UNL     1      15.111  11.318  -1.081  1.00  0.00     0.117 A 
ENDROOT
BRANCH   8   9
HETATM    9  O3  UNL     1      16.169  11.659  -1.917  1.00  0.00    -0.357 OA
ATOM     10  H3  UNL     1      16.300  12.563  -2.175  1.00  0.00     0.218 HD
ENDBRANCH   8   9
BRANCH   5  11
HETATM   11  C6  UNL     1      12.016  10.248   1.525  1.00  0.00     0.041 C 
BRANCH  11  12
HETATM   12  C7  UNL     1      10.886   9.792   1.848  1.00  0.00     0.044 A 
HETATM   13  C8  UNL     1       9.793  10.443   1.160  1.00  0.00     0.037 A 
HETATM   14  C9  UNL     1       8.496  10.188   1.459  1.00  0.00    -0.048 A 
HETATM   15  C10 UNL     1       7.389  10.872   0.732  1.00  0.00     0.049 C 
HETATM   16  C11 UNL     1       8.195   9.293   2.438  1.00  0.00    -0.013 A 
HETATM   17  C12 UNL     1       6.933   9.077   2.689  1.00  0.00     0.026 C 
HETATM   18  C13 UNL     1       9.217   8.637   3.130  1.00  0.00     0.043 A 
HETATM   19  C14 UNL     1       8.833   7.842   4.090  1.00  0.00     0.044 C 
HETATM   20  N1  UNL     1      10.553   8.907   2.803  1.00  0.00    -0.281 N 
HETATM   21  C15 UNL     1      11.412   8.136   3.313  1.00  0.00     0.236 C 
HETATM   22  N2  UNL     1      12.776   7.897   3.147  1.00  0.00    -0.056 NA
BRANCH  21  23
HETATM   23  O1  UNL     1      10.938   7.244   4.341  1.00  0.00    -0.334 OA
ATOM     24  H1  UNL     1      11.472   7.184   5.125  1.00  0.00     0.220 HD
ENDBRANCH  21  23
ENDBRANCH  11  12
ENDBRANCH   5  11
BRANCH   7  25
HETATM   25  O2  UNL     1      16.213   9.244  -0.555  1.00  0.00    -0.353 OA
HETATM   26  C18 UNL     1      16.113   8.112  -1.395  1.00  0.00     0.210 C 
ENDBRANCH   7  25
TORSDOF 5
ENDMDL
MODEL 5
REMARK VINA RESULT: -8.660985809      1.747      3.821
REMARK  5 active torsions:
REMARK  status: ('A' for Active; 'I' for Inactive)
REMARK    1  A    between atoms: C5_5  and  C6_6 
REMARK    2  A    between atoms: C6_6  and  C7_7 
REMARK    3  A    between atoms: C15_16  and  O1_18 
REMARK    4  A    between atoms: C17_21  and  O2_22 
REMARK    5  A    between atoms: C19_24  and  O3_25 
ROOT
HETATM    1  C1  UNL     1      15.402   6.488   3.310  1.00  0.00     0.018 C 
HETATM    2  C2  UNL     1      14.652   7.305   2.834  1.00  0.00    -0.075 C 
HETATM    3  C3  UNL     1      13.743   8.283   2.261  1.00  0.00     0.053 A 
HETATM    4  C4  UNL     1      12.379   8.189   2.436  1.00  0.00     0.035 A 
HETATM    5  C5  UNL     1      11.493   9.102   1.905  1.00  0.00    -0.030 A 
HETATM    6  C16 UNL     1      12.001  10.162   1.160  1.00  0.00     0.051 A 
HETATM    7  C17 UNL     1      13.352  10.259   0.983  1.00  0.00     0.103 A 
HETATM    8  C19 UNL     1      14.229   9.343   1.519  1.00  0.00     0.117 A 
ENDROOT
BRANCH   8   9
HETATM    9  O3  UNL     1      15.598   9.482   1.314  1.00  0.00    -0.357 OA
ATOM     10  H3  UNL     1      15.930  10.198   0.786  1.00  0.00     0.218 HD
ENDBRANCH   8   9
BRANCH   5  11
HETATM   11  C6  UNL     1      10.090   8.956   2.004  1.00  0.00     0.041 C 
BRANCH  11  12
HETATM   12  C7  UNL     1       8.903   9.374   1.922  1.00  0.00     0.044 A 
HETATM   13  C8  UNL     1       8.622  10.043   0.671  1.00  0.00     0.037 A 
HETATM   14  C9  UNL     1       7.447  10.675   0.436  1.00  0.00    -0.048 A 
HETATM   15  C10 UNL     1       7.183  11.355  -0.863  1.00  0.00     0.049 C 
HETATM   16  C11 UNL     1       6.488  10.692   1.402  1.00  0.00    -0.013 A 
HETATM   17  C12 UNL     1       5.372  11.309   1.130  1.00  0.00     0.026 C 
HETATM   18  C13 UNL     1       6.713  10.057   2.627  1.00  0.00     0.043 A 
HETATM   19  C14 UNL     1       5.761  10.176   3.510  1.00  0.00     0.044 C 
HETATM   20  N1  UNL     1       7.931   9.402   2.850  1.00  0.00    -0.281 N 
HETATM   21  C15 UNL     1       7.988   8.679   3.882  1.00  0.00     0.236 C 
HETATM   22  N2  UNL     1       8.871   7.732   4.403  1.00  0.00    -0.056 NA
BRANCH  21  23
HETATM   23  O1  UNL     1       6.895   8.809   4.813  1.00  0.00    -0.334 OA
ATOM     24  H1  UNL     1       6.035   8.950   4.434  1.00  0.00     0.220 HD
ENDBRANCH  21  23
ENDBRANCH  11  12
ENDBRANCH   5  11
BRANCH   7  25
HETATM   25  O2  UNL     1      13.848  11.338   0.227  1.00  0.00    -0.353 OA
HETATM   26  C18 UNL     1      13.849  11.287  -1.185  1.00  0.00     0.210 C 
ENDBRANCH   7  25
TORSDOF 5
ENDMDL
