MODEL 1
REMARK VINA RESULT: -7.734270435      0.000      0.000
REMARK  8 active torsions:
REMARK  status: ('A' for Active; 'I' for Inactive)
REMARK    1  A    between atoms: C5_5  and  O1_6 
REMARK    2  A    between atoms: C6_8  and  C7_9 
REMARK    3  A    between atoms: C7_9  and  C8_10 
REMARK    4  A    between atoms: C8_10  and  N1_11 
REMARK    5  A    between atoms: C11_14  and  O2_15 
REMARK    6  A    between atoms: O2_15  and  C12_16 
REMARK    7  A    between atoms: C12_16  and  C13_17 
REMARK    8  A    between atoms: C15_19  and  C16_20 
ROOT
HETATM    1  N1  UNL     1     -76.642 -67.160  50.514  1.00  0.00    -0.374 N 
HETATM    2  C9  UNL     1     -76.006 -68.264  51.084  1.00  0.00     0.065 C 
HETATM    3  C10 UNL     1     -75.145 -67.921  52.296  1.00  0.00     0.076 C 
HETATM    4  C11 UNL     1     -74.081 -66.899  52.025  1.00  0.00     0.127 C 
HETATM    5  C20 UNL     1     -74.582 -65.980  50.936  1.00  0.00     0.052 C 
HETATM    6  C21 UNL     1     -76.097 -65.877  50.961  1.00  0.00     0.129 C 
ENDROOT
BRANCH   4   7
HETATM    7  O2  UNL     1     -73.846 -66.239  53.214  1.00  0.00    -0.385 OA
BRANCH   7   8
HETATM    8  C12 UNL     1     -74.053 -66.968  54.369  1.00  0.00     0.173 C 
BRANCH   8   9
HETATM    9  C13 UNL     1     -74.120 -66.205  55.634  1.00  0.00     0.019 A 
HETATM   10  C14 UNL     1     -74.786 -66.764  56.845  1.00  0.00     0.017 A 
HETATM   11  C15 UNL     1     -75.230 -65.456  56.179  1.00  0.00     0.028 A 
BRANCH  11  12
HETATM   12  C16 UNL     1     -76.638 -65.492  55.800  1.00  0.00    -0.023 A 
HETATM   13  C17 UNL     1     -77.560 -65.122  56.756  1.00  0.00     0.097 A 
HETATM   14  N2  UNL     1     -78.872 -65.114  56.471  1.00  0.00    -0.362 N 
HETATM   15  C18 UNL     1     -79.320 -65.463  55.252  1.00  0.00     0.180 A 
ATOM     16  H2  UNL     1     -79.540 -64.838  57.190  1.00  0.00     0.166 HD
HETATM   17  N3  UNL     1     -78.415 -65.821  54.330  1.00  0.00    -0.362 N 
HETATM   18  C19 UNL     1     -77.094 -65.846  54.562  1.00  0.00     0.097 A 
ATOM     19  H3  UNL     1     -78.748 -66.087  53.403  1.00  0.00     0.166 HD
ENDBRANCH  11  12
ENDBRANCH   8   9
ENDBRANCH   7   8
ENDBRANCH   4   7
BRANCH   1  20
HETATM   20  C8  UNL     1     -77.071 -67.159  49.184  1.00  0.00     0.063 C 
BRANCH  20  21
HETATM   21  C7  UNL     1     -78.410 -66.686  48.811  1.00  0.00     0.052 C 
BRANCH  21  22
HETATM   22  C6  UNL     1     -78.550 -65.321  48.273  1.00  0.00     0.023 C 
HETATM   23  C2  UNL     1     -78.664 -64.209  49.261  1.00  0.00    -0.012 C 
HETATM   24  C1  UNL     1     -79.711 -64.423  50.330  1.00  0.00     0.010 C 
HETATM   25  C3  UNL     1     -79.150 -63.070  48.378  1.00  0.00     0.007 C 
HETATM   26  C4  UNL     1     -80.124 -63.734  47.423  1.00  0.00     0.032 C 
HETATM   27  C5  UNL     1     -79.846 -65.196  47.465  1.00  0.00     0.122 C 
BRANCH  27  28
HETATM   28  O1  UNL     1     -80.858 -65.989  47.942  1.00  0.00    -0.395 OA
ATOM     29  H1  UNL     1     -80.924 -66.058  48.887  1.00  0.00     0.210 HD
ENDBRANCH  27  28
ENDBRANCH  21  22
ENDBRANCH  20  21
ENDBRANCH   1  20
TORSDOF 8
ENDMDL
MODEL 2
REMARK VINA RESULT: -7.709249833      2.312      4.046
REMARK  8 active torsions:
REMARK  status: ('A' for Active; 'I' for Inactive)
REMARK    1  A    between atoms: C5_5  and  O1_6 
REMARK    2  A    between atoms: C6_8  and  C7_9 
REMARK    3  A    between atoms: C7_9  and  C8_10 
REMARK    4  A    between atoms: C8_10  and  N1_11 
REMARK    5  A    between atoms: C11_14  and  O2_15 
REMARK    6  A    between atoms: O2_15  and  C12_16 
REMARK    7  A    between atoms: C12_16  and  C13_17 
REMARK    8  A    between atoms: C15_19  and  C16_20 
ROOT
HETATM    1  N1  UNL     1     -79.535 -65.676  52.686  1.00  0.00    -0.374 N 
HETATM    2  C9  UNL     1     -78.155 -65.747  52.884  1.00  0.00     0.065 C 
HETATM    3  C10 UNL     1     -77.748 -65.880  54.348  1.00  0.00     0.076 C 
HETATM    4  C11 UNL     1     -78.256 -64.779  55.230  1.00  0.00     0.127 C 
HETATM    5  C20 UNL     1     -79.566 -64.288  54.658  1.00  0.00     0.052 C 
HETATM    6  C21 UNL     1     -80.287 -65.397  53.910  1.00  0.00     0.129 C 
ENDROOT
BRANCH   4   7
HETATM    7  O2  UNL     1     -78.393 -65.310  56.497  1.00  0.00    -0.385 OA
BRANCH   7   8
HETATM    8  C12 UNL     1     -77.675 -66.460  56.758  1.00  0.00     0.173 C 
BRANCH   8   9
HETATM    9  C13 UNL     1     -76.409 -66.299  57.506  1.00  0.00     0.019 A 
HETATM   10  C14 UNL     1     -75.494 -65.150  57.248  1.00  0.00     0.017 A 
HETATM   11  C15 UNL     1     -75.064 -66.612  57.081  1.00  0.00     0.028 A 
BRANCH  11  12
HETATM   12  C16 UNL     1     -74.562 -66.880  55.738  1.00  0.00    -0.023 A 
HETATM   13  C17 UNL     1     -74.709 -68.161  55.251  1.00  0.00     0.097 A 
HETATM   14  N2  UNL     1     -74.286 -68.474  54.016  1.00  0.00    -0.362 N 
HETATM   15  C18 UNL     1     -73.712 -67.552  53.224  1.00  0.00     0.180 A 
ATOM     16  H2  UNL     1     -74.402 -69.428  53.673  1.00  0.00     0.166 HD
HETATM   17  N3  UNL     1     -73.574 -66.309  53.707  1.00  0.00    -0.362 N 
HETATM   18  C19 UNL     1     -73.979 -65.943  54.932  1.00  0.00     0.097 A 
ATOM     19  H3  UNL     1     -73.139 -65.604  53.110  1.00  0.00     0.166 HD
ENDBRANCH  11  12
ENDBRANCH   8   9
ENDBRANCH   7   8
ENDBRANCH   4   7
BRANCH   1  20
HETATM   20  C8  UNL     1     -80.090 -65.100  51.539  1.00  0.00     0.063 C 
BRANCH  20  21
HETATM   21  C7  UNL     1     -79.262 -64.366  50.573  1.00  0.00     0.052 C 
BRANCH  21  22
HETATM   22  C6  UNL     1     -79.738 -64.252  49.183  1.00  0.00     0.023 C 
HETATM   23  C2  UNL     1     -79.324 -65.324  48.233  1.00  0.00    -0.012 C 
HETATM   24  C1  UNL     1     -77.841 -65.614  48.219  1.00  0.00     0.010 C 
HETATM   25  C3  UNL     1     -79.670 -64.689  46.894  1.00  0.00     0.007 C 
HETATM   26  C4  UNL     1     -79.287 -63.232  47.068  1.00  0.00     0.032 C 
HETATM   27  C5  UNL     1     -79.181 -62.982  48.532  1.00  0.00     0.122 C 
BRANCH  27  28
HETATM   28  O1  UNL     1     -77.937 -62.638  48.996  1.00  0.00    -0.395 OA
ATOM     29  H1  UNL     1     -77.431 -63.338  49.392  1.00  0.00     0.210 HD
ENDBRANCH  27  28
ENDBRANCH  21  22
ENDBRANCH  20  21
ENDBRANCH   1  20
TORSDOF 8
ENDMDL
MODEL 3
REMARK VINA RESULT: -7.684475222      3.493      9.001
REMARK  8 active torsions:
REMARK  status: ('A' for Active; 'I' for Inactive)
REMARK    1  A    between atoms: C5_5  and  O1_6 
REMARK    2  A    between atoms: C6_8  and  C7_9 
REMARK    3  A    between atoms: C7_9  and  C8_10 
REMARK    4  A    between atoms: C8_10  and  N1_11 
REMARK    5  A    between atoms: C11_14  and  O2_15 
REMARK    6  A    between atoms: O2_15  and  C12_16 
REMARK    7  A    between atoms: C12_16  and  C13_17 
REMARK    8  A    between atoms: C15_19  and  C16_20 
ROOT
HETATM    1  N1  UNL     1     -77.834 -65.261  52.069  1.00  0.00    -0.374 N 
HETATM    2  C9  UNL     1     -77.314 -65.323  50.775  1.00  0.00     0.065 C 
HETATM    3  C10 UNL     1     -78.086 -64.486  49.760  1.00  0.00     0.076 C 
HETATM    4  C11 UNL     1     -79.541 -64.832  49.657  1.00  0.00     0.127 C 
HETATM    5  C20 UNL     1     -79.999 -65.332  51.008  1.00  0.00     0.052 C 
HETATM    6  C21 UNL     1     -79.187 -64.704  52.128  1.00  0.00     0.129 C 
ENDROOT
BRANCH   4   7
HETATM    7  O2  UNL     1     -80.199 -63.686  49.261  1.00  0.00    -0.385 OA
BRANCH   7   8
HETATM    8  C12 UNL     1     -79.737 -63.083  48.108  1.00  0.00     0.173 C 
BRANCH   8   9
HETATM    9  C13 UNL     1     -80.070 -63.749  46.830  1.00  0.00     0.019 A 
HETATM   10  C14 UNL     1     -80.136 -62.987  45.550  1.00  0.00     0.017 A 
HETATM   11  C15 UNL     1     -81.330 -63.762  46.121  1.00  0.00     0.028 A 
BRANCH  11  12
HETATM   12  C16 UNL     1     -82.496 -62.905  46.302  1.00  0.00    -0.023 A 
HETATM   13  C17 UNL     1     -83.667 -63.291  45.684  1.00  0.00     0.097 A 
HETATM   14  N2  UNL     1     -84.784 -62.559  45.822  1.00  0.00    -0.362 N 
HETATM   15  C18 UNL     1     -84.792 -61.438  46.564  1.00  0.00     0.180 A 
ATOM     16  H2  UNL     1     -85.640 -62.859  45.357  1.00  0.00     0.166 HD
HETATM   17  N3  UNL     1     -83.649 -61.072  47.161  1.00  0.00    -0.362 N 
HETATM   18  C19 UNL     1     -82.506 -61.765  47.056  1.00  0.00     0.097 A 
ATOM     19  H3  UNL     1     -83.649 -60.222  47.726  1.00  0.00     0.166 HD
ENDBRANCH  11  12
ENDBRANCH   8   9
ENDBRANCH   7   8
ENDBRANCH   4   7
BRANCH   1  20
HETATM   20  C8  UNL     1     -77.597 -66.266  53.011  1.00  0.00     0.063 C 
BRANCH  20  21
HETATM   21  C7  UNL     1     -77.506 -65.966  54.445  1.00  0.00     0.052 C 
BRANCH  21  22
HETATM   22  C6  UNL     1     -76.457 -66.631  55.239  1.00  0.00     0.023 C 
HETATM   23  C2  UNL     1     -76.747 -66.875  56.680  1.00  0.00    -0.012 C 
HETATM   24  C1  UNL     1     -77.237 -65.663  57.438  1.00  0.00     0.010 C 
HETATM   25  C3  UNL     1     -75.362 -67.209  57.215  1.00  0.00     0.007 C 
HETATM   26  C4  UNL     1     -74.443 -66.257  56.473  1.00  0.00     0.032 C 
HETATM   27  C5  UNL     1     -75.193 -65.765  55.285  1.00  0.00     0.122 C 
BRANCH  27  28
HETATM   28  O1  UNL     1     -75.460 -64.420  55.255  1.00  0.00    -0.395 OA
ATOM     29  H1  UNL     1     -74.811 -63.856  55.660  1.00  0.00     0.210 HD
ENDBRANCH  27  28
ENDBRANCH  21  22
ENDBRANCH  20  21
ENDBRANCH   1  20
TORSDOF 8
ENDMDL
MODEL 4
REMARK VINA RESULT: -7.615707396      1.444      1.962
REMARK  8 active torsions:
REMARK  status: ('A' for Active; 'I' for Inactive)
REMARK    1  A    between atoms: C5_5  and  O1_6 
REMARK    2  A    between atoms: C6_8  and  C7_9 
REMARK    3  A    between atoms: C7_9  and  C8_10 
REMARK    4  A    between atoms: C8_10  and  N1_11 
REMARK    5  A    between atoms: C11_14  and  O2_15 
REMARK    6  A    between atoms: O2_15  and  C12_16 
REMARK    7  A    between atoms: C12_16  and  C13_17 
REMARK    8  A    between atoms: C15_19  and  C16_20 
ROOT
HETATM    1  N1  UNL     1     -76.655 -67.767  51.590  1.00  0.00    -0.374 N 
HETATM    2  C9  UNL     1     -75.502 -68.552  51.546  1.00  0.00     0.065 C 
HETATM    3  C10 UNL     1     -74.730 -68.587  52.862  1.00  0.00     0.076 C 
HETATM    4  C11 UNL     1     -74.317 -67.238  53.368  1.00  0.00     0.127 C 
HETATM    5  C20 UNL     1     -75.343 -66.230  52.906  1.00  0.00     0.052 C 
HETATM    6  C21 UNL     1     -76.710 -66.874  52.748  1.00  0.00     0.129 C 
ENDROOT
BRANCH   4   7
HETATM    7  O2  UNL     1     -74.242 -67.331  54.743  1.00  0.00    -0.385 OA
BRANCH   7   8
HETATM    8  C12 UNL     1     -74.056 -66.145  55.426  1.00  0.00     0.173 C 
BRANCH   8   9
HETATM    9  C13 UNL     1     -74.420 -66.139  56.860  1.00  0.00     0.019 A 
HETATM   10  C14 UNL     1     -75.229 -67.238  57.462  1.00  0.00     0.017 A 
HETATM   11  C15 UNL     1     -75.678 -65.772  57.470  1.00  0.00     0.028 A 
BRANCH  11  12
HETATM   12  C16 UNL     1     -76.987 -65.603  56.849  1.00  0.00    -0.023 A 
HETATM   13  C17 UNL     1     -77.085 -64.695  55.816  1.00  0.00     0.097 A 
HETATM   14  N2  UNL     1     -78.255 -64.501  55.188  1.00  0.00    -0.362 N 
HETATM   15  C18 UNL     1     -79.357 -65.184  55.545  1.00  0.00     0.180 A 
ATOM     16  H2  UNL     1     -78.309 -63.824  54.426  1.00  0.00     0.166 HD
HETATM   17  N3  UNL     1     -79.251 -66.065  56.549  1.00  0.00    -0.362 N 
HETATM   18  C19 UNL     1     -78.107 -66.297  57.211  1.00  0.00     0.097 A 
ATOM     19  H3  UNL     1     -80.083 -66.587  56.825  1.00  0.00     0.166 HD
ENDBRANCH  11  12
ENDBRANCH   8   9
ENDBRANCH   7   8
ENDBRANCH   4   7
BRANCH   1  20
HETATM   20  C8  UNL     1     -77.228 -67.228  50.434  1.00  0.00     0.063 C 
BRANCH  20  21
HETATM   21  C7  UNL     1     -77.590 -65.808  50.349  1.00  0.00     0.052 C 
BRANCH  21  22
HETATM   22  C6  UNL     1     -78.890 -65.447  49.757  1.00  0.00     0.023 C 
HETATM   23  C2  UNL     1     -79.160 -65.922  48.370  1.00  0.00    -0.012 C 
HETATM   24  C1  UNL     1     -78.067 -65.610  47.374  1.00  0.00     0.010 C 
HETATM   25  C3  UNL     1     -80.367 -65.076  47.991  1.00  0.00     0.007 C 
HETATM   26  C4  UNL     1     -80.070 -63.719  48.600  1.00  0.00     0.032 C 
HETATM   27  C5  UNL     1     -79.014 -63.925  49.629  1.00  0.00     0.122 C 
BRANCH  27  28
HETATM   28  O1  UNL     1     -77.815 -63.304  49.395  1.00  0.00    -0.395 OA
ATOM     29  H1  UNL     1     -77.040 -63.763  49.697  1.00  0.00     0.210 HD
ENDBRANCH  27  28
ENDBRANCH  21  22
ENDBRANCH  20  21
ENDBRANCH   1  20
TORSDOF 8
ENDMDL
MODEL 5
REMARK VINA RESULT: -7.591344159      2.529      8.665
REMARK  8 active torsions:
REMARK  status: ('A' for Active; 'I' for Inactive)
REMARK    1  A    between atoms: C5_5  and  O1_6 
REMARK    2  A    between atoms: C6_8  and  C7_9 
REMARK    3  A    between atoms: C7_9  and  C8_10 
REMARK    4  A    between atoms: C8_10  and  N1_11 
REMARK    5  A    between atoms: C11_14  and  O2_15 
REMARK    6  A    between atoms: O2_15  and  C12_16 
REMARK    7  A    between atoms: C12_16  and  C13_17 
REMARK    8  A    between atoms: C15_19  and  C16_20 
ROOT
HETATM    1  N1  UNL     1     -78.533 -65.231  53.496  1.00  0.00    -0.374 N 
HETATM    2  C9  UNL     1     -77.951 -65.842  52.385  1.00  0.00     0.065 C 
HETATM    3  C10 UNL     1     -78.348 -65.210  51.054  1.00  0.00     0.076 C 
HETATM    4  C11 UNL     1     -79.827 -65.178  50.806  1.00  0.00     0.127 C 
HETATM    5  C20 UNL     1     -80.524 -65.074  52.143  1.00  0.00     0.052 C 
HETATM    6  C21 UNL     1     -79.654 -64.352  53.158  1.00  0.00     0.129 C 
ENDROOT
BRANCH   4   7
HETATM    7  O2  UNL     1     -80.074 -64.092  49.990  1.00  0.00    -0.385 OA
BRANCH   7   8
HETATM    8  C12 UNL     1     -79.036 -63.694  49.172  1.00  0.00     0.173 C 
BRANCH   8   9
HETATM    9  C13 UNL     1     -79.375 -62.767  48.070  1.00  0.00     0.019 A 
HETATM   10  C14 UNL     1     -80.791 -62.485  47.699  1.00  0.00     0.017 A 
HETATM   11  C15 UNL     1     -79.776 -63.081  46.718  1.00  0.00     0.028 A 
BRANCH  11  12
HETATM   12  C16 UNL     1     -80.236 -64.350  46.166  1.00  0.00    -0.023 A 
HETATM   13  C17 UNL     1     -80.556 -64.378  44.825  1.00  0.00     0.097 A 
HETATM   14  N2  UNL     1     -80.970 -65.517  44.247  1.00  0.00    -0.362 N 
HETATM   15  C18 UNL     1     -81.081 -66.655  44.954  1.00  0.00     0.180 A 
ATOM     16  H2  UNL     1     -81.204 -65.519  43.254  1.00  0.00     0.166 HD
HETATM   17  N3  UNL     1     -80.766 -66.617  46.257  1.00  0.00    -0.362 N 
HETATM   18  C19 UNL     1     -80.348 -65.508  46.884  1.00  0.00     0.097 A 
ATOM     19  H3  UNL     1     -80.848 -67.478  46.799  1.00  0.00     0.166 HD
ENDBRANCH  11  12
ENDBRANCH   8   9
ENDBRANCH   7   8
ENDBRANCH   4   7
BRANCH   1  20
HETATM   20  C8  UNL     1     -78.687 -65.901  54.713  1.00  0.00     0.063 C 
BRANCH  20  21
HETATM   21  C7  UNL     1     -77.767 -65.675  55.834  1.00  0.00     0.052 C 
BRANCH  21  22
HETATM   22  C6  UNL     1     -76.590 -66.552  55.967  1.00  0.00     0.023 C 
HETATM   23  C2  UNL     1     -75.912 -66.585  57.294  1.00  0.00    -0.012 C 
HETATM   24  C1  UNL     1     -75.573 -65.225  57.860  1.00  0.00     0.010 C 
HETATM   25  C3  UNL     1     -74.598 -67.267  56.945  1.00  0.00     0.007 C 
HETATM   26  C4  UNL     1     -74.233 -66.689  55.591  1.00  0.00     0.032 C 
HETATM   27  C5  UNL     1     -75.474 -66.095  55.022  1.00  0.00     0.122 C 
BRANCH  27  28
HETATM   28  O1  UNL     1     -75.457 -64.739  54.824  1.00  0.00    -0.395 OA
ATOM     29  H1  UNL     1     -76.246 -64.270  55.071  1.00  0.00     0.210 HD
ENDBRANCH  27  28
ENDBRANCH  21  22
ENDBRANCH  20  21
ENDBRANCH   1  20
TORSDOF 8
ENDMDL
