MODEL 1
REMARK VINA RESULT: -6.894193740      0.000      0.000
REMARK  7 active torsions:
REMARK  status: ('A' for Active; 'I' for Inactive)
REMARK    1  A    between atoms: C2_2  and  S1_4 
REMARK    2  A    between atoms: S1_4  and  C4_5 
REMARK    3  A    between atoms: C4_5  and  C5_6 
REMARK    4  A    between atoms: C5_6  and  C6_7 
REMARK    5  A    between atoms: C12_14  and  C13_15 
REMARK       I    between atoms: C13_15  and  N1_17 
REMARK    6  A    between atoms: N1_17  and  S2_19 
REMARK    7  A    between atoms: S2_19  and  C14_22 
ROOT
HETATM    1  C5  UNL     1     -75.923 -66.608  51.690  1.00  0.00     0.008 C 
HETATM    2  C8  UNL     1     -76.486 -67.958  51.551  1.00  0.00     0.014 C 
HETATM    3  C9  UNL     1     -77.170 -68.183  50.213  1.00  0.00     0.001 C 
HETATM    4  C10 UNL     1     -76.895 -67.176  49.162  1.00  0.00     0.001 C 
HETATM    5  C11 UNL     1     -77.088 -65.791  49.632  1.00  0.00     0.015 C 
HETATM    6  C12 UNL     1     -76.852 -65.547  51.109  1.00  0.00     0.090 C 
ENDROOT
BRANCH   6   7
HETATM    7  C13 UNL     1     -78.182 -65.462  51.709  1.00  0.00     0.235 C 
HETATM    8  O2  UNL     1     -79.254 -65.661  51.125  1.00  0.00    -0.272 OA
HETATM    9  N1  UNL     1     -78.264 -65.116  53.091  1.00  0.00    -0.254 N 
ATOM     10  H1  UNL     1     -77.405 -64.944  53.613  1.00  0.00     0.181 HD
BRANCH   9  11
HETATM   11  S2  UNL     1     -79.776 -64.981  53.894  1.00  0.00     0.237 S 
HETATM   12  O3  UNL     1     -80.604 -63.838  53.447  1.00  0.00    -0.205 OA
HETATM   13  O4  UNL     1     -80.537 -66.257  53.599  1.00  0.00    -0.205 OA
BRANCH  11  14
HETATM   14  C14 UNL     1     -79.611 -64.890  55.656  1.00  0.00     0.130 A 
HETATM   15  C15 UNL     1     -78.305 -64.782  56.320  1.00  0.00     0.023 A 
HETATM   16  C16 UNL     1     -78.932 -66.140  56.239  1.00  0.00     0.023 A 
ENDBRANCH  11  14
ENDBRANCH   9  11
ENDBRANCH   6   7
BRANCH   1  17
HETATM   17  C4  UNL     1     -75.445 -66.182  53.020  1.00  0.00     0.087 C 
BRANCH  17  18
HETATM   18  S1  UNL     1     -75.343 -67.118  54.454  1.00  0.00    -0.164 SA
BRANCH  18  19
HETATM   19  C2  UNL     1     -74.840 -66.511  56.010  1.00  0.00     0.039 C 
HETATM   20  C1  UNL     1     -74.972 -65.060  56.284  1.00  0.00     0.021 C 
HETATM   21  C3  UNL     1     -75.455 -67.314  57.175  1.00  0.00     0.021 C 
ENDBRANCH  18  19
ENDBRANCH  17  18
ENDBRANCH   1  17
BRANCH   1  22
HETATM   22  C6  UNL     1     -74.670 -66.511  50.771  1.00  0.00     0.155 A 
HETATM   23  C7  UNL     1     -73.403 -66.998  51.212  1.00  0.00     0.201 A 
HETATM   24  O1  UNL     1     -73.647 -65.668  51.444  1.00  0.00    -0.380 OA
ENDBRANCH   1  22
TORSDOF 7
ENDMDL
MODEL 2
REMARK VINA RESULT: -6.767278047      2.357      4.817
REMARK  7 active torsions:
REMARK  status: ('A' for Active; 'I' for Inactive)
REMARK    1  A    between atoms: C2_2  and  S1_4 
REMARK    2  A    between atoms: S1_4  and  C4_5 
REMARK    3  A    between atoms: C4_5  and  C5_6 
REMARK    4  A    between atoms: C5_6  and  C6_7 
REMARK    5  A    between atoms: C12_14  and  C13_15 
REMARK       I    between atoms: C13_15  and  N1_17 
REMARK    6  A    between atoms: N1_17  and  S2_19 
REMARK    7  A    between atoms: S2_19  and  C14_22 
ROOT
HETATM    1  C5  UNL     1     -76.904 -66.803  51.400  1.00  0.00     0.008 C 
HETATM    2  C8  UNL     1     -76.063 -65.778  50.767  1.00  0.00     0.014 C 
HETATM    3  C9  UNL     1     -74.601 -66.183  50.674  1.00  0.00     0.001 C 
HETATM    4  C10 UNL     1     -74.303 -67.613  50.916  1.00  0.00     0.001 C 
HETATM    5  C11 UNL     1     -74.918 -68.125  52.155  1.00  0.00     0.015 C 
HETATM    6  C12 UNL     1     -76.204 -67.451  52.590  1.00  0.00     0.090 C 
ENDROOT
BRANCH   6   7
HETATM    7  C13 UNL     1     -75.826 -66.552  53.679  1.00  0.00     0.235 C 
HETATM    8  O2  UNL     1     -74.741 -65.969  53.793  1.00  0.00    -0.272 OA
HETATM    9  N1  UNL     1     -76.785 -66.320  54.710  1.00  0.00    -0.254 N 
ATOM     10  H1  UNL     1     -77.694 -66.779  54.656  1.00  0.00     0.181 HD
BRANCH   9  11
HETATM   11  S2  UNL     1     -76.442 -65.288  56.039  1.00  0.00     0.237 S 
HETATM   12  O3  UNL     1     -75.668 -64.077  55.686  1.00  0.00    -0.205 OA
HETATM   13  O4  UNL     1     -77.779 -64.846  56.598  1.00  0.00    -0.205 OA
BRANCH  11  14
HETATM   14  C14 UNL     1     -75.598 -66.122  57.355  1.00  0.00     0.130 A 
HETATM   15  C15 UNL     1     -74.440 -66.995  57.119  1.00  0.00     0.023 A 
HETATM   16  C16 UNL     1     -75.777 -67.647  57.283  1.00  0.00     0.023 A 
ENDBRANCH  11  14
ENDBRANCH   9  11
ENDBRANCH   6   7
BRANCH   1  17
HETATM   17  C4  UNL     1     -78.288 -66.444  51.767  1.00  0.00     0.087 C 
BRANCH  17  18
HETATM   18  S1  UNL     1     -79.089 -64.947  51.525  1.00  0.00    -0.164 SA
BRANCH  18  19
HETATM   19  C2  UNL     1     -79.535 -64.290  49.972  1.00  0.00     0.039 C 
HETATM   20  C1  UNL     1     -78.494 -63.612  49.163  1.00  0.00     0.021 C 
HETATM   21  C3  UNL     1     -80.281 -65.318  49.096  1.00  0.00     0.021 C 
ENDBRANCH  18  19
ENDBRANCH  17  18
ENDBRANCH   1  17
BRANCH   1  22
HETATM   22  C6  UNL     1     -77.055 -67.987  50.401  1.00  0.00     0.155 A 
HETATM   23  C7  UNL     1     -77.633 -67.784  49.112  1.00  0.00     0.201 A 
HETATM   24  O1  UNL     1     -78.498 -68.179  50.101  1.00  0.00    -0.380 OA
ENDBRANCH   1  22
TORSDOF 7
ENDMDL
MODEL 3
REMARK VINA RESULT: -6.704288188      2.628      4.715
REMARK  7 active torsions:
REMARK  status: ('A' for Active; 'I' for Inactive)
REMARK    1  A    between atoms: C2_2  and  S1_4 
REMARK    2  A    between atoms: S1_4  and  C4_5 
REMARK    3  A    between atoms: C4_5  and  C5_6 
REMARK    4  A    between atoms: C5_6  and  C6_7 
REMARK    5  A    between atoms: C12_14  and  C13_15 
REMARK       I    between atoms: C13_15  and  N1_17 
REMARK    6  A    between atoms: N1_17  and  S2_19 
REMARK    7  A    between atoms: S2_19  and  C14_22 
ROOT
HETATM    1  C5  UNL     1     -75.433 -67.309  52.108  1.00  0.00     0.008 C 
HETATM    2  C8  UNL     1     -74.710 -66.134  51.600  1.00  0.00     0.014 C 
HETATM    3  C9  UNL     1     -73.203 -66.248  51.760  1.00  0.00     0.001 C 
HETATM    4  C10 UNL     1     -72.681 -67.595  52.081  1.00  0.00     0.001 C 
HETATM    5  C11 UNL     1     -73.385 -68.229  53.212  1.00  0.00     0.015 C 
HETATM    6  C12 UNL     1     -74.831 -67.821  53.412  1.00  0.00     0.090 C 
ENDROOT
BRANCH   6   7
HETATM    7  C13 UNL     1     -74.820 -66.876  54.527  1.00  0.00     0.235 C 
HETATM    8  O2  UNL     1     -73.853 -66.195  54.890  1.00  0.00    -0.272 OA
HETATM    9  N1  UNL     1     -76.026 -66.720  55.274  1.00  0.00    -0.254 N 
ATOM     10  H1  UNL     1     -76.849 -67.261  55.010  1.00  0.00     0.181 HD
BRANCH   9  11
HETATM   11  S2  UNL     1     -76.122 -65.643  56.609  1.00  0.00     0.237 S 
HETATM   12  O3  UNL     1     -75.272 -66.022  57.759  1.00  0.00    -0.205 OA
HETATM   13  O4  UNL     1     -75.660 -64.291  56.106  1.00  0.00    -0.205 OA
BRANCH  11  14
HETATM   14  C14 UNL     1     -77.780 -65.423  57.194  1.00  0.00     0.130 A 
HETATM   15  C15 UNL     1     -78.801 -66.474  57.083  1.00  0.00     0.023 A 
HETATM   16  C16 UNL     1     -78.800 -65.395  56.044  1.00  0.00     0.023 A 
ENDBRANCH  11  14
ENDBRANCH   9  11
ENDBRANCH   6   7
BRANCH   1  17
HETATM   17  C4  UNL     1     -76.901 -67.227  52.231  1.00  0.00     0.087 C 
BRANCH  17  18
HETATM   18  S1  UNL     1     -77.888 -65.825  52.192  1.00  0.00    -0.164 SA
BRANCH  18  19
HETATM   19  C2  UNL     1     -78.273 -64.913  50.755  1.00  0.00     0.039 C 
HETATM   20  C1  UNL     1     -77.713 -65.361  49.458  1.00  0.00     0.021 C 
HETATM   21  C3  UNL     1     -79.790 -64.671  50.608  1.00  0.00     0.021 C 
ENDBRANCH  18  19
ENDBRANCH  17  18
ENDBRANCH   1  17
BRANCH   1  22
HETATM   22  C6  UNL     1     -75.184 -68.489  51.125  1.00  0.00     0.155 A 
HETATM   23  C7  UNL     1     -75.502 -68.363  49.739  1.00  0.00     0.201 A 
HETATM   24  O1  UNL     1     -76.484 -68.900  50.532  1.00  0.00    -0.380 OA
ENDBRANCH   1  22
TORSDOF 7
ENDMDL
MODEL 4
REMARK VINA RESULT: -6.633447705      1.627      2.293
REMARK  7 active torsions:
REMARK  status: ('A' for Active; 'I' for Inactive)
REMARK    1  A    between atoms: C2_2  and  S1_4 
REMARK    2  A    between atoms: S1_4  and  C4_5 
REMARK    3  A    between atoms: C4_5  and  C5_6 
REMARK    4  A    between atoms: C5_6  and  C6_7 
REMARK    5  A    between atoms: C12_14  and  C13_15 
REMARK       I    between atoms: C13_15  and  N1_17 
REMARK    6  A    between atoms: N1_17  and  S2_19 
REMARK    7  A    between atoms: S2_19  and  C14_22 
ROOT
HETATM    1  C5  UNL     1     -76.616 -66.667  51.483  1.00  0.00     0.008 C 
HETATM    2  C8  UNL     1     -77.294 -67.961  51.637  1.00  0.00     0.014 C 
HETATM    3  C9  UNL     1     -78.533 -68.092  50.767  1.00  0.00     0.001 C 
HETATM    4  C10 UNL     1     -78.686 -67.082  49.695  1.00  0.00     0.001 C 
HETATM    5  C11 UNL     1     -78.522 -65.700  50.181  1.00  0.00     0.015 C 
HETATM    6  C12 UNL     1     -77.613 -65.517  51.381  1.00  0.00     0.090 C 
ENDROOT
BRANCH   6   7
HETATM    7  C13 UNL     1     -78.506 -65.339  52.525  1.00  0.00     0.235 C 
HETATM    8  O2  UNL     1     -79.741 -65.301  52.479  1.00  0.00    -0.272 OA
HETATM    9  N1  UNL     1     -77.910 -65.192  53.812  1.00  0.00    -0.254 N 
ATOM     10  H1  UNL     1     -76.894 -65.218  53.898  1.00  0.00     0.181 HD
BRANCH   9  11
HETATM   11  S2  UNL     1     -78.865 -64.970  55.223  1.00  0.00     0.237 S 
HETATM   12  O3  UNL     1     -79.532 -63.651  55.305  1.00  0.00    -0.205 OA
HETATM   13  O4  UNL     1     -79.937 -66.039  55.191  1.00  0.00    -0.205 OA
BRANCH  11  14
HETATM   14  C14 UNL     1     -77.948 -65.221  56.718  1.00  0.00     0.130 A 
HETATM   15  C15 UNL     1     -76.480 -65.255  56.745  1.00  0.00     0.023 A 
HETATM   16  C16 UNL     1     -77.203 -66.566  56.721  1.00  0.00     0.023 A 
ENDBRANCH  11  14
ENDBRANCH   9  11
ENDBRANCH   6   7
BRANCH   1  17
HETATM   17  C4  UNL     1     -75.546 -66.319  52.439  1.00  0.00     0.087 C 
BRANCH  17  18
HETATM   18  S1  UNL     1     -74.916 -67.278  53.713  1.00  0.00    -0.164 SA
BRANCH  18  19
HETATM   19  C2  UNL     1     -73.802 -68.605  53.509  1.00  0.00     0.039 C 
HETATM   20  C1  UNL     1     -74.324 -69.902  53.016  1.00  0.00     0.021 C 
HETATM   21  C3  UNL     1     -72.559 -68.203  52.688  1.00  0.00     0.021 C 
ENDBRANCH  18  19
ENDBRANCH  17  18
ENDBRANCH   1  17
BRANCH   1  22
HETATM   22  C6  UNL     1     -75.923 -66.649  50.089  1.00  0.00     0.155 A 
HETATM   23  C7  UNL     1     -74.920 -67.610  49.762  1.00  0.00     0.201 A 
HETATM   24  O1  UNL     1     -74.466 -66.425  50.283  1.00  0.00    -0.380 OA
ENDBRANCH   1  22
TORSDOF 7
ENDMDL
MODEL 5
REMARK VINA RESULT: -6.308335668      2.802      6.770
REMARK  7 active torsions:
REMARK  status: ('A' for Active; 'I' for Inactive)
REMARK    1  A    between atoms: C2_2  and  S1_4 
REMARK    2  A    between atoms: S1_4  and  C4_5 
REMARK    3  A    between atoms: C4_5  and  C5_6 
REMARK    4  A    between atoms: C5_6  and  C6_7 
REMARK    5  A    between atoms: C12_14  and  C13_15 
REMARK       I    between atoms: C13_15  and  N1_17 
REMARK    6  A    between atoms: N1_17  and  S2_19 
REMARK    7  A    between atoms: S2_19  and  C14_22 
ROOT
HETATM    1  C5  UNL     1     -76.782 -66.321  55.549  1.00  0.00     0.008 C 
HETATM    2  C8  UNL     1     -76.559 -67.438  56.478  1.00  0.00     0.014 C 
HETATM    3  C9  UNL     1     -75.304 -67.271  57.318  1.00  0.00     0.001 C 
HETATM    4  C10 UNL     1     -74.695 -65.922  57.321  1.00  0.00     0.001 C 
HETATM    5  C11 UNL     1     -74.503 -65.376  55.964  1.00  0.00     0.015 C 
HETATM    6  C12 UNL     1     -75.481 -65.853  54.908  1.00  0.00     0.090 C 
ENDROOT
BRANCH   6   7
HETATM    7  C13 UNL     1     -74.755 -66.852  54.125  1.00  0.00     0.235 C 
HETATM    8  O2  UNL     1     -74.613 -68.044  54.426  1.00  0.00    -0.272 OA
HETATM    9  N1  UNL     1     -74.150 -66.426  52.906  1.00  0.00    -0.254 N 
ATOM     10  H1  UNL     1     -74.242 -65.452  52.618  1.00  0.00     0.181 HD
BRANCH   9  11
HETATM   11  S2  UNL     1     -73.268 -67.515  51.913  1.00  0.00     0.237 S 
HETATM   12  O3  UNL     1     -72.169 -68.221  52.610  1.00  0.00    -0.205 OA
HETATM   13  O4  UNL     1     -74.258 -68.552  51.424  1.00  0.00    -0.205 OA
BRANCH  11  14
HETATM   14  C14 UNL     1     -72.599 -66.738  50.468  1.00  0.00     0.130 A 
HETATM   15  C15 UNL     1     -71.157 -66.524  50.286  1.00  0.00     0.023 A 
HETATM   16  C16 UNL     1     -71.971 -65.371  50.785  1.00  0.00     0.023 A 
ENDBRANCH  11  14
ENDBRANCH   9  11
ENDBRANCH   6   7
BRANCH   1  17
HETATM   17  C4  UNL     1     -77.826 -66.469  54.515  1.00  0.00     0.087 C 
BRANCH  17  18
HETATM   18  S1  UNL     1     -77.884 -65.743  52.963  1.00  0.00    -0.164 SA
BRANCH  18  19
HETATM   19  C2  UNL     1     -79.234 -64.835  52.333  1.00  0.00     0.039 C 
HETATM   20  C1  UNL     1     -79.433 -64.785  50.865  1.00  0.00     0.021 C 
HETATM   21  C3  UNL     1     -80.562 -65.212  53.021  1.00  0.00     0.021 C 
ENDBRANCH  18  19
ENDBRANCH  17  18
ENDBRANCH   1  17
BRANCH   1  22
HETATM   22  C6  UNL     1     -77.223 -65.082  56.382  1.00  0.00     0.155 A 
HETATM   23  C7  UNL     1     -78.191 -65.211  57.423  1.00  0.00     0.201 A 
HETATM   24  O1  UNL     1     -78.682 -64.871  56.188  1.00  0.00    -0.380 OA
ENDBRANCH   1  22
TORSDOF 7
ENDMDL
