MODEL 1
REMARK VINA RESULT: -6.466158589      0.000      0.000
REMARK  8 active torsions:
REMARK  status: ('A' for Active; 'I' for Inactive)
REMARK    1  A    between atoms: C2_2  and  O1_3 
REMARK    2  A    between atoms: O1_3  and  C3_4 
REMARK    3  A    between atoms: C3_4  and  C4_6 
REMARK    4  A    between atoms: C9_11  and  C10_12 
REMARK    5  A    between atoms: C13_15  and  N1_16 
REMARK    6  A    between atoms: N2_19  and  C15_20 
REMARK    7  A    between atoms: C15_20  and  C16_21 
REMARK    8  A    between atoms: C16_21  and  N3_22 
ROOT
HETATM    1  C4  UNL     1     -78.231 -66.610  53.068  1.00  0.00     0.186 C 
HETATM    2  C5  UNL     1     -78.815 -65.548  53.955  1.00  0.00     0.049 C 
HETATM    3  C6  UNL     1     -78.224 -65.660  55.309  1.00  0.00    -0.014 C 
HETATM    4  C7  UNL     1     -78.510 -64.369  56.034  1.00  0.00     0.020 C 
HETATM    5  C8  UNL     1     -78.857 -66.772  56.131  1.00  0.00     0.020 C 
HETATM    6  C9  UNL     1     -76.741 -65.989  55.338  1.00  0.00    -0.005 C 
HETATM    7  C13 UNL     1     -76.090 -66.272  54.212  1.00  0.00     0.106 C 
HETATM    8  N2  UNL     1     -76.825 -66.291  52.956  1.00  0.00    -0.351 N 
ENDROOT
BRANCH   8   9
HETATM    9  C15 UNL     1     -76.099 -65.959  51.783  1.00  0.00     0.145 C 
BRANCH   9  10
HETATM   10  C16 UNL     1     -75.618 -67.110  50.951  1.00  0.00     0.146 C 
BRANCH  10  11
HETATM   11  N3  UNL     1     -74.250 -67.041  50.608  1.00  0.00    -0.372 N 
HETATM   12  C17 UNL     1     -73.507 -65.943  51.027  1.00  0.00     0.063 C 
HETATM   13  C18 UNL     1     -72.035 -66.164  50.762  1.00  0.00     0.045 C 
HETATM   14  C19 UNL     1     -71.913 -66.369  49.259  1.00  0.00     0.010 C 
HETATM   15  C20 UNL     1     -72.622 -67.641  48.870  1.00  0.00     0.045 C 
HETATM   16  C21 UNL     1     -73.709 -68.036  49.810  1.00  0.00     0.063 C 
ENDBRANCH  10  11
ENDBRANCH   9  10
ENDBRANCH   8   9
BRANCH   1  17
HETATM   17  C3  UNL     1     -78.992 -66.782  51.871  1.00  0.00     0.281 C 
HETATM   18  O2  UNL     1     -79.133 -67.770  51.120  1.00  0.00    -0.263 OA
BRANCH  17  19
HETATM   19  O1  UNL     1     -79.723 -65.652  51.434  1.00  0.00    -0.320 OA
BRANCH  19  20
HETATM   20  C2  UNL     1     -79.808 -65.278  50.098  1.00  0.00     0.174 C 
HETATM   21  C1  UNL     1     -78.987 -64.091  49.710  1.00  0.00     0.034 C 
ENDBRANCH  19  20
ENDBRANCH  17  19
ENDBRANCH   1  17
BRANCH   7  22
HETATM   22  N1  UNL     1     -74.709 -66.567  54.247  1.00  0.00    -0.380 N 
HETATM   23  C14 UNL     1     -74.174 -67.921  54.143  1.00  0.00     0.147 C 
ATOM     24  H1  UNL     1     -74.051 -65.794  54.350  1.00  0.00     0.160 HD
ENDBRANCH   7  22
BRANCH   6  25
HETATM   25  C10 UNL     1     -76.113 -66.107  56.676  1.00  0.00    -0.077 C 
HETATM   26  C11 UNL     1     -75.766 -67.475  57.154  1.00  0.00     0.043 C 
HETATM   27  C12 UNL     1     -75.195 -65.007  57.076  1.00  0.00     0.043 C 
ENDBRANCH   6  25
TORSDOF 8
ENDMDL
MODEL 2
REMARK VINA RESULT: -6.343753571      2.181      5.000
REMARK  8 active torsions:
REMARK  status: ('A' for Active; 'I' for Inactive)
REMARK    1  A    between atoms: C2_2  and  O1_3 
REMARK    2  A    between atoms: O1_3  and  C3_4 
REMARK    3  A    between atoms: C3_4  and  C4_6 
REMARK    4  A    between atoms: C9_11  and  C10_12 
REMARK    5  A    between atoms: C13_15  and  N1_16 
REMARK    6  A    between atoms: N2_19  and  C15_20 
REMARK    7  A    between atoms: C15_20  and  C16_21 
REMARK    8  A    between atoms: C16_21  and  N3_22 
ROOT
HETATM    1  C4  UNL     1     -77.392 -66.194  54.465  1.00  0.00     0.186 C 
HETATM    2  C5  UNL     1     -76.187 -65.642  55.174  1.00  0.00     0.049 C 
HETATM    3  C6  UNL     1     -75.074 -66.615  55.079  1.00  0.00    -0.014 C 
HETATM    4  C7  UNL     1     -73.804 -65.882  55.427  1.00  0.00     0.020 C 
HETATM    5  C8  UNL     1     -75.209 -67.754  56.078  1.00  0.00     0.020 C 
HETATM    6  C9  UNL     1     -74.950 -67.322  53.739  1.00  0.00    -0.005 C 
HETATM    7  C13 UNL     1     -75.870 -67.144  52.795  1.00  0.00     0.106 C 
HETATM    8  N2  UNL     1     -77.012 -66.287  53.072  1.00  0.00    -0.351 N 
ENDROOT
BRANCH   8   9
HETATM    9  C15 UNL     1     -77.594 -65.613  51.966  1.00  0.00     0.145 C 
BRANCH   9  10
HETATM   10  C16 UNL     1     -78.820 -66.241  51.376  1.00  0.00     0.146 C 
BRANCH  10  11
HETATM   11  N3  UNL     1     -79.183 -65.722  50.113  1.00  0.00    -0.372 N 
HETATM   12  C17 UNL     1     -78.777 -66.399  48.968  1.00  0.00     0.063 C 
HETATM   13  C18 UNL     1     -79.450 -65.822  47.744  1.00  0.00     0.045 C 
HETATM   14  C19 UNL     1     -79.035 -64.359  47.695  1.00  0.00     0.010 C 
HETATM   15  C20 UNL     1     -79.608 -63.638  48.888  1.00  0.00     0.045 C 
HETATM   16  C21 UNL     1     -79.875 -64.524  50.056  1.00  0.00     0.063 C 
ENDBRANCH  10  11
ENDBRANCH   9  10
ENDBRANCH   8   9
BRANCH   1  17
HETATM   17  C3  UNL     1     -78.582 -65.482  54.805  1.00  0.00     0.281 C 
HETATM   18  O2  UNL     1     -79.031 -64.387  54.402  1.00  0.00    -0.263 OA
BRANCH  17  19
HETATM   19  O1  UNL     1     -79.420 -66.096  55.766  1.00  0.00    -0.320 OA
BRANCH  19  20
HETATM   20  C2  UNL     1     -78.949 -66.575  56.982  1.00  0.00     0.174 C 
HETATM   21  C1  UNL     1     -78.405 -65.540  57.913  1.00  0.00     0.034 C 
ENDBRANCH  19  20
ENDBRANCH  17  19
ENDBRANCH   1  17
BRANCH   7  22
HETATM   22  N1  UNL     1     -75.742 -67.797  51.548  1.00  0.00    -0.380 N 
HETATM   23  C14 UNL     1     -76.524 -68.972  51.174  1.00  0.00     0.147 C 
ATOM     24  H1  UNL     1     -75.069 -67.430  50.876  1.00  0.00     0.160 HD
ENDBRANCH   7  22
BRANCH   6  25
HETATM   25  C10 UNL     1     -73.845 -68.303  53.606  1.00  0.00    -0.077 C 
HETATM   26  C11 UNL     1     -74.197 -69.748  53.686  1.00  0.00     0.043 C 
HETATM   27  C12 UNL     1     -72.741 -67.934  52.680  1.00  0.00     0.043 C 
ENDBRANCH   6  25
TORSDOF 8
ENDMDL
MODEL 3
REMARK VINA RESULT: -6.316171520      2.364      4.967
REMARK  8 active torsions:
REMARK  status: ('A' for Active; 'I' for Inactive)
REMARK    1  A    between atoms: C2_2  and  O1_3 
REMARK    2  A    between atoms: O1_3  and  C3_4 
REMARK    3  A    between atoms: C3_4  and  C4_6 
REMARK    4  A    between atoms: C9_11  and  C10_12 
REMARK    5  A    between atoms: C13_15  and  N1_16 
REMARK    6  A    between atoms: N2_19  and  C15_20 
REMARK    7  A    between atoms: C15_20  and  C16_21 
REMARK    8  A    between atoms: C16_21  and  N3_22 
ROOT
HETATM    1  C4  UNL     1     -74.996 -66.212  53.415  1.00  0.00     0.186 C 
HETATM    2  C5  UNL     1     -74.704 -66.910  54.713  1.00  0.00     0.049 C 
HETATM    3  C6  UNL     1     -75.641 -66.423  55.752  1.00  0.00    -0.014 C 
HETATM    4  C7  UNL     1     -75.597 -67.406  56.894  1.00  0.00     0.020 C 
HETATM    5  C8  UNL     1     -75.230 -65.074  56.322  1.00  0.00     0.020 C 
HETATM    6  C9  UNL     1     -77.067 -66.196  55.278  1.00  0.00    -0.005 C 
HETATM    7  C13 UNL     1     -77.376 -66.317  53.989  1.00  0.00     0.106 C 
HETATM    8  N2  UNL     1     -76.325 -66.638  53.036  1.00  0.00    -0.351 N 
ENDROOT
BRANCH   8   9
HETATM    9  C15 UNL     1     -76.709 -67.362  51.877  1.00  0.00     0.145 C 
BRANCH   9  10
HETATM   10  C16 UNL     1     -76.494 -66.672  50.563  1.00  0.00     0.146 C 
BRANCH  10  11
HETATM   11  N3  UNL     1     -77.626 -65.975  50.086  1.00  0.00    -0.372 N 
HETATM   12  C17 UNL     1     -78.787 -66.689  49.810  1.00  0.00     0.063 C 
HETATM   13  C18 UNL     1     -79.937 -65.747  49.535  1.00  0.00     0.045 C 
HETATM   14  C19 UNL     1     -79.508 -64.911  48.339  1.00  0.00     0.010 C 
HETATM   15  C20 UNL     1     -78.328 -64.056  48.725  1.00  0.00     0.045 C 
HETATM   16  C21 UNL     1     -77.522 -64.615  49.847  1.00  0.00     0.063 C 
ENDBRANCH  10  11
ENDBRANCH   9  10
ENDBRANCH   8   9
BRANCH   1  17
HETATM   17  C3  UNL     1     -73.932 -66.369  52.475  1.00  0.00     0.281 C 
HETATM   18  O2  UNL     1     -73.557 -65.647  51.526  1.00  0.00    -0.263 OA
BRANCH  17  19
HETATM   19  O1  UNL     1     -73.148 -67.540  52.615  1.00  0.00    -0.320 OA
BRANCH  19  20
HETATM   20  C2  UNL     1     -73.289 -68.647  51.787  1.00  0.00     0.174 C 
HETATM   21  C1  UNL     1     -73.951 -69.834  52.407  1.00  0.00     0.034 C 
ENDBRANCH  19  20
ENDBRANCH  17  19
ENDBRANCH   1  17
BRANCH   7  22
HETATM   22  N1  UNL     1     -78.706 -66.114  53.558  1.00  0.00    -0.380 N 
HETATM   23  C14 UNL     1     -79.180 -64.860  52.980  1.00  0.00     0.147 C 
ATOM     24  H1  UNL     1     -79.369 -66.883  53.656  1.00  0.00     0.160 HD
ENDBRANCH   7  22
BRANCH   6  25
HETATM   25  C10 UNL     1     -78.035 -65.711  56.292  1.00  0.00    -0.077 C 
HETATM   26  C11 UNL     1     -78.681 -64.392  56.047  1.00  0.00     0.043 C 
HETATM   27  C12 UNL     1     -78.863 -66.748  56.965  1.00  0.00     0.043 C 
ENDBRANCH   6  25
TORSDOF 8
ENDMDL
MODEL 4
REMARK VINA RESULT: -6.295165590      2.037      4.556
REMARK  8 active torsions:
REMARK  status: ('A' for Active; 'I' for Inactive)
REMARK    1  A    between atoms: C2_2  and  O1_3 
REMARK    2  A    between atoms: O1_3  and  C3_4 
REMARK    3  A    between atoms: C3_4  and  C4_6 
REMARK    4  A    between atoms: C9_11  and  C10_12 
REMARK    5  A    between atoms: C13_15  and  N1_16 
REMARK    6  A    between atoms: N2_19  and  C15_20 
REMARK    7  A    between atoms: C15_20  and  C16_21 
REMARK    8  A    between atoms: C16_21  and  N3_22 
ROOT
HETATM    1  C4  UNL     1     -78.204 -66.141  54.189  1.00  0.00     0.186 C 
HETATM    2  C5  UNL     1     -77.305 -65.421  55.153  1.00  0.00     0.049 C 
HETATM    3  C6  UNL     1     -76.004 -66.126  55.230  1.00  0.00    -0.014 C 
HETATM    4  C7  UNL     1     -75.016 -65.181  55.865  1.00  0.00     0.020 C 
HETATM    5  C8  UNL     1     -76.061 -67.359  56.119  1.00  0.00     0.020 C 
HETATM    6  C9  UNL     1     -75.482 -66.658  53.907  1.00  0.00    -0.005 C 
HETATM    7  C13 UNL     1     -76.229 -66.585  52.808  1.00  0.00     0.106 C 
HETATM    8  N2  UNL     1     -77.565 -66.017  52.897  1.00  0.00    -0.351 N 
ENDROOT
BRANCH   8   9
HETATM    9  C15 UNL     1     -78.069 -65.376  51.736  1.00  0.00     0.145 C 
BRANCH   9  10
HETATM   10  C16 UNL     1     -78.864 -66.232  50.796  1.00  0.00     0.146 C 
BRANCH  10  11
HETATM   11  N3  UNL     1     -79.289 -65.565  49.627  1.00  0.00    -0.372 N 
HETATM   12  C17 UNL     1     -79.104 -66.185  48.396  1.00  0.00     0.063 C 
HETATM   13  C18 UNL     1     -79.823 -65.424  47.305  1.00  0.00     0.045 C 
HETATM   14  C19 UNL     1     -79.223 -64.026  47.312  1.00  0.00     0.010 C 
HETATM   15  C20 UNL     1     -79.562 -63.345  48.614  1.00  0.00     0.045 C 
HETATM   16  C21 UNL     1     -79.817 -64.289  49.738  1.00  0.00     0.063 C 
ENDBRANCH  10  11
ENDBRANCH   9  10
ENDBRANCH   8   9
BRANCH   1  17
HETATM   17  C3  UNL     1     -79.566 -65.729  54.322  1.00  0.00     0.281 C 
HETATM   18  O2  UNL     1     -80.609 -66.143  53.772  1.00  0.00    -0.263 OA
BRANCH  17  19
HETATM   19  O1  UNL     1     -79.807 -64.668  55.227  1.00  0.00    -0.320 OA
BRANCH  19  20
HETATM   20  C2  UNL     1     -80.057 -63.365  54.813  1.00  0.00     0.174 C 
HETATM   21  C1  UNL     1     -81.499 -62.983  54.727  1.00  0.00     0.034 C 
ENDBRANCH  19  20
ENDBRANCH  17  19
ENDBRANCH   1  17
BRANCH   7  22
HETATM   22  N1  UNL     1     -75.731 -67.074  51.579  1.00  0.00    -0.380 N 
HETATM   23  C14 UNL     1     -76.075 -68.386  51.038  1.00  0.00     0.147 C 
ATOM     24  H1  UNL     1     -75.100 -66.480  51.042  1.00  0.00     0.160 HD
ENDBRANCH   7  22
BRANCH   6  25
HETATM   25  C10 UNL     1     -74.180 -67.368  53.944  1.00  0.00    -0.077 C 
HETATM   26  C11 UNL     1     -74.212 -68.855  54.030  1.00  0.00     0.043 C 
HETATM   27  C12 UNL     1     -73.075 -66.768  53.149  1.00  0.00     0.043 C 
ENDBRANCH   6  25
TORSDOF 8
ENDMDL
MODEL 5
REMARK VINA RESULT: -6.255396906      2.235      4.738
REMARK  8 active torsions:
REMARK  status: ('A' for Active; 'I' for Inactive)
REMARK    1  A    between atoms: C2_2  and  O1_3 
REMARK    2  A    between atoms: O1_3  and  C3_4 
REMARK    3  A    between atoms: C3_4  and  C4_6 
REMARK    4  A    between atoms: C9_11  and  C10_12 
REMARK    5  A    between atoms: C13_15  and  N1_16 
REMARK    6  A    between atoms: N2_19  and  C15_20 
REMARK    7  A    between atoms: C15_20  and  C16_21 
REMARK    8  A    between atoms: C16_21  and  N3_22 
ROOT
HETATM    1  C4  UNL     1     -76.027 -66.332  51.874  1.00  0.00     0.186 C 
HETATM    2  C5  UNL     1     -75.397 -67.559  52.471  1.00  0.00     0.049 C 
HETATM    3  C6  UNL     1     -75.010 -67.279  53.873  1.00  0.00    -0.014 C 
HETATM    4  C7  UNL     1     -74.770 -68.606  54.547  1.00  0.00     0.020 C 
HETATM    5  C8  UNL     1     -73.711 -66.496  53.974  1.00  0.00     0.020 C 
HETATM    6  C9  UNL     1     -76.002 -66.436  54.658  1.00  0.00    -0.005 C 
HETATM    7  C13 UNL     1     -77.062 -65.905  54.054  1.00  0.00     0.106 C 
HETATM    8  N2  UNL     1     -77.243 -66.117  52.627  1.00  0.00    -0.351 N 
ENDROOT
BRANCH   8   9
HETATM    9  C15 UNL     1     -78.578 -66.130  52.143  1.00  0.00     0.145 C 
BRANCH   9  10
HETATM   10  C16 UNL     1     -79.129 -64.815  51.679  1.00  0.00     0.146 C 
BRANCH  10  11
HETATM   11  N3  UNL     1     -79.380 -64.753  50.291  1.00  0.00    -0.372 N 
HETATM   12  C17 UNL     1     -79.939 -65.859  49.660  1.00  0.00     0.063 C 
HETATM   13  C18 UNL     1     -80.338 -65.516  48.242  1.00  0.00     0.045 C 
HETATM   14  C19 UNL     1     -79.058 -65.075  47.549  1.00  0.00     0.010 C 
HETATM   15  C20 UNL     1     -78.561 -63.800  48.181  1.00  0.00     0.045 C 
HETATM   16  C21 UNL     1     -79.003 -63.618  49.593  1.00  0.00     0.063 C 
ENDBRANCH  10  11
ENDBRANCH   9  10
ENDBRANCH   8   9
BRANCH   1  17
HETATM   17  C3  UNL     1     -76.107 -66.413  50.450  1.00  0.00     0.281 C 
HETATM   18  O2  UNL     1     -76.163 -65.522  49.577  1.00  0.00    -0.263 OA
BRANCH  17  19
HETATM   19  O1  UNL     1     -76.131 -67.719  49.904  1.00  0.00    -0.320 OA
BRANCH  19  20
HETATM   20  C2  UNL     1     -77.229 -68.234  49.227  1.00  0.00     0.174 C 
HETATM   21  C1  UNL     1     -78.105 -69.147  50.022  1.00  0.00     0.034 C 
ENDBRANCH  19  20
ENDBRANCH  17  19
ENDBRANCH   1  17
BRANCH   7  22
HETATM   22  N1  UNL     1     -77.984 -65.131  54.794  1.00  0.00    -0.380 N 
HETATM   23  C14 UNL     1     -79.167 -65.692  55.441  1.00  0.00     0.147 C 
ATOM     24  H1  UNL     1     -77.815 -64.129  54.881  1.00  0.00     0.160 HD
ENDBRANCH   7  22
BRANCH   6  25
HETATM   25  C10 UNL     1     -75.650 -66.137  56.067  1.00  0.00    -0.077 C 
HETATM   26  C11 UNL     1     -75.473 -64.706  56.442  1.00  0.00     0.043 C 
HETATM   27  C12 UNL     1     -76.238 -67.031  57.101  1.00  0.00     0.043 C 
ENDBRANCH   6  25
TORSDOF 8
ENDMDL
