MODEL 1
REMARK VINA RESULT: -6.932742533      0.000      0.000
REMARK  6 active torsions:
REMARK  status: ('A' for Active; 'I' for Inactive)
REMARK    1  A    between atoms: C10_10  and  C12_12 
REMARK    2  A    between atoms: C12_12  and  O2_14 
REMARK    3  A    between atoms: O2_14  and  C13_15 
REMARK    4  A    between atoms: C15_17  and  O3_18 
REMARK    5  A    between atoms: C17_21  and  C19_23 
REMARK    6  A    between atoms: C20_24  and  C21_25 
ROOT
HETATM    1  C1  UNL     1      -4.667  -0.638  24.326  1.00  0.00     0.015 C 
HETATM    2  C2  UNL     1      -3.396  -0.433  24.051  1.00  0.00    -0.077 C 
HETATM    3  C3  UNL     1      -2.545  -1.051  25.137  1.00  0.00     0.035 C 
HETATM    4  C4  UNL     1      -2.480  -0.248  26.367  1.00  0.00     0.019 C 
HETATM    5  C5  UNL     1      -1.627   0.944  26.441  1.00  0.00    -0.001 C 
HETATM    6  C6  UNL     1      -2.092   1.735  27.700  1.00  0.00     0.021 C 
HETATM    7  C7  UNL     1      -1.816   1.890  25.311  1.00  0.00    -0.046 C 
HETATM    8  C8  UNL     1      -0.655   2.577  25.176  1.00  0.00    -0.019 C 
HETATM    9  C9  UNL     1       0.341   2.128  26.194  1.00  0.00     0.048 C 
HETATM   10  C10 UNL     1      -0.163   0.751  26.603  1.00  0.00     0.059 C 
HETATM   11  C11 UNL     1       0.489  -0.220  25.642  1.00  0.00     0.027 C 
HETATM   12  C15 UNL     1      -2.856   2.291  24.384  1.00  0.00     0.149 C 
HETATM   13  C16 UNL     1      -2.811   1.751  22.998  1.00  0.00     0.054 C 
HETATM   14  C17 UNL     1      -3.068   0.311  22.792  1.00  0.00    -0.001 C 
HETATM   15  C18 UNL     1      -1.749  -0.267  22.212  1.00  0.00     0.024 C 
ENDROOT
BRANCH  10  16
HETATM   16  C12 UNL     1       0.295   0.320  27.937  1.00  0.00     0.268 C 
HETATM   17  O1  UNL     1       1.014   1.099  28.605  1.00  0.00    -0.264 OA
BRANCH  16  18
HETATM   18  O2  UNL     1      -0.043  -0.914  28.482  1.00  0.00    -0.321 OA
BRANCH  18  19
HETATM   19  C13 UNL     1      -0.527  -0.930  29.810  1.00  0.00     0.174 C 
HETATM   20  C14 UNL     1      -1.974  -1.277  29.883  1.00  0.00     0.034 C 
ENDBRANCH  18  19
ENDBRANCH  16  18
ENDBRANCH  10  16
BRANCH  12  21
HETATM   21  O3  UNL     1      -4.159   2.228  24.847  1.00  0.00    -0.391 OA
ATOM     22  H3  UNL     1      -4.647   3.042  24.859  1.00  0.00     0.210 HD
ENDBRANCH  12  21
BRANCH  14  23
HETATM   23  C19 UNL     1      -4.081  -0.027  21.759  1.00  0.00    -0.013 C 
HETATM   24  C20 UNL     1      -4.187   0.442  20.554  1.00  0.00    -0.002 C 
BRANCH  24  25
HETATM   25  C21 UNL     1      -3.370   1.407  19.867  1.00  0.00     0.012 C 
HETATM   26  C22 UNL     1      -3.440   1.597  18.562  1.00  0.00     0.084 C 
HETATM   27 CL1  UNL     1      -2.467   2.755  17.709  1.00  0.00    -0.097 Cl
ENDBRANCH  24  25
ENDBRANCH  14  23
TORSDOF 6
ENDMDL
MODEL 2
REMARK VINA RESULT: -6.906454282      0.874      1.234
REMARK  6 active torsions:
REMARK  status: ('A' for Active; 'I' for Inactive)
REMARK    1  A    between atoms: C10_10  and  C12_12 
REMARK    2  A    between atoms: C12_12  and  O2_14 
REMARK    3  A    between atoms: O2_14  and  C13_15 
REMARK    4  A    between atoms: C15_17  and  O3_18 
REMARK    5  A    between atoms: C17_21  and  C19_23 
REMARK    6  A    between atoms: C20_24  and  C21_25 
ROOT
HETATM    1  C1  UNL     1      -4.680  -0.665  24.198  1.00  0.00     0.015 C 
HETATM    2  C2  UNL     1      -3.427  -0.398  23.893  1.00  0.00    -0.077 C 
HETATM    3  C3  UNL     1      -2.517  -1.054  24.907  1.00  0.00     0.035 C 
HETATM    4  C4  UNL     1      -2.433  -0.330  26.184  1.00  0.00     0.019 C 
HETATM    5  C5  UNL     1      -1.618   0.883  26.307  1.00  0.00    -0.001 C 
HETATM    6  C6  UNL     1      -2.063   1.574  27.631  1.00  0.00     0.021 C 
HETATM    7  C7  UNL     1      -1.879   1.894  25.249  1.00  0.00    -0.046 C 
HETATM    8  C8  UNL     1      -0.747   2.628  25.120  1.00  0.00    -0.019 C 
HETATM    9  C9  UNL     1       0.299   2.150  26.071  1.00  0.00     0.048 C 
HETATM   10  C10 UNL     1      -0.143   0.732  26.405  1.00  0.00     0.059 C 
HETATM   11  C11 UNL     1       0.505  -0.151  25.361  1.00  0.00     0.027 C 
HETATM   12  C15 UNL     1      -2.965   2.317  24.387  1.00  0.00     0.149 C 
HETATM   13  C16 UNL     1      -2.953   1.869  22.967  1.00  0.00     0.054 C 
HETATM   14  C17 UNL     1      -3.170   0.437  22.676  1.00  0.00    -0.001 C 
HETATM   15  C18 UNL     1      -1.855  -0.055  22.014  1.00  0.00     0.024 C 
ENDROOT
BRANCH  10  16
HETATM   16  C12 UNL     1       0.377   0.232  27.692  1.00  0.00     0.268 C 
HETATM   17  O1  UNL     1       0.167  -0.964  27.999  1.00  0.00    -0.264 OA
BRANCH  16  18
HETATM   18  O2  UNL     1       1.092   1.036  28.573  1.00  0.00    -0.321 OA
BRANCH  18  19
HETATM   19  C13 UNL     1       0.505   1.308  29.830  1.00  0.00     0.174 C 
HETATM   20  C14 UNL     1       0.431   2.768  30.118  1.00  0.00     0.034 C 
ENDBRANCH  18  19
ENDBRANCH  16  18
ENDBRANCH  10  16
BRANCH  12  21
HETATM   21  O3  UNL     1      -4.248   2.177  24.889  1.00  0.00    -0.391 OA
ATOM     22  H3  UNL     1      -4.895   1.799  24.306  1.00  0.00     0.210 HD
ENDBRANCH  12  21
BRANCH  14  23
HETATM   23  C19 UNL     1      -4.208   0.132  21.658  1.00  0.00    -0.013 C 
HETATM   24  C20 UNL     1      -4.352   0.648  20.476  1.00  0.00    -0.002 C 
BRANCH  24  25
HETATM   25  C21 UNL     1      -3.564   1.649  19.808  1.00  0.00     0.012 C 
HETATM   26  C22 UNL     1      -3.409   1.672  18.497  1.00  0.00     0.084 C 
HETATM   27 CL1  UNL     1      -2.465   2.869  17.665  1.00  0.00    -0.097 Cl
ENDBRANCH  24  25
ENDBRANCH  14  23
TORSDOF 6
ENDMDL
MODEL 3
REMARK VINA RESULT: -6.662976829      2.485      4.988
REMARK  6 active torsions:
REMARK  status: ('A' for Active; 'I' for Inactive)
REMARK    1  A    between atoms: C10_10  and  C12_12 
REMARK    2  A    between atoms: C12_12  and  O2_14 
REMARK    3  A    between atoms: O2_14  and  C13_15 
REMARK    4  A    between atoms: C15_17  and  O3_18 
REMARK    5  A    between atoms: C17_21  and  C19_23 
REMARK    6  A    between atoms: C20_24  and  C21_25 
ROOT
HETATM    1  C1  UNL     1      -3.394   3.094  19.863  1.00  0.00     0.015 C 
HETATM    2  C2  UNL     1      -4.100   2.092  20.344  1.00  0.00    -0.077 C 
HETATM    3  C3  UNL     1      -3.983   2.080  21.851  1.00  0.00     0.035 C 
HETATM    4  C4  UNL     1      -2.717   1.516  22.343  1.00  0.00     0.019 C 
HETATM    5  C5  UNL     1      -2.499   0.065  22.361  1.00  0.00    -0.001 C 
HETATM    6  C6  UNL     1      -0.968  -0.142  22.562  1.00  0.00     0.021 C 
HETATM    7  C7  UNL     1      -2.803  -0.606  21.071  1.00  0.00    -0.046 C 
HETATM    8  C8  UNL     1      -3.124  -1.890  21.362  1.00  0.00    -0.019 C 
HETATM    9  C9  UNL     1      -3.047  -2.129  22.834  1.00  0.00     0.048 C 
HETATM   10  C10 UNL     1      -3.158  -0.732  23.428  1.00  0.00     0.059 C 
HETATM   11  C11 UNL     1      -4.640  -0.490  23.618  1.00  0.00     0.027 C 
HETATM   12  C15 UNL     1      -2.815  -0.295  19.654  1.00  0.00     0.149 C 
HETATM   13  C16 UNL     1      -4.125  -0.012  19.005  1.00  0.00     0.054 C 
HETATM   14  C17 UNL     1      -4.839   1.229  19.367  1.00  0.00    -0.001 C 
HETATM   15  C18 UNL     1      -6.165   0.766  20.029  1.00  0.00     0.024 C 
ENDROOT
BRANCH  10  16
HETATM   16  C12 UNL     1      -2.584  -0.612  24.781  1.00  0.00     0.268 C 
HETATM   17  O1  UNL     1      -1.903  -1.563  25.230  1.00  0.00    -0.264 OA
BRANCH  16  18
HETATM   18  O2  UNL     1      -2.767   0.515  25.575  1.00  0.00    -0.321 OA
BRANCH  18  19
HETATM   19  C13 UNL     1      -1.647   0.998  26.290  1.00  0.00     0.174 C 
HETATM   20  C14 UNL     1      -0.925   2.075  25.556  1.00  0.00     0.034 C 
ENDBRANCH  18  19
ENDBRANCH  16  18
ENDBRANCH  10  16
BRANCH  12  21
HETATM   21  O3  UNL     1      -1.887   0.634  19.214  1.00  0.00    -0.391 OA
ATOM     22  H3  UNL     1      -1.945   0.895  18.303  1.00  0.00     0.210 HD
ENDBRANCH  12  21
BRANCH  14  23
HETATM   23  C19 UNL     1      -5.292   2.072  18.230  1.00  0.00    -0.013 C 
HETATM   24  C20 UNL     1      -5.368   1.755  16.975  1.00  0.00    -0.002 C 
BRANCH  24  25
HETATM   25  C21 UNL     1      -5.045   0.517  16.318  1.00  0.00     0.012 C 
HETATM   26  C22 UNL     1      -4.962   0.411  15.004  1.00  0.00     0.084 C 
HETATM   27 CL1  UNL     1      -4.574  -1.071  14.186  1.00  0.00    -0.097 Cl
ENDBRANCH  24  25
ENDBRANCH  14  23
TORSDOF 6
ENDMDL
MODEL 4
REMARK VINA RESULT: -6.642750227      1.658      1.813
REMARK  6 active torsions:
REMARK  status: ('A' for Active; 'I' for Inactive)
REMARK    1  A    between atoms: C10_10  and  C12_12 
REMARK    2  A    between atoms: C12_12  and  O2_14 
REMARK    3  A    between atoms: O2_14  and  C13_15 
REMARK    4  A    between atoms: C15_17  and  O3_18 
REMARK    5  A    between atoms: C17_21  and  C19_23 
REMARK    6  A    between atoms: C20_24  and  C21_25 
ROOT
HETATM    1  C1  UNL     1      -4.088  -1.245  24.276  1.00  0.00     0.015 C 
HETATM    2  C2  UNL     1      -2.820  -0.929  24.116  1.00  0.00    -0.077 C 
HETATM    3  C3  UNL     1      -2.035  -1.401  25.319  1.00  0.00     0.035 C 
HETATM    4  C4  UNL     1      -2.176  -0.532  26.497  1.00  0.00     0.019 C 
HETATM    5  C5  UNL     1      -1.452   0.741  26.581  1.00  0.00    -0.001 C 
HETATM    6  C6  UNL     1      -2.120   1.546  27.736  1.00  0.00     0.021 C 
HETATM    7  C7  UNL     1      -1.608   1.604  25.382  1.00  0.00    -0.046 C 
HETATM    8  C8  UNL     1      -0.510   2.395  25.322  1.00  0.00    -0.019 C 
HETATM    9  C9  UNL     1       0.411   2.103  26.460  1.00  0.00     0.048 C 
HETATM   10  C10 UNL     1      -0.001   0.705  26.901  1.00  0.00     0.059 C 
HETATM   11  C11 UNL     1       0.838  -0.244  26.072  1.00  0.00     0.027 C 
HETATM   12  C15 UNL     1      -2.578   1.850  24.332  1.00  0.00     0.149 C 
HETATM   13  C16 UNL     1      -2.336   1.245  22.994  1.00  0.00     0.054 C 
HETATM   14  C17 UNL     1      -2.433  -0.222  22.853  1.00  0.00    -0.001 C 
HETATM   15  C18 UNL     1      -1.012  -0.694  22.445  1.00  0.00     0.024 C 
ENDROOT
BRANCH  10  16
HETATM   16  C12 UNL     1       0.352   0.392  28.298  1.00  0.00     0.268 C 
HETATM   17  O1  UNL     1       0.890   1.284  28.995  1.00  0.00    -0.264 OA
BRANCH  16  18
HETATM   18  O2  UNL     1       0.108  -0.851  28.871  1.00  0.00    -0.321 OA
BRANCH  18  19
HETATM   19  C13 UNL     1      -0.497  -0.873  30.149  1.00  0.00     0.174 C 
HETATM   20  C14 UNL     1      -1.945  -1.219  30.086  1.00  0.00     0.034 C 
ENDBRANCH  18  19
ENDBRANCH  16  18
ENDBRANCH  10  16
BRANCH  12  21
HETATM   21  O3  UNL     1      -3.911   1.680  24.666  1.00  0.00    -0.391 OA
ATOM     22  H3  UNL     1      -4.189   0.795  24.870  1.00  0.00     0.210 HD
ENDBRANCH  12  21
BRANCH  14  23
HETATM   23  C19 UNL     1      -3.295  -0.713  21.746  1.00  0.00    -0.013 C 
HETATM   24  C20 UNL     1      -2.933  -1.267  20.631  1.00  0.00    -0.002 C 
BRANCH  24  25
HETATM   25  C21 UNL     1      -1.615  -1.571  20.140  1.00  0.00     0.012 C 
HETATM   26  C22 UNL     1      -1.388  -2.530  19.261  1.00  0.00     0.084 C 
HETATM   27 CL1  UNL     1       0.191  -2.916  18.652  1.00  0.00    -0.097 Cl
ENDBRANCH  24  25
ENDBRANCH  14  23
TORSDOF 6
ENDMDL
MODEL 5
REMARK VINA RESULT: -6.461939201      1.525      2.005
REMARK  6 active torsions:
REMARK  status: ('A' for Active; 'I' for Inactive)
REMARK    1  A    between atoms: C10_10  and  C12_12 
REMARK    2  A    between atoms: C12_12  and  O2_14 
REMARK    3  A    between atoms: O2_14  and  C13_15 
REMARK    4  A    between atoms: C15_17  and  O3_18 
REMARK    5  A    between atoms: C17_21  and  C19_23 
REMARK    6  A    between atoms: C20_24  and  C21_25 
ROOT
HETATM    1  C1  UNL     1      -3.841  -1.435  24.724  1.00  0.00     0.015 C 
HETATM    2  C2  UNL     1      -2.586  -1.061  24.588  1.00  0.00    -0.077 C 
HETATM    3  C3  UNL     1      -1.869  -1.237  25.908  1.00  0.00     0.035 C 
HETATM    4  C4  UNL     1      -2.155  -0.174  26.884  1.00  0.00     0.019 C 
HETATM    5  C5  UNL     1      -1.518   1.143  26.766  1.00  0.00    -0.001 C 
HETATM    6  C6  UNL     1      -2.321   2.100  27.697  1.00  0.00     0.021 C 
HETATM    7  C7  UNL     1      -1.633   1.749  25.414  1.00  0.00    -0.046 C 
HETATM    8  C8  UNL     1      -0.583   2.594  25.273  1.00  0.00    -0.019 C 
HETATM    9  C9  UNL     1       0.262   2.592  26.504  1.00  0.00     0.048 C 
HETATM   10  C10 UNL     1      -0.097   1.276  27.180  1.00  0.00     0.059 C 
HETATM   11  C11 UNL     1       0.860   0.252  26.607  1.00  0.00     0.027 C 
HETATM   12  C15 UNL     1      -2.531   1.719  24.276  1.00  0.00     0.149 C 
HETATM   13  C16 UNL     1      -2.149   0.891  23.099  1.00  0.00     0.054 C 
HETATM   14  C17 UNL     1      -2.145  -0.579  23.240  1.00  0.00    -0.001 C 
HETATM   15  C18 UNL     1      -0.670  -1.012  23.024  1.00  0.00     0.024 C 
ENDROOT
BRANCH  10  16
HETATM   16  C12 UNL     1       0.164   1.260  28.631  1.00  0.00     0.268 C 
HETATM   17  O1  UNL     1       0.324   0.155  29.200  1.00  0.00    -0.264 OA
BRANCH  16  18
HETATM   18  O2  UNL     1       0.242   2.423  29.391  1.00  0.00    -0.321 OA
BRANCH  18  19
HETATM   19  C13 UNL     1       1.425   2.638  30.134  1.00  0.00     0.174 C 
HETATM   20  C14 UNL     1       2.018   3.982  29.882  1.00  0.00     0.034 C 
ENDBRANCH  18  19
ENDBRANCH  16  18
ENDBRANCH  10  16
BRANCH  12  21
HETATM   21  O3  UNL     1      -3.873   1.516  24.549  1.00  0.00    -0.391 OA
ATOM     22  H3  UNL     1      -4.243   0.686  24.273  1.00  0.00     0.210 HD
ENDBRANCH  12  21
BRANCH  14  23
HETATM   23  C19 UNL     1      -2.887  -1.333  22.196  1.00  0.00    -0.013 C 
HETATM   24  C20 UNL     1      -3.287  -0.916  21.035  1.00  0.00    -0.002 C 
BRANCH  24  25
HETATM   25  C21 UNL     1      -3.135   0.376  20.419  1.00  0.00     0.012 C 
HETATM   26  C22 UNL     1      -4.168   1.124  20.076  1.00  0.00     0.084 C 
HETATM   27 CL1  UNL     1      -4.013   2.686  19.333  1.00  0.00    -0.097 Cl
ENDBRANCH  24  25
ENDBRANCH  14  23
TORSDOF 6
ENDMDL
