MODEL 1
REMARK VINA RESULT: -7.188141051      0.000      0.000
REMARK  4 active torsions:
REMARK  status: ('A' for Active; 'I' for Inactive)
REMARK    1  A    between atoms: O1_2  and  C2_3 
REMARK    2  A    between atoms: C5_6  and  C7_9 
REMARK    3  A    between atoms: C7_9  and  C8_10 
REMARK    4  A    between atoms: C19_22  and  C21_24 
ROOT
HETATM    1  C2  UNL     1      -3.197   4.285  23.925  1.00  0.00     0.144 C 
HETATM    2  C3  UNL     1      -3.062   2.820  24.290  1.00  0.00     0.023 C 
HETATM    3  C4  UNL     1      -3.412   2.059  23.038  1.00  0.00     0.032 C 
HETATM    4  C5  UNL     1      -3.164   0.581  23.196  1.00  0.00     0.051 C 
HETATM    5  C6  UNL     1      -3.412  -0.007  21.854  1.00  0.00     0.069 C 
HETATM    6  N1  UNL     1      -3.591  -0.473  20.813  1.00  0.00    -0.196 NA
HETATM    7  C9  UNL     1      -1.750   0.362  23.527  1.00  0.00     0.029 C 
HETATM    8  C10 UNL     1      -1.139   1.211  24.589  1.00  0.00    -0.012 C 
HETATM    9  C11 UNL     1      -1.096   0.388  25.857  1.00  0.00     0.010 C 
HETATM   10  C12 UNL     1      -1.623   2.589  24.711  1.00  0.00     0.004 C 
HETATM   11  C13 UNL     1      -1.375   3.292  25.991  1.00  0.00    -0.035 C 
HETATM   12  C14 UNL     1      -2.103   2.803  27.188  1.00  0.00     0.016 C 
HETATM   13  C15 UNL     1       0.126   3.281  26.253  1.00  0.00     0.010 C 
HETATM   14  C16 UNL     1       0.600   4.702  26.231  1.00  0.00     0.001 C 
HETATM   15  C17 UNL     1      -0.419   5.352  25.282  1.00  0.00     0.007 C 
HETATM   16  C18 UNL     1      -1.686   4.768  25.867  1.00  0.00     0.015 C 
HETATM   17  C19 UNL     1      -2.930   5.110  25.148  1.00  0.00     0.075 C 
HETATM   18  C20 UNL     1      -2.735   6.556  24.650  1.00  0.00     0.030 C 
ENDROOT
BRANCH   4  19
HETATM   19  C7  UNL     1      -4.185   0.017  24.100  1.00  0.00     0.039 C 
BRANCH  19  20
HETATM   20  C8  UNL     1      -4.113  -1.481  24.291  1.00  0.00     0.116 C 
HETATM   21 CL1  UNL     1      -3.901  -1.792  26.045  1.00  0.00    -0.130 Cl
ENDBRANCH  19  20
ENDBRANCH   4  19
BRANCH   1  22
HETATM   22  O1  UNL     1      -2.335   4.689  22.931  1.00  0.00    -0.389 OA
HETATM   23  C1  UNL     1      -2.958   5.192  21.794  1.00  0.00     0.202 C 
ENDBRANCH   1  22
BRANCH  17  24
HETATM   24  C21 UNL     1      -4.147   5.150  25.954  1.00  0.00     0.184 C 
HETATM   25  O2  UNL     1      -4.089   5.607  27.121  1.00  0.00    -0.647 OA
HETATM   26  O3  UNL     1      -5.399   4.720  25.543  1.00  0.00    -0.647 OA
ENDBRANCH  17  24
TORSDOF 4
ENDMDL
MODEL 2
REMARK VINA RESULT: -6.687633980      3.363      5.291
REMARK  4 active torsions:
REMARK  status: ('A' for Active; 'I' for Inactive)
REMARK    1  A    between atoms: O1_2  and  C2_3 
REMARK    2  A    between atoms: C5_6  and  C7_9 
REMARK    3  A    between atoms: C7_9  and  C8_10 
REMARK    4  A    between atoms: C19_22  and  C21_24 
ROOT
HETATM    1  C2  UNL     1      -3.384   1.198  23.097  1.00  0.00     0.144 C 
HETATM    2  C3  UNL     1      -3.386   0.421  21.795  1.00  0.00     0.023 C 
HETATM    3  C4  UNL     1      -3.749   1.423  20.729  1.00  0.00     0.032 C 
HETATM    4  C5  UNL     1      -3.631   0.834  19.347  1.00  0.00     0.051 C 
HETATM    5  C6  UNL     1      -3.873   1.963  18.413  1.00  0.00     0.069 C 
HETATM    6  N1  UNL     1      -4.049   2.837  17.679  1.00  0.00    -0.196 NA
HETATM    7  C9  UNL     1      -2.254   0.366  19.138  1.00  0.00     0.029 C 
HETATM    8  C10 UNL     1      -1.618  -0.444  20.214  1.00  0.00    -0.012 C 
HETATM    9  C11 UNL     1      -1.693  -1.895  19.793  1.00  0.00     0.010 C 
HETATM   10  C12 UNL     1      -1.990  -0.137  21.599  1.00  0.00     0.004 C 
HETATM   11  C13 UNL     1      -1.735  -1.174  22.624  1.00  0.00    -0.035 C 
HETATM   12  C14 UNL     1      -2.548  -2.414  22.554  1.00  0.00     0.016 C 
HETATM   13  C15 UNL     1      -0.251  -1.522  22.586  1.00  0.00     0.010 C 
HETATM   14  C16 UNL     1       0.339  -1.123  23.904  1.00  0.00     0.001 C 
HETATM   15  C17 UNL     1      -0.583   0.034  24.320  1.00  0.00     0.007 C 
HETATM   16  C18 UNL     1      -1.917  -0.615  24.018  1.00  0.00     0.015 C 
HETATM   17  C19 UNL     1      -3.098   0.248  24.221  1.00  0.00     0.075 C 
HETATM   18  C20 UNL     1      -2.764   1.126  25.444  1.00  0.00     0.030 C 
ENDROOT
BRANCH   4  19
HETATM   19  C7  UNL     1      -4.730  -0.129  19.141  1.00  0.00     0.039 C 
BRANCH  19  20
HETATM   20  C8  UNL     1      -6.081   0.492  18.864  1.00  0.00     0.116 C 
HETATM   21 CL1  UNL     1      -6.468   0.192  17.137  1.00  0.00    -0.130 Cl
ENDBRANCH  19  20
ENDBRANCH   4  19
BRANCH   1  22
HETATM   22  O1  UNL     1      -2.453   2.210  23.135  1.00  0.00    -0.389 OA
HETATM   23  C1  UNL     1      -2.992   3.492  23.174  1.00  0.00     0.202 C 
ENDBRANCH   1  22
BRANCH  17  24
HETATM   24  C21 UNL     1      -4.339  -0.435  24.576  1.00  0.00     0.184 C 
HETATM   25  O2  UNL     1      -4.297  -1.386  25.394  1.00  0.00    -0.647 OA
HETATM   26  O3  UNL     1      -5.598  -0.127  24.083  1.00  0.00    -0.647 OA
ENDBRANCH  17  24
TORSDOF 4
ENDMDL
MODEL 3
REMARK VINA RESULT: -6.499406447      3.239      5.831
REMARK  4 active torsions:
REMARK  status: ('A' for Active; 'I' for Inactive)
REMARK    1  A    between atoms: O1_2  and  C2_3 
REMARK    2  A    between atoms: C5_6  and  C7_9 
REMARK    3  A    between atoms: C7_9  and  C8_10 
REMARK    4  A    between atoms: C19_22  and  C21_24 
ROOT
HETATM    1  C2  UNL     1      -0.946   0.257  24.987  1.00  0.00     0.144 C 
HETATM    2  C3  UNL     1      -1.393   1.611  25.500  1.00  0.00     0.023 C 
HETATM    3  C4  UNL     1      -0.167   2.233  26.117  1.00  0.00     0.032 C 
HETATM    4  C5  UNL     1      -0.414   3.662  26.529  1.00  0.00     0.051 C 
HETATM    5  C6  UNL     1       0.905   4.178  26.977  1.00  0.00     0.069 C 
HETATM    6  N1  UNL     1       1.928   4.593  27.316  1.00  0.00    -0.196 NA
HETATM    7  C9  UNL     1      -0.824   4.440  25.352  1.00  0.00     0.029 C 
HETATM    8  C10 UNL     1      -1.868   3.862  24.459  1.00  0.00    -0.012 C 
HETATM    9  C11 UNL     1      -3.178   4.537  24.799  1.00  0.00     0.010 C 
HETATM   10  C12 UNL     1      -1.895   2.404  24.308  1.00  0.00     0.004 C 
HETATM   11  C13 UNL     1      -3.146   1.788  23.810  1.00  0.00    -0.035 C 
HETATM   12  C14 UNL     1      -4.331   1.838  24.702  1.00  0.00     0.016 C 
HETATM   13  C15 UNL     1      -3.480   2.421  22.464  1.00  0.00     0.010 C 
HETATM   14  C16 UNL     1      -3.406   1.342  21.427  1.00  0.00     0.001 C 
HETATM   15  C17 UNL     1      -2.376   0.386  22.049  1.00  0.00     0.007 C 
HETATM   16  C18 UNL     1      -2.930   0.333  23.456  1.00  0.00     0.015 C 
HETATM   17  C19 UNL     1      -2.135  -0.457  24.418  1.00  0.00     0.075 C 
HETATM   18  C20 UNL     1      -1.572  -1.645  23.611  1.00  0.00     0.030 C 
ENDROOT
BRANCH   4  19
HETATM   19  C7  UNL     1      -1.298   3.673  27.712  1.00  0.00     0.039 C 
BRANCH  19  20
HETATM   20  C8  UNL     1      -0.878   2.747  28.831  1.00  0.00     0.116 C 
HETATM   21 CL1  UNL     1      -2.209   1.569  29.082  1.00  0.00    -0.130 Cl
ENDBRANCH  19  20
ENDBRANCH   4  19
BRANCH   1  22
HETATM   22  O1  UNL     1       0.025   0.328  24.015  1.00  0.00    -0.389 OA
HETATM   23  C1  UNL     1       1.233  -0.272  24.358  1.00  0.00     0.202 C 
ENDBRANCH   1  22
BRANCH  17  24
HETATM   24  C21 UNL     1      -2.878  -1.067  25.517  1.00  0.00     0.184 C 
HETATM   25  O2  UNL     1      -4.001  -1.576  25.283  1.00  0.00    -0.647 OA
HETATM   26  O3  UNL     1      -2.453  -1.140  26.834  1.00  0.00    -0.647 OA
ENDBRANCH  17  24
TORSDOF 4
ENDMDL
MODEL 4
REMARK VINA RESULT: -6.375817894      3.106      5.375
REMARK  4 active torsions:
REMARK  status: ('A' for Active; 'I' for Inactive)
REMARK    1  A    between atoms: O1_2  and  C2_3 
REMARK    2  A    between atoms: C5_6  and  C7_9 
REMARK    3  A    between atoms: C7_9  and  C8_10 
REMARK    4  A    between atoms: C19_22  and  C21_24 
ROOT
HETATM    1  C2  UNL     1      -0.597   1.789  26.214  1.00  0.00     0.144 C 
HETATM    2  C3  UNL     1      -1.850   2.160  25.446  1.00  0.00     0.023 C 
HETATM    3  C4  UNL     1      -1.786   3.655  25.268  1.00  0.00     0.032 C 
HETATM    4  C5  UNL     1      -2.889   4.158  24.373  1.00  0.00     0.051 C 
HETATM    5  C6  UNL     1      -2.611   5.604  24.177  1.00  0.00     0.069 C 
HETATM    6  N1  UNL     1      -2.398   6.726  24.008  1.00  0.00    -0.196 NA
HETATM    7  C9  UNL     1      -2.787   3.500  23.064  1.00  0.00     0.029 C 
HETATM    8  C10 UNL     1      -2.589   2.023  23.036  1.00  0.00    -0.012 C 
HETATM    9  C11 UNL     1      -3.932   1.392  22.742  1.00  0.00     0.010 C 
HETATM   10  C12 UNL     1      -1.802   1.427  24.119  1.00  0.00     0.004 C 
HETATM   11  C13 UNL     1      -1.959  -0.025  24.363  1.00  0.00    -0.035 C 
HETATM   12  C14 UNL     1      -3.264  -0.488  24.895  1.00  0.00     0.016 C 
HETATM   13  C15 UNL     1      -1.634  -0.759  23.067  1.00  0.00     0.010 C 
HETATM   14  C16 UNL     1      -0.417  -1.598  23.316  1.00  0.00     0.001 C 
HETATM   15  C17 UNL     1       0.292  -0.795  24.417  1.00  0.00     0.007 C 
HETATM   16  C18 UNL     1      -0.897  -0.532  25.315  1.00  0.00     0.015 C 
HETATM   17  C19 UNL     1      -0.624   0.316  26.492  1.00  0.00     0.075 C 
HETATM   18  C20 UNL     1       0.801  -0.056  26.948  1.00  0.00     0.030 C 
ENDROOT
BRANCH   4  19
HETATM   19  C7  UNL     1      -4.172   4.068  25.098  1.00  0.00     0.039 C 
BRANCH  19  20
HETATM   20  C8  UNL     1      -4.491   5.252  25.983  1.00  0.00     0.116 C 
HETATM   21 CL1  UNL     1      -3.523   5.078  27.484  1.00  0.00    -0.130 Cl
ENDBRANCH  19  20
ENDBRANCH   4  19
BRANCH   1  22
HETATM   22  O1  UNL     1       0.568   2.084  25.545  1.00  0.00    -0.389 OA
HETATM   23  C1  UNL     1       1.249   3.196  26.031  1.00  0.00     0.202 C 
ENDBRANCH   1  22
BRANCH  17  24
HETATM   24  C21 UNL     1      -1.467   0.082  27.662  1.00  0.00     0.184 C 
HETATM   25  O2  UNL     1      -1.818  -1.092  27.933  1.00  0.00    -0.647 OA
HETATM   26  O3  UNL     1      -1.931   1.059  28.529  1.00  0.00    -0.647 OA
ENDBRANCH  17  24
TORSDOF 4
ENDMDL
MODEL 5
REMARK VINA RESULT: -6.308772931      3.730      6.091
REMARK  4 active torsions:
REMARK  status: ('A' for Active; 'I' for Inactive)
REMARK    1  A    between atoms: O1_2  and  C2_3 
REMARK    2  A    between atoms: C5_6  and  C7_9 
REMARK    3  A    between atoms: C7_9  and  C8_10 
REMARK    4  A    between atoms: C19_22  and  C21_24 
ROOT
HETATM    1  C2  UNL     1      -0.390   4.161  26.431  1.00  0.00     0.144 C 
HETATM    2  C3  UNL     1      -1.377   5.050  25.702  1.00  0.00     0.023 C 
HETATM    3  C4  UNL     1      -0.612   6.299  25.351  1.00  0.00     0.032 C 
HETATM    4  C5  UNL     1      -1.419   7.220  24.473  1.00  0.00     0.051 C 
HETATM    5  C6  UNL     1      -0.494   8.319  24.096  1.00  0.00     0.069 C 
HETATM    6  N1  UNL     1       0.220   9.173  23.788  1.00  0.00    -0.196 NA
HETATM    7  C9  UNL     1      -1.794   6.508  23.243  1.00  0.00     0.029 C 
HETATM    8  C10 UNL     1      -2.346   5.129  23.372  1.00  0.00    -0.012 C 
HETATM    9  C11 UNL     1      -3.848   5.230  23.233  1.00  0.00     0.010 C 
HETATM   10  C12 UNL     1      -1.837   4.299  24.468  1.00  0.00     0.004 C 
HETATM   11  C13 UNL     1      -2.654   3.137  24.885  1.00  0.00    -0.035 C 
HETATM   12  C14 UNL     1      -3.954   3.420  25.543  1.00  0.00     0.016 C 
HETATM   13  C15 UNL     1      -2.871   2.250  23.664  1.00  0.00     0.010 C 
HETATM   14  C16 UNL     1      -2.200   0.938  23.934  1.00  0.00     0.001 C 
HETATM   15  C17 UNL     1      -1.074   1.358  24.892  1.00  0.00     0.007 C 
HETATM   16  C18 UNL     1      -1.879   2.238  25.822  1.00  0.00     0.015 C 
HETATM   17  C19 UNL     1      -1.102   2.919  26.877  1.00  0.00     0.075 C 
HETATM   18  C20 UNL     1       0.001   1.921  27.287  1.00  0.00     0.030 C 
ENDROOT
BRANCH   4  19
HETATM   19  C7  UNL     1      -2.496   7.829  25.278  1.00  0.00     0.039 C 
BRANCH  19  20
HETATM   20  C8  UNL     1      -2.028   8.784  26.353  1.00  0.00     0.116 C 
HETATM   21 CL1  UNL     1      -2.823  10.365  26.052  1.00  0.00    -0.130 Cl
ENDBRANCH  19  20
ENDBRANCH   4  19
BRANCH   1  22
HETATM   22  O1  UNL     1       0.691   3.791  25.665  1.00  0.00    -0.389 OA
HETATM   23  C1  UNL     1       1.896   4.377  26.042  1.00  0.00     0.202 C 
ENDBRANCH   1  22
BRANCH  17  24
HETATM   24  C21 UNL     1      -1.819   3.216  28.114  1.00  0.00     0.184 C 
HETATM   25  O2  UNL     1      -2.555   2.332  28.617  1.00  0.00    -0.647 OA
HETATM   26  O3  UNL     1      -1.765   4.414  28.809  1.00  0.00    -0.647 OA
ENDBRANCH  17  24
TORSDOF 4
ENDMDL
