MODEL 1
REMARK VINA RESULT: -9.167394986      0.000      0.000
REMARK  4 active torsions:
REMARK  status: ('A' for Active; 'I' for Inactive)
REMARK    1  A    between atoms: C7_7  and  C8_8 
REMARK    2  A    between atoms: C8_8  and  C9_9 
REMARK    3  A    between atoms: C9_9  and  C10_10 
REMARK    4  A    between atoms: C20_24  and  C21_25 
ROOT
HETATM    1  C10 UNL     1      -3.284   0.688  22.800  1.00  0.00     0.065 C 
HETATM    2  C11 UNL     1      -2.680  -0.189  21.812  1.00  0.00    -0.027 A 
HETATM    3  C12 UNL     1      -3.135  -0.281  20.524  1.00  0.00     0.097 A 
HETATM    4  N1  UNL     1      -2.561  -1.086  19.616  1.00  0.00    -0.356 N 
ATOM      5  H1  UNL     1      -2.919  -1.134  18.662  1.00  0.00     0.166 HD
HETATM    6  C13 UNL     1      -1.507  -1.826  19.988  1.00  0.00     0.103 A 
HETATM    7 CL1  UNL     1      -0.709  -2.902  18.835  1.00  0.00    -0.065 Cl
HETATM    8  C14 UNL     1      -0.996  -1.789  21.261  1.00  0.00     0.052 A 
HETATM    9  C15 UNL     1      -1.598  -0.950  22.198  1.00  0.00    -0.013 A 
HETATM   10  C16 UNL     1      -1.089  -0.961  23.551  1.00  0.00     0.264 A 
HETATM   11  C17 UNL     1       0.154  -0.117  23.729  1.00  0.00     0.059 A 
HETATM   12  C18 UNL     1       0.645   0.065  25.127  1.00  0.00     0.045 A 
HETATM   13  C19 UNL     1      -0.692   0.644  24.763  1.00  0.00     0.232 A 
HETATM   14  N2  UNL     1      -1.772  -0.236  24.548  1.00  0.00     0.118 N 
HETATM   15  C20 UNL     1      -3.059   0.260  24.226  1.00  0.00     0.332 C 
ENDROOT
BRANCH   1  16
HETATM   16  C9  UNL     1      -2.990   2.151  22.663  1.00  0.00     0.012 C 
BRANCH  16  17
HETATM   17  C8  UNL     1      -3.196   2.956  23.912  1.00  0.00     0.006 C 
BRANCH  17  18
HETATM   18  C7  UNL     1      -2.315   4.233  23.859  1.00  0.00    -0.011 C 
HETATM   19  C2  UNL     1      -3.130   5.415  23.539  1.00  0.00    -0.015 C 
HETATM   20  C1  UNL     1      -3.008   5.853  22.079  1.00  0.00     0.010 C 
HETATM   21  C3  UNL     1      -2.879   6.634  24.377  1.00  0.00     0.004 C 
HETATM   22  C4  UNL     1      -1.375   6.668  24.683  1.00  0.00     0.000 C 
HETATM   23  C5  UNL     1      -1.197   5.562  25.704  1.00  0.00     0.000 C 
HETATM   24  C6  UNL     1      -1.453   4.261  25.049  1.00  0.00     0.005 C 
ENDBRANCH  17  18
ENDBRANCH  16  17
ENDBRANCH   1  16
BRANCH  15  25
HETATM   25  C21 UNL     1      -4.081  -0.746  24.620  1.00  0.00     0.208 C 
HETATM   26  O1  UNL     1      -5.234  -0.668  24.083  1.00  0.00    -0.646 OA
HETATM   27  O2  UNL     1      -3.819  -1.748  25.537  1.00  0.00    -0.646 OA
ENDBRANCH  15  25
TORSDOF 4
ENDMDL
MODEL 2
REMARK VINA RESULT: -9.138653794      0.656      1.435
REMARK  4 active torsions:
REMARK  status: ('A' for Active; 'I' for Inactive)
REMARK    1  A    between atoms: C7_7  and  C8_8 
REMARK    2  A    between atoms: C8_8  and  C9_9 
REMARK    3  A    between atoms: C9_9  and  C10_10 
REMARK    4  A    between atoms: C20_24  and  C21_25 
ROOT
HETATM    1  C10 UNL     1      -3.120   0.735  23.017  1.00  0.00     0.065 C 
HETATM    2  C11 UNL     1      -2.546  -0.100  21.977  1.00  0.00    -0.027 A 
HETATM    3  C12 UNL     1      -2.995  -0.090  20.684  1.00  0.00     0.097 A 
HETATM    4  N1  UNL     1      -2.447  -0.857  19.727  1.00  0.00    -0.356 N 
ATOM      5  H1  UNL     1      -2.801  -0.829  18.771  1.00  0.00     0.166 HD
HETATM    6  C13 UNL     1      -1.425  -1.661  20.054  1.00  0.00     0.103 A 
HETATM    7 CL1  UNL     1      -0.663  -2.691  18.837  1.00  0.00    -0.065 Cl
HETATM    8  C14 UNL     1      -0.922  -1.726  21.329  1.00  0.00     0.052 A 
HETATM    9  C15 UNL     1      -1.496  -0.927  22.316  1.00  0.00    -0.013 A 
HETATM   10  C16 UNL     1      -0.997  -1.045  23.667  1.00  0.00     0.264 A 
HETATM   11  C17 UNL     1       0.277  -0.264  23.905  1.00  0.00     0.059 A 
HETATM   12  C18 UNL     1       0.766  -0.193  25.314  1.00  0.00     0.045 A 
HETATM   13  C19 UNL     1      -0.545   0.461  24.982  1.00  0.00     0.232 A 
HETATM   14  N2  UNL     1      -1.657  -0.359  24.707  1.00  0.00     0.118 N 
HETATM   15  C20 UNL     1      -2.922   0.207  24.413  1.00  0.00     0.332 C 
ENDROOT
BRANCH   1  16
HETATM   16  C9  UNL     1      -2.768   2.190  22.976  1.00  0.00     0.012 C 
BRANCH  16  17
HETATM   17  C8  UNL     1      -3.054   2.944  24.241  1.00  0.00     0.006 C 
BRANCH  17  18
HETATM   18  C7  UNL     1      -3.253   4.449  23.917  1.00  0.00    -0.011 C 
HETATM   19  C2  UNL     1      -2.277   5.273  24.646  1.00  0.00    -0.015 C 
HETATM   20  C1  UNL     1      -2.868   5.955  25.880  1.00  0.00     0.010 C 
HETATM   21  C3  UNL     1      -1.594   6.344  23.848  1.00  0.00     0.004 C 
HETATM   22  C4  UNL     1      -2.624   6.890  22.851  1.00  0.00     0.000 C 
HETATM   23  C5  UNL     1      -2.744   5.783  21.823  1.00  0.00     0.000 C 
HETATM   24  C6  UNL     1      -3.374   4.605  22.461  1.00  0.00     0.005 C 
ENDBRANCH  17  18
ENDBRANCH  16  17
ENDBRANCH   1  16
BRANCH  15  25
HETATM   25  C21 UNL     1      -3.984  -0.782  24.737  1.00  0.00     0.208 C 
HETATM   26  O1  UNL     1      -5.104  -0.673  24.137  1.00  0.00    -0.646 OA
HETATM   27  O2  UNL     1      -3.796  -1.799  25.656  1.00  0.00    -0.646 OA
ENDBRANCH  15  25
TORSDOF 4
ENDMDL
MODEL 3
REMARK VINA RESULT: -8.995330173      1.108      1.709
REMARK  4 active torsions:
REMARK  status: ('A' for Active; 'I' for Inactive)
REMARK    1  A    between atoms: C7_7  and  C8_8 
REMARK    2  A    between atoms: C8_8  and  C9_9 
REMARK    3  A    between atoms: C9_9  and  C10_10 
REMARK    4  A    between atoms: C20_24  and  C21_25 
ROOT
HETATM    1  C10 UNL     1      -2.989   0.742  23.528  1.00  0.00     0.065 C 
HETATM    2  C11 UNL     1      -2.481   0.001  22.387  1.00  0.00    -0.027 A 
HETATM    3  C12 UNL     1      -2.911   0.222  21.107  1.00  0.00     0.097 A 
HETATM    4  N1  UNL     1      -2.424  -0.460  20.058  1.00  0.00    -0.356 N 
ATOM      5  H1  UNL     1      -2.762  -0.275  19.114  1.00  0.00     0.166 HD
HETATM    6  C13 UNL     1      -1.483  -1.390  20.277  1.00  0.00     0.103 A 
HETATM    7 CL1  UNL     1      -0.803  -2.318  18.935  1.00  0.00    -0.065 Cl
HETATM    8  C14 UNL     1      -1.004  -1.668  21.532  1.00  0.00     0.052 A 
HETATM    9  C15 UNL     1      -1.515  -0.956  22.615  1.00  0.00    -0.013 A 
HETATM   10  C16 UNL     1      -1.046  -1.295  23.940  1.00  0.00     0.264 A 
HETATM   11  C17 UNL     1       0.291  -0.672  24.278  1.00  0.00     0.059 A 
HETATM   12  C18 UNL     1       0.768  -0.832  25.684  1.00  0.00     0.045 A 
HETATM   13  C19 UNL     1      -0.474  -0.022  25.441  1.00  0.00     0.232 A 
HETATM   14  N2  UNL     1      -1.653  -0.694  25.060  1.00  0.00     0.118 N 
HETATM   15  C20 UNL     1      -2.857   0.020  24.843  1.00  0.00     0.332 C 
ENDROOT
BRANCH   1  16
HETATM   16  C9  UNL     1      -2.506   2.152  23.679  1.00  0.00     0.012 C 
BRANCH  16  17
HETATM   17  C8  UNL     1      -3.523   3.206  23.351  1.00  0.00     0.006 C 
BRANCH  17  18
HETATM   18  C7  UNL     1      -2.873   4.295  22.456  1.00  0.00    -0.011 C 
HETATM   19  C2  UNL     1      -3.773   4.670  21.355  1.00  0.00    -0.015 C 
HETATM   20  C1  UNL     1      -3.393   4.028  20.020  1.00  0.00     0.010 C 
HETATM   21  C3  UNL     1      -3.922   6.140  21.098  1.00  0.00     0.004 C 
HETATM   22  C4  UNL     1      -2.555   6.785  21.364  1.00  0.00     0.000 C 
HETATM   23  C5  UNL     1      -2.439   6.756  22.875  1.00  0.00     0.000 C 
HETATM   24  C6  UNL     1      -2.323   5.349  23.318  1.00  0.00     0.005 C 
ENDBRANCH  17  18
ENDBRANCH  16  17
ENDBRANCH   1  16
BRANCH  15  25
HETATM   25  C21 UNL     1      -4.009  -0.900  25.033  1.00  0.00     0.208 C 
HETATM   26  O1  UNL     1      -3.903  -1.816  25.913  1.00  0.00    -0.646 OA
HETATM   27  O2  UNL     1      -5.174  -0.793  24.295  1.00  0.00    -0.646 OA
ENDBRANCH  15  25
TORSDOF 4
ENDMDL
MODEL 4
REMARK VINA RESULT: -8.331611717      3.837      7.024
REMARK  4 active torsions:
REMARK  status: ('A' for Active; 'I' for Inactive)
REMARK    1  A    between atoms: C7_7  and  C8_8 
REMARK    2  A    between atoms: C8_8  and  C9_9 
REMARK    3  A    between atoms: C9_9  and  C10_10 
REMARK    4  A    between atoms: C20_24  and  C21_25 
ROOT
HETATM    1  C10 UNL     1      -2.794   4.115  24.306  1.00  0.00     0.065 C 
HETATM    2  C11 UNL     1      -1.515   4.256  24.979  1.00  0.00    -0.027 A 
HETATM    3  C12 UNL     1      -0.834   3.193  25.509  1.00  0.00     0.097 A 
HETATM    4  N1  UNL     1       0.355   3.334  26.118  1.00  0.00    -0.356 N 
ATOM      5  H1  UNL     1       0.841   2.524  26.503  1.00  0.00     0.166 HD
HETATM    6  C13 UNL     1       0.889   4.559  26.209  1.00  0.00     0.103 A 
HETATM    7 CL1  UNL     1       2.452   4.806  26.997  1.00  0.00    -0.065 Cl
HETATM    8  C14 UNL     1       0.265   5.672  25.703  1.00  0.00     0.052 A 
HETATM    9  C15 UNL     1      -0.968   5.517  25.073  1.00  0.00    -0.013 A 
HETATM   10  C16 UNL     1      -1.645   6.702  24.595  1.00  0.00     0.264 A 
HETATM   11  C17 UNL     1      -1.126   7.189  23.259  1.00  0.00     0.059 A 
HETATM   12  C18 UNL     1      -1.881   8.303  22.613  1.00  0.00     0.045 A 
HETATM   13  C19 UNL     1      -2.575   6.983  22.789  1.00  0.00     0.232 A 
HETATM   14  N2  UNL     1      -2.955   6.589  24.088  1.00  0.00     0.118 N 
HETATM   15  C20 UNL     1      -3.634   5.365  24.306  1.00  0.00     0.332 C 
ENDROOT
BRANCH   1  16
HETATM   16  C9  UNL     1      -2.763   3.532  22.927  1.00  0.00     0.012 C 
BRANCH  16  17
HETATM   17  C8  UNL     1      -3.319   2.143  22.816  1.00  0.00     0.006 C 
BRANCH  17  18
HETATM   18  C7  UNL     1      -3.299   1.691  21.331  1.00  0.00    -0.011 C 
HETATM   19  C2  UNL     1      -4.056   0.443  21.155  1.00  0.00    -0.015 C 
HETATM   20  C1  UNL     1      -3.163  -0.793  21.042  1.00  0.00     0.010 C 
HETATM   21  C3  UNL     1      -4.997   0.402  19.987  1.00  0.00     0.004 C 
HETATM   22  C4  UNL     1      -4.334   1.187  18.847  1.00  0.00     0.000 C 
HETATM   23  C5  UNL     1      -4.468   2.631  19.288  1.00  0.00     0.000 C 
HETATM   24  C6  UNL     1      -3.621   2.847  20.482  1.00  0.00     0.005 C 
ENDBRANCH  17  18
ENDBRANCH  16  17
ENDBRANCH   1  16
BRANCH  15  25
HETATM   25  C21 UNL     1      -4.406   5.456  25.574  1.00  0.00     0.208 C 
HETATM   26  O1  UNL     1      -4.959   4.395  26.014  1.00  0.00    -0.646 OA
HETATM   27  O2  UNL     1      -4.539   6.640  26.278  1.00  0.00    -0.646 OA
ENDBRANCH  15  25
TORSDOF 4
ENDMDL
MODEL 5
REMARK VINA RESULT: -8.255434907      3.782      6.146
REMARK  4 active torsions:
REMARK  status: ('A' for Active; 'I' for Inactive)
REMARK    1  A    between atoms: C7_7  and  C8_8 
REMARK    2  A    between atoms: C8_8  and  C9_9 
REMARK    3  A    between atoms: C9_9  and  C10_10 
REMARK    4  A    between atoms: C20_24  and  C21_25 
ROOT
HETATM    1  C10 UNL     1      -3.655   0.902  20.963  1.00  0.00     0.065 C 
HETATM    2  C11 UNL     1      -3.294   1.976  21.872  1.00  0.00    -0.027 A 
HETATM    3  C12 UNL     1      -3.217   3.285  21.481  1.00  0.00     0.097 A 
HETATM    4  N1  UNL     1      -2.895   4.271  22.334  1.00  0.00    -0.356 N 
ATOM      5  H1  UNL     1      -2.846   5.239  22.016  1.00  0.00     0.166 HD
HETATM    6  C13 UNL     1      -2.640   3.958  23.612  1.00  0.00     0.103 A 
HETATM    7 CL1  UNL     1      -2.214   5.214  24.781  1.00  0.00    -0.065 Cl
HETATM    8  C14 UNL     1      -2.696   2.668  24.077  1.00  0.00     0.052 A 
HETATM    9  C15 UNL     1      -3.031   1.651  23.185  1.00  0.00    -0.013 A 
HETATM   10  C16 UNL     1      -3.032   0.289  23.671  1.00  0.00     0.264 A 
HETATM   11  C17 UNL     1      -4.293  -0.078  24.421  1.00  0.00     0.059 A 
HETATM   12  C18 UNL     1      -4.449  -1.512  24.808  1.00  0.00     0.045 A 
HETATM   13  C19 UNL     1      -4.438  -1.167  23.346  1.00  0.00     0.232 A 
HETATM   14  N2  UNL     1      -3.221  -0.767  22.757  1.00  0.00     0.118 N 
HETATM   15  C20 UNL     1      -3.151  -0.455  21.377  1.00  0.00     0.332 C 
ENDROOT
BRANCH   1  16
HETATM   16  C9  UNL     1      -5.101   0.806  20.584  1.00  0.00     0.012 C 
BRANCH  16  17
HETATM   17  C8  UNL     1      -5.529   1.735  19.486  1.00  0.00     0.006 C 
BRANCH  17  18
HETATM   18  C7  UNL     1      -4.742   1.405  18.189  1.00  0.00    -0.011 C 
HETATM   19  C2  UNL     1      -5.614   1.512  17.009  1.00  0.00    -0.015 C 
HETATM   20  C1  UNL     1      -6.094   0.156  16.489  1.00  0.00     0.010 C 
HETATM   21  C3  UNL     1      -5.041   2.246  15.832  1.00  0.00     0.004 C 
HETATM   22  C4  UNL     1      -3.543   1.918  15.782  1.00  0.00     0.000 C 
HETATM   23  C5  UNL     1      -2.968   2.713  16.938  1.00  0.00     0.000 C 
HETATM   24  C6  UNL     1      -3.472   2.142  18.207  1.00  0.00     0.005 C 
ENDBRANCH  17  18
ENDBRANCH  16  17
ENDBRANCH   1  16
BRANCH  15  25
HETATM   25  C21 UNL     1      -1.752  -0.640  20.908  1.00  0.00     0.208 C 
HETATM   26  O1  UNL     1      -1.469  -0.282  19.718  1.00  0.00    -0.646 OA
HETATM   27  O2  UNL     1      -0.765  -1.182  21.712  1.00  0.00    -0.646 OA
ENDBRANCH  15  25
TORSDOF 4
ENDMDL
