MODEL 1
REMARK VINA RESULT: -7.072328551      0.000      0.000
REMARK  5 active torsions:
REMARK  status: ('A' for Active; 'I' for Inactive)
REMARK    1  A    between atoms: C4_7  and  C5_8 
REMARK    2  A    between atoms: C6_9  and  N2_10 
REMARK    3  A    between atoms: C12_16  and  O2_17 
REMARK    4  A    between atoms: C13_19  and  C14_20 
REMARK    5  A    between atoms: C14_20  and  N3_21 
ROOT
HETATM    1  C1  UNL     1      63.393  49.853  20.381  1.00  0.00     0.069 C 
HETATM    2  C2  UNL     1      64.865  50.155  20.136  1.00  0.00     0.023 A 
HETATM    3  N1  UNL     1      65.769  49.173  20.210  1.00  0.00    -0.326 N 
ATOM      4  H1  UNL     1      65.477  48.244  20.513  1.00  0.00     0.169 HD
HETATM    5  C3  UNL     1      67.055  49.389  19.892  1.00  0.00     0.258 A 
HETATM    6  O1  UNL     1      67.840  48.412  20.003  1.00  0.00    -0.267 OA
HETATM    7  C4  UNL     1      67.528  50.626  19.467  1.00  0.00     0.067 A 
HETATM    8  C12 UNL     1      66.536  51.655  19.393  1.00  0.00     0.095 A 
HETATM    9  C13 UNL     1      65.210  51.428  19.729  1.00  0.00     0.036 A 
ENDROOT
BRANCH   7  10
HETATM   10  C5  UNL     1      68.944  50.937  19.257  1.00  0.00     0.031 C 
HETATM   11  C6  UNL     1      69.843  51.450  20.261  1.00  0.00     0.060 C 
BRANCH  11  12
HETATM   12  N2  UNL     1      69.730  52.830  20.699  1.00  0.00    -0.293 NA
HETATM   13  C7  UNL     1      68.997  52.862  21.980  1.00  0.00     0.095 C 
HETATM   14  C8  UNL     1      69.872  52.946  23.192  1.00  0.00     0.015 C 
HETATM   15  C9  UNL     1      70.751  54.176  23.191  1.00  0.00     0.002 C 
HETATM   16  C10 UNL     1      70.996  54.617  21.741  1.00  0.00     0.015 C 
HETATM   17  C11 UNL     1      71.098  53.338  20.963  1.00  0.00     0.095 C 
ENDBRANCH  11  12
ENDBRANCH   7  10
BRANCH   8  18
HETATM   18  O2  UNL     1      66.965  52.890  18.974  1.00  0.00    -0.359 OA
ATOM     19  H2  UNL     1      66.295  53.552  18.853  1.00  0.00     0.217 HD
ENDBRANCH   8  18
BRANCH   9  20
HETATM   20  C14 UNL     1      64.279  52.530  19.963  1.00  0.00     0.106 C 
BRANCH  20  21
HETATM   21  N3  UNL     1      63.453  53.118  19.066  1.00  0.00    -0.369 N 
HETATM   22  C15 UNL     1      62.177  53.546  19.181  1.00  0.00     0.063 C 
HETATM   23  C16 UNL     1      61.351  52.998  18.015  1.00  0.00     0.046 C 
HETATM   24  C17 UNL     1      62.404  52.669  16.992  1.00  0.00     0.025 C 
HETATM   25  C18 UNL     1      63.646  52.470  17.764  1.00  0.00     0.128 C 
ENDBRANCH  20  21
ENDBRANCH   9  20
TORSDOF 5
ENDMDL
MODEL 2
REMARK VINA RESULT: -6.976240358      0.998      1.347
REMARK  5 active torsions:
REMARK  status: ('A' for Active; 'I' for Inactive)
REMARK    1  A    between atoms: C4_7  and  C5_8 
REMARK    2  A    between atoms: C6_9  and  N2_10 
REMARK    3  A    between atoms: C12_16  and  O2_17 
REMARK    4  A    between atoms: C13_19  and  C14_20 
REMARK    5  A    between atoms: C14_20  and  N3_21 
ROOT
HETATM    1  C1  UNL     1      63.155  48.970  21.028  1.00  0.00     0.069 C 
HETATM    2  C2  UNL     1      64.525  49.430  20.548  1.00  0.00     0.023 A 
HETATM    3  N1  UNL     1      65.536  48.558  20.481  1.00  0.00    -0.326 N 
ATOM      4  H1  UNL     1      65.404  47.610  20.832  1.00  0.00     0.169 HD
HETATM    5  C3  UNL     1      66.721  48.910  19.960  1.00  0.00     0.258 A 
HETATM    6  O1  UNL     1      67.620  48.030  19.948  1.00  0.00    -0.267 OA
HETATM    7  C4  UNL     1      66.975  50.182  19.458  1.00  0.00     0.067 A 
HETATM    8  C12 UNL     1      65.873  51.090  19.538  1.00  0.00     0.095 A 
HETATM    9  C13 UNL     1      64.653  50.724  20.084  1.00  0.00     0.036 A 
ENDROOT
BRANCH   7  10
HETATM   10  C5  UNL     1      68.295  50.644  19.020  1.00  0.00     0.031 C 
HETATM   11  C6  UNL     1      69.321  51.173  19.885  1.00  0.00     0.060 C 
BRANCH  11  12
HETATM   12  N2  UNL     1      69.178  52.502  20.453  1.00  0.00    -0.293 NA
HETATM   13  C7  UNL     1      68.447  52.394  21.732  1.00  0.00     0.095 C 
HETATM   14  C8  UNL     1      69.323  52.381  22.946  1.00  0.00     0.015 C 
HETATM   15  C9  UNL     1      70.174  53.627  23.063  1.00  0.00     0.002 C 
HETATM   16  C10 UNL     1      70.404  54.210  21.661  1.00  0.00     0.015 C 
HETATM   17  C11 UNL     1      70.534  53.014  20.765  1.00  0.00     0.095 C 
ENDBRANCH  11  12
ENDBRANCH   7  10
BRANCH   8  18
HETATM   18  O2  UNL     1      66.086  52.356  19.050  1.00  0.00    -0.359 OA
ATOM     19  H2  UNL     1      66.268  53.032  19.691  1.00  0.00     0.217 HD
ENDBRANCH   8  18
BRANCH   9  20
HETATM   20  C14 UNL     1      63.650  51.720  20.459  1.00  0.00     0.106 C 
BRANCH  20  21
HETATM   21  N3  UNL     1      62.651  52.216  19.692  1.00  0.00    -0.369 N 
HETATM   22  C15 UNL     1      62.603  53.301  18.889  1.00  0.00     0.063 C 
HETATM   23  C16 UNL     1      61.352  54.118  19.214  1.00  0.00     0.046 C 
HETATM   24  C17 UNL     1      60.470  53.110  19.901  1.00  0.00     0.025 C 
HETATM   25  C18 UNL     1      61.391  52.087  20.432  1.00  0.00     0.128 C 
ENDBRANCH  20  21
ENDBRANCH   9  20
TORSDOF 5
ENDMDL
MODEL 3
REMARK VINA RESULT: -6.843158553      3.424      5.574
REMARK  5 active torsions:
REMARK  status: ('A' for Active; 'I' for Inactive)
REMARK    1  A    between atoms: C4_7  and  C5_8 
REMARK    2  A    between atoms: C6_9  and  N2_10 
REMARK    3  A    between atoms: C12_16  and  O2_17 
REMARK    4  A    between atoms: C13_19  and  C14_20 
REMARK    5  A    between atoms: C14_20  and  N3_21 
ROOT
HETATM    1  C1  UNL     1      58.892  54.367  18.219  1.00  0.00     0.069 C 
HETATM    2  C2  UNL     1      60.228  53.661  18.407  1.00  0.00     0.023 A 
HETATM    3  N1  UNL     1      61.170  53.754  17.464  1.00  0.00    -0.326 N 
ATOM      4  H1  UNL     1      60.957  54.228  16.587  1.00  0.00     0.169 HD
HETATM    5  C3  UNL     1      62.393  53.234  17.653  1.00  0.00     0.258 A 
HETATM    6  O1  UNL     1      63.214  53.355  16.708  1.00  0.00    -0.267 OA
HETATM    7  C4  UNL     1      62.760  52.577  18.823  1.00  0.00     0.067 A 
HETATM    8  C12 UNL     1      61.732  52.499  19.815  1.00  0.00     0.095 A 
HETATM    9  C13 UNL     1      60.468  53.032  19.613  1.00  0.00     0.036 A 
ENDROOT
BRANCH   7  10
HETATM   10  C5  UNL     1      64.030  51.870  19.005  1.00  0.00     0.031 C 
HETATM   11  C6  UNL     1      64.598  51.491  20.275  1.00  0.00     0.060 C 
BRANCH  11  12
HETATM   12  N2  UNL     1      65.177  52.503  21.142  1.00  0.00    -0.293 NA
HETATM   13  C7  UNL     1      65.653  51.851  22.378  1.00  0.00     0.095 C 
HETATM   14  C8  UNL     1      67.118  51.543  22.391  1.00  0.00     0.015 C 
HETATM   15  C9  UNL     1      67.974  52.778  22.222  1.00  0.00     0.002 C 
HETATM   16  C10 UNL     1      67.175  53.841  21.453  1.00  0.00     0.015 C 
HETATM   17  C11 UNL     1      66.366  53.064  20.456  1.00  0.00     0.095 C 
ENDBRANCH  11  12
ENDBRANCH   7  10
BRANCH   8  18
HETATM   18  O2  UNL     1      62.058  51.860  20.986  1.00  0.00    -0.359 OA
ATOM     19  H2  UNL     1      62.368  50.965  20.907  1.00  0.00     0.217 HD
ENDBRANCH   8  18
BRANCH   9  20
HETATM   20  C14 UNL     1      59.340  52.677  20.472  1.00  0.00     0.106 C 
BRANCH  20  21
HETATM   21  N3  UNL     1      59.037  53.185  21.689  1.00  0.00    -0.369 N 
HETATM   22  C15 UNL     1      59.104  52.637  22.922  1.00  0.00     0.063 C 
HETATM   23  C16 UNL     1      57.779  52.865  23.651  1.00  0.00     0.046 C 
HETATM   24  C17 UNL     1      57.185  54.026  22.900  1.00  0.00     0.025 C 
HETATM   25  C18 UNL     1      57.814  53.987  21.566  1.00  0.00     0.128 C 
ENDBRANCH  20  21
ENDBRANCH   9  20
TORSDOF 5
ENDMDL
MODEL 4
REMARK VINA RESULT: -6.839461837      2.981      7.545
REMARK  5 active torsions:
REMARK  status: ('A' for Active; 'I' for Inactive)
REMARK    1  A    between atoms: C4_7  and  C5_8 
REMARK    2  A    between atoms: C6_9  and  N2_10 
REMARK    3  A    between atoms: C12_16  and  O2_17 
REMARK    4  A    between atoms: C13_19  and  C14_20 
REMARK    5  A    between atoms: C14_20  and  N3_21 
ROOT
HETATM    1  C1  UNL     1      67.466  52.417  19.110  1.00  0.00     0.069 C 
HETATM    2  C2  UNL     1      65.959  52.419  18.894  1.00  0.00     0.023 A 
HETATM    3  N1  UNL     1      65.448  52.923  17.766  1.00  0.00    -0.326 N 
ATOM      4  H1  UNL     1      66.066  53.378  17.095  1.00  0.00     0.169 HD
HETATM    5  C3  UNL     1      64.134  52.838  17.503  1.00  0.00     0.258 A 
HETATM    6  O1  UNL     1      63.737  53.350  16.425  1.00  0.00    -0.267 OA
HETATM    7  C4  UNL     1      63.231  52.228  18.367  1.00  0.00     0.067 A 
HETATM    8  C12 UNL     1      63.809  51.695  19.561  1.00  0.00     0.095 A 
HETATM    9  C13 UNL     1      65.165  51.791  19.832  1.00  0.00     0.036 A 
ENDROOT
BRANCH   7  10
HETATM   10  C5  UNL     1      61.777  52.249  18.184  1.00  0.00     0.031 C 
HETATM   11  C6  UNL     1      60.867  53.149  18.849  1.00  0.00     0.060 C 
BRANCH  11  12
HETATM   12  N2  UNL     1      60.566  52.965  20.258  1.00  0.00    -0.293 NA
HETATM   13  C7  UNL     1      59.893  54.180  20.761  1.00  0.00     0.095 C 
HETATM   14  C8  UNL     1      58.400  54.082  20.817  1.00  0.00     0.015 C 
HETATM   15  C9  UNL     1      57.923  52.953  21.703  1.00  0.00     0.002 C 
HETATM   16  C10 UNL     1      59.006  51.865  21.754  1.00  0.00     0.015 C 
HETATM   17  C11 UNL     1      59.598  51.847  20.375  1.00  0.00     0.095 C 
ENDBRANCH  11  12
ENDBRANCH   7  10
BRANCH   8  18
HETATM   18  O2  UNL     1      62.948  51.082  20.438  1.00  0.00    -0.359 OA
ATOM     19  H2  UNL     1      63.322  50.777  21.256  1.00  0.00     0.217 HD
ENDBRANCH   8  18
BRANCH   9  20
HETATM   20  C14 UNL     1      65.700  51.543  21.170  1.00  0.00     0.106 C 
BRANCH  20  21
HETATM   21  N3  UNL     1      65.661  52.369  22.242  1.00  0.00    -0.369 N 
HETATM   22  C15 UNL     1      66.517  53.329  22.655  1.00  0.00     0.063 C 
HETATM   23  C16 UNL     1      66.834  53.122  24.137  1.00  0.00     0.046 C 
HETATM   24  C17 UNL     1      65.678  52.282  24.607  1.00  0.00     0.025 C 
HETATM   25  C18 UNL     1      65.171  51.607  23.396  1.00  0.00     0.128 C 
ENDBRANCH  20  21
ENDBRANCH   9  20
TORSDOF 5
ENDMDL
MODEL 5
REMARK VINA RESULT: -6.757660184      1.987      3.071
REMARK  5 active torsions:
REMARK  status: ('A' for Active; 'I' for Inactive)
REMARK    1  A    between atoms: C4_7  and  C5_8 
REMARK    2  A    between atoms: C6_9  and  N2_10 
REMARK    3  A    between atoms: C12_16  and  O2_17 
REMARK    4  A    between atoms: C13_19  and  C14_20 
REMARK    5  A    between atoms: C14_20  and  N3_21 
ROOT
HETATM    1  C1  UNL     1      63.060  53.069  17.149  1.00  0.00     0.069 C 
HETATM    2  C2  UNL     1      64.063  52.655  18.218  1.00  0.00     0.023 A 
HETATM    3  N1  UNL     1      65.374  52.756  17.977  1.00  0.00    -0.326 N 
ATOM      4  H1  UNL     1      65.694  53.031  17.049  1.00  0.00     0.169 HD
HETATM    5  C3  UNL     1      66.277  52.501  18.937  1.00  0.00     0.258 A 
HETATM    6  O1  UNL     1      67.489  52.609  18.620  1.00  0.00    -0.267 OA
HETATM    7  C4  UNL     1      65.918  52.125  20.227  1.00  0.00     0.067 A 
HETATM    8  C12 UNL     1      64.509  52.031  20.455  1.00  0.00     0.095 A 
HETATM    9  C13 UNL     1      63.581  52.288  19.458  1.00  0.00     0.036 A 
ENDROOT
BRANCH   7  10
HETATM   10  C5  UNL     1      66.872  51.697  21.254  1.00  0.00     0.031 C 
HETATM   11  C6  UNL     1      67.551  52.572  22.177  1.00  0.00     0.060 C 
BRANCH  11  12
HETATM   12  N2  UNL     1      68.626  53.429  21.708  1.00  0.00    -0.293 NA
HETATM   13  C7  UNL     1      69.239  54.099  22.873  1.00  0.00     0.095 C 
HETATM   14  C8  UNL     1      70.488  53.445  23.376  1.00  0.00     0.015 C 
HETATM   15  C9  UNL     1      71.573  53.375  22.323  1.00  0.00     0.002 C 
HETATM   16  C10 UNL     1      70.922  53.367  20.932  1.00  0.00     0.015 C 
HETATM   17  C11 UNL     1      69.666  52.564  21.102  1.00  0.00     0.095 C 
ENDBRANCH  11  12
ENDBRANCH   7  10
BRANCH   8  18
HETATM   18  O2  UNL     1      64.116  51.665  21.719  1.00  0.00    -0.359 OA
ATOM     19  H2  UNL     1      64.763  51.762  22.408  1.00  0.00     0.217 HD
ENDBRANCH   8  18
BRANCH   9  20
HETATM   20  C14 UNL     1      62.182  51.886  19.590  1.00  0.00     0.106 C 
BRANCH  20  21
HETATM   21  N3  UNL     1      61.254  52.388  20.438  1.00  0.00    -0.369 N 
HETATM   22  C15 UNL     1      60.258  51.786  21.123  1.00  0.00     0.063 C 
HETATM   23  C16 UNL     1      58.953  52.552  20.900  1.00  0.00     0.046 C 
HETATM   24  C17 UNL     1      59.437  53.905  20.456  1.00  0.00     0.025 C 
HETATM   25  C18 UNL     1      60.786  53.673  19.906  1.00  0.00     0.128 C 
ENDBRANCH  20  21
ENDBRANCH   9  20
TORSDOF 5
ENDMDL
