MODEL 1
REMARK VINA RESULT: -5.633516429      0.000      0.000
REMARK  4 active torsions:
REMARK  status: ('A' for Active; 'I' for Inactive)
REMARK    1  A    between atoms: S1_2  and  C2_3 
REMARK    2  A    between atoms: C2_3  and  C3_4 
REMARK    3  A    between atoms: C3_4  and  C4_5 
REMARK    4  A    between atoms: C8_10  and  O2_11 
ROOT
HETATM    1  C4  UNL     1     101.948  99.362  79.945  1.00  0.00     0.039 C 
HETATM    2  C5  UNL     1     102.740 100.603  80.223  1.00  0.00     0.042 C 
HETATM    3  C6  UNL     1     103.256 101.313  79.018  1.00  0.00     0.121 C 
HETATM    4  C7  UNL     1     104.737 101.611  79.213  1.00  0.00     0.040 C 
HETATM    5  O1  UNL     1     103.139 100.605  77.834  1.00  0.00    -0.351 OA
HETATM    6  C8  UNL     1     101.766 100.350  77.639  1.00  0.00     0.304 C 
HETATM    7  C9  UNL     1     101.443  99.265  78.572  1.00  0.00     0.039 C 
HETATM    8  N1  UNL     1     100.754  98.288  78.193  1.00  0.00    -0.401 N 
ATOM      9  H11 UNL     1     100.403  98.221  77.238  1.00  0.00     0.155 HD
ATOM     10  H12 UNL     1     100.529  97.534  78.842  1.00  0.00     0.155 HD
ENDROOT
BRANCH   1  11
HETATM   11  C3  UNL     1     100.722  99.356  80.872  1.00  0.00     0.021 C 
BRANCH  11  12
HETATM   12  C2  UNL     1     100.859  98.180  81.828  1.00  0.00     0.074 C 
BRANCH  12  13
HETATM   13  S1  UNL     1      99.275  97.357  82.094  1.00  0.00    -0.173 SA
HETATM   14  C1  UNL     1      97.975  98.622  81.972  1.00  0.00     0.089 C 
ENDBRANCH  12  13
ENDBRANCH  11  12
ENDBRANCH   1  11
BRANCH   6  15
HETATM   15  O2  UNL     1     101.510  99.970  76.325  1.00  0.00    -0.366 OA
ATOM     16  H2  UNL     1     101.983 100.520  75.712  1.00  0.00     0.213 HD
ENDBRANCH   6  15
TORSDOF 4
ENDMDL
MODEL 2
REMARK VINA RESULT: -5.579509035      1.005      1.285
REMARK  4 active torsions:
REMARK  status: ('A' for Active; 'I' for Inactive)
REMARK    1  A    between atoms: S1_2  and  C2_3 
REMARK    2  A    between atoms: C2_3  and  C3_4 
REMARK    3  A    between atoms: C3_4  and  C4_5 
REMARK    4  A    between atoms: C8_10  and  O2_11 
ROOT
HETATM    1  C4  UNL     1     101.956  99.132  80.016  1.00  0.00     0.039 C 
HETATM    2  C5  UNL     1     102.714 100.380  80.353  1.00  0.00     0.042 C 
HETATM    3  C6  UNL     1     103.148 101.197  79.184  1.00  0.00     0.121 C 
HETATM    4  C7  UNL     1     104.624 101.539  79.338  1.00  0.00     0.040 C 
HETATM    5  O1  UNL     1     103.003 100.573  77.956  1.00  0.00    -0.351 OA
HETATM    6  C8  UNL     1     101.633 100.279  77.801  1.00  0.00     0.304 C 
HETATM    7  C9  UNL     1     101.394  99.116  78.663  1.00  0.00     0.039 C 
HETATM    8  N1  UNL     1     100.724  98.143  78.241  1.00  0.00    -0.401 N 
ATOM      9  H11 UNL     1     100.332  98.132  77.300  1.00  0.00     0.155 HD
ATOM     10  H12 UNL     1     100.557  97.334  78.841  1.00  0.00     0.155 HD
ENDROOT
BRANCH   1  11
HETATM   11  C3  UNL     1     100.776  99.009  80.992  1.00  0.00     0.021 C 
BRANCH  11  12
HETATM   12  C2  UNL     1     100.956  97.727  81.792  1.00  0.00     0.074 C 
BRANCH  12  13
HETATM   13  S1  UNL     1      99.627  96.551  81.466  1.00  0.00    -0.173 SA
HETATM   14  C1  UNL     1     100.311  94.880  81.676  1.00  0.00     0.089 C 
ENDBRANCH  12  13
ENDBRANCH  11  12
ENDBRANCH   1  11
BRANCH   6  15
HETATM   15  O2  UNL     1     101.331  99.987  76.475  1.00  0.00    -0.366 OA
ATOM     16  H2  UNL     1     102.008 100.310  75.891  1.00  0.00     0.213 HD
ENDBRANCH   6  15
TORSDOF 4
ENDMDL
MODEL 3
REMARK VINA RESULT: -5.541726029      2.517      3.239
REMARK  4 active torsions:
REMARK  status: ('A' for Active; 'I' for Inactive)
REMARK    1  A    between atoms: S1_2  and  C2_3 
REMARK    2  A    between atoms: C2_3  and  C3_4 
REMARK    3  A    between atoms: C3_4  and  C4_5 
REMARK    4  A    between atoms: C8_10  and  O2_11 
ROOT
HETATM    1  C4  UNL     1     103.337  99.728  79.781  1.00  0.00     0.039 C 
HETATM    2  C5  UNL     1     104.020  99.522  81.099  1.00  0.00     0.042 C 
HETATM    3  C6  UNL     1     105.281 100.293  81.290  1.00  0.00     0.121 C 
HETATM    4  C7  UNL     1     106.367  99.351  81.792  1.00  0.00     0.040 C 
HETATM    5  O1  UNL     1     105.769 100.898  80.144  1.00  0.00    -0.351 OA
HETATM    6  C8  UNL     1     104.775 101.790  79.692  1.00  0.00     0.304 C 
HETATM    7  C9  UNL     1     103.755 100.939  79.069  1.00  0.00     0.039 C 
HETATM    8  N1  UNL     1     103.263 101.251  77.958  1.00  0.00    -0.401 N 
ATOM      9  H11 UNL     1     103.554 102.093  77.462  1.00  0.00     0.155 HD
ATOM     10  H12 UNL     1     102.554 100.659  77.525  1.00  0.00     0.155 HD
ENDROOT
BRANCH   1  11
HETATM   11  C3  UNL     1     101.827  99.860  80.037  1.00  0.00     0.021 C 
BRANCH  11  12
HETATM   12  C2  UNL     1     101.509  99.169  81.355  1.00  0.00     0.074 C 
BRANCH  12  13
HETATM   13  S1  UNL     1     100.663  97.598  81.091  1.00  0.00    -0.173 SA
HETATM   14  C1  UNL     1     101.793  96.273  81.615  1.00  0.00     0.089 C 
ENDBRANCH  12  13
ENDBRANCH  11  12
ENDBRANCH   1  11
BRANCH   6  15
HETATM   15  O2  UNL     1     105.295 102.696  78.775  1.00  0.00    -0.366 OA
ATOM     16  H2  UNL     1     105.780 103.386  79.213  1.00  0.00     0.213 HD
ENDBRANCH   6  15
TORSDOF 4
ENDMDL
MODEL 4
REMARK VINA RESULT: -5.252960046      2.561      3.178
REMARK  4 active torsions:
REMARK  status: ('A' for Active; 'I' for Inactive)
REMARK    1  A    between atoms: S1_2  and  C2_3 
REMARK    2  A    between atoms: C2_3  and  C3_4 
REMARK    3  A    between atoms: C3_4  and  C4_5 
REMARK    4  A    between atoms: C8_10  and  O2_11 
ROOT
HETATM    1  C4  UNL     1     101.091  99.031  79.835  1.00  0.00     0.039 C 
HETATM    2  C5  UNL     1     102.183  99.993  79.479  1.00  0.00     0.042 C 
HETATM    3  C6  UNL     1     103.497  99.738  80.137  1.00  0.00     0.121 C 
HETATM    4  C7  UNL     1     104.010 101.039  80.740  1.00  0.00     0.040 C 
HETATM    5  O1  UNL     1     103.460  98.805  81.159  1.00  0.00    -0.351 OA
HETATM    6  C8  UNL     1     103.009  97.593  80.597  1.00  0.00     0.304 C 
HETATM    7  C9  UNL     1     101.564  97.772  80.417  1.00  0.00     0.039 C 
HETATM    8  N1  UNL     1     100.767  96.864  80.756  1.00  0.00    -0.401 N 
ATOM      9  H11 UNL     1     101.096  95.988  81.160  1.00  0.00     0.155 HD
ATOM     10  H12 UNL     1      99.762  96.987  80.630  1.00  0.00     0.155 HD
ENDROOT
BRANCH   1  11
HETATM   11  C3  UNL     1     100.330  98.670  78.550  1.00  0.00     0.021 C 
BRANCH  11  12
HETATM   12  C2  UNL     1      99.008  99.424  78.557  1.00  0.00     0.074 C 
BRANCH  12  13
HETATM   13  S1  UNL     1      97.683  98.429  79.272  1.00  0.00    -0.173 SA
HETATM   14  C1  UNL     1      97.555  98.871  81.031  1.00  0.00     0.089 C 
ENDBRANCH  12  13
ENDBRANCH  11  12
ENDBRANCH   1  11
BRANCH   6  15
HETATM   15  O2  UNL     1     103.278  96.520  81.441  1.00  0.00    -0.366 OA
ATOM     16  H2  UNL     1     103.855  96.778  82.149  1.00  0.00     0.213 HD
ENDBRANCH   6  15
TORSDOF 4
ENDMDL
MODEL 5
REMARK VINA RESULT: -5.190902031      3.382      5.138
REMARK  4 active torsions:
REMARK  status: ('A' for Active; 'I' for Inactive)
REMARK    1  A    between atoms: S1_2  and  C2_3 
REMARK    2  A    between atoms: C2_3  and  C3_4 
REMARK    3  A    between atoms: C3_4  and  C4_5 
REMARK    4  A    between atoms: C8_10  and  O2_11 
ROOT
HETATM    1  C4  UNL     1     102.250  98.946  80.248  1.00  0.00     0.039 C 
HETATM    2  C5  UNL     1     101.141  99.703  80.911  1.00  0.00     0.042 C 
HETATM    3  C6  UNL     1      99.979  98.879  81.350  1.00  0.00     0.121 C 
HETATM    4  C7  UNL     1      98.693  99.534  80.861  1.00  0.00     0.040 C 
HETATM    5  O1  UNL     1      99.978  97.579  80.871  1.00  0.00    -0.351 OA
HETATM    6  C8  UNL     1     101.155  96.964  81.343  1.00  0.00     0.304 C 
HETATM    7  C9  UNL     1     102.230  97.502  80.502  1.00  0.00     0.039 C 
HETATM    8  N1  UNL     1     103.101  96.738  80.023  1.00  0.00    -0.401 N 
ATOM      9  H11 UNL     1     103.088  95.734  80.200  1.00  0.00     0.155 HD
ATOM     10  H12 UNL     1     103.849  97.113  79.438  1.00  0.00     0.155 HD
ENDROOT
BRANCH   1  11
HETATM   11  C3  UNL     1     103.587  99.476  80.789  1.00  0.00     0.021 C 
BRANCH  11  12
HETATM   12  C2  UNL     1     103.517 100.996  80.812  1.00  0.00     0.074 C 
BRANCH  12  13
HETATM   13  S1  UNL     1     104.391 101.719  79.408  1.00  0.00    -0.173 SA
HETATM   14  C1  UNL     1     106.170 101.461  79.680  1.00  0.00     0.089 C 
ENDBRANCH  12  13
ENDBRANCH  11  12
ENDBRANCH   1  11
BRANCH   6  15
HETATM   15  O2  UNL     1     101.077  95.580  81.227  1.00  0.00    -0.366 OA
ATOM     16  H2  UNL     1     101.173  95.160  82.073  1.00  0.00     0.213 HD
ENDBRANCH   6  15
TORSDOF 4
ENDMDL
