MODEL 1
REMARK VINA RESULT: -4.764476539      0.000      0.000
REMARK  4 active torsions:
REMARK  status: ('A' for Active; 'I' for Inactive)
REMARK    1  A    between atoms: C2_2  and  C3_3 
REMARK    2  A    between atoms: C3_3  and  N1_4 
REMARK    3  A    between atoms: N2_8  and  O1_9 
REMARK    4  A    between atoms: C7_12  and  O2_13 
ROOT
HETATM    1  N1  UNL     1     101.611  98.202  80.342  1.00  0.00    -0.357 N 
HETATM    2  C4  UNL     1     100.966  98.583  79.190  1.00  0.00     0.084 C 
HETATM    3  C5  UNL     1      99.687  98.073  78.736  1.00  0.00     0.133 C 
HETATM    4  C6  UNL     1      98.649  99.193  78.566  1.00  0.00     0.035 C 
HETATM    5  N2  UNL     1      99.025  97.056  79.507  1.00  0.00    -0.125 NA
HETATM    6  S1  UNL     1      99.370  97.198  81.215  1.00  0.00    -0.001 SA
HETATM    7  C7  UNL     1     101.212  97.150  81.144  1.00  0.00     0.304 C 
ENDROOT
BRANCH   1   8
HETATM    8  C3  UNL     1     102.115  99.319  81.124  1.00  0.00     0.125 C 
BRANCH   8   9
HETATM    9  C2  UNL     1     103.516  99.702  80.700  1.00  0.00     0.015 C 
HETATM   10  C1  UNL     1     103.497 101.166  80.285  1.00  0.00     0.006 C 
ENDBRANCH   8   9
ENDBRANCH   1   8
BRANCH   7  11
HETATM   11  O2  UNL     1     101.625  97.111  82.437  1.00  0.00    -0.361 OA
HETATM   12  C8  UNL     1     100.544  96.702  83.243  1.00  0.00     0.205 C 
ENDBRANCH   7  11
BRANCH   5  13
HETATM   13  O1  UNL     1      97.753  96.879  79.199  1.00  0.00    -0.302 OA
ATOM     14  H1  UNL     1      97.253  97.683  79.120  1.00  0.00     0.238 HD
ENDBRANCH   5  13
TORSDOF 4
ENDMDL
MODEL 2
REMARK VINA RESULT: -4.688482609      1.946      3.914
REMARK  4 active torsions:
REMARK  status: ('A' for Active; 'I' for Inactive)
REMARK    1  A    between atoms: C2_2  and  C3_3 
REMARK    2  A    between atoms: C3_3  and  N1_4 
REMARK    3  A    between atoms: N2_8  and  O1_9 
REMARK    4  A    between atoms: C7_12  and  O2_13 
ROOT
HETATM    1  N1  UNL     1      99.600  98.484  81.584  1.00  0.00    -0.357 N 
HETATM    2  C4  UNL     1     100.360  99.517  81.088  1.00  0.00     0.084 C 
HETATM    3  C5  UNL     1     101.804  99.509  80.956  1.00  0.00     0.133 C 
HETATM    4  C6  UNL     1     102.249  99.736  79.504  1.00  0.00     0.035 C 
HETATM    5  N2  UNL     1     102.541  98.360  81.405  1.00  0.00    -0.125 NA
HETATM    6  S1  UNL     1     101.625  96.882  81.231  1.00  0.00    -0.001 SA
HETATM    7  C7  UNL     1     100.122  97.357  82.187  1.00  0.00     0.304 C 
ENDROOT
BRANCH   1   8
HETATM    8  C3  UNL     1      98.437  98.174  80.769  1.00  0.00     0.125 C 
BRANCH   8   9
HETATM    9  C2  UNL     1      98.726  98.368  79.296  1.00  0.00     0.015 C 
HETATM   10  C1  UNL     1      98.587  97.018  78.609  1.00  0.00     0.006 C 
ENDBRANCH   8   9
ENDBRANCH   1   8
BRANCH   7  11
HETATM   11  O2  UNL     1      99.363  96.233  82.256  1.00  0.00    -0.361 OA
HETATM   12  C8  UNL     1     100.143  95.137  81.837  1.00  0.00     0.205 C 
ENDBRANCH   7  11
BRANCH   5  13
HETATM   13  O1  UNL     1     103.787  98.308  80.971  1.00  0.00    -0.302 OA
ATOM     14  H1  UNL     1     104.023  97.489  80.551  1.00  0.00     0.238 HD
ENDBRANCH   5  13
TORSDOF 4
ENDMDL
MODEL 3
REMARK VINA RESULT: -4.664647527      1.997      3.625
REMARK  4 active torsions:
REMARK  status: ('A' for Active; 'I' for Inactive)
REMARK    1  A    between atoms: C2_2  and  C3_3 
REMARK    2  A    between atoms: C3_3  and  N1_4 
REMARK    3  A    between atoms: N2_8  and  O1_9 
REMARK    4  A    between atoms: C7_12  and  O2_13 
ROOT
HETATM    1  N1  UNL     1     100.465  97.753  81.494  1.00  0.00    -0.357 N 
HETATM    2  C4  UNL     1      99.268  97.454  80.887  1.00  0.00     0.084 C 
HETATM    3  C5  UNL     1      98.763  98.072  79.677  1.00  0.00     0.133 C 
HETATM    4  C6  UNL     1      98.504  97.040  78.569  1.00  0.00     0.035 C 
HETATM    5  N2  UNL     1      99.530  99.115  79.051  1.00  0.00    -0.125 NA
HETATM    6  S1  UNL     1     101.248  98.902  79.290  1.00  0.00    -0.001 SA
HETATM    7  C7  UNL     1     101.277  98.810  81.131  1.00  0.00     0.304 C 
ENDROOT
BRANCH   1   8
HETATM    8  C3  UNL     1     101.237  96.580  81.870  1.00  0.00     0.125 C 
BRANCH   8   9
HETATM    9  C2  UNL     1     100.469  95.304  81.602  1.00  0.00     0.015 C 
HETATM   10  C1  UNL     1     100.477  94.476  82.879  1.00  0.00     0.006 C 
ENDBRANCH   8   9
ENDBRANCH   1   8
BRANCH   7  11
HETATM   11  O2  UNL     1     102.590  98.782  81.474  1.00  0.00    -0.361 OA
HETATM   12  C8  UNL     1     103.291  99.682  80.647  1.00  0.00     0.205 C 
ENDBRANCH   7  11
BRANCH   5  13
HETATM   13  O1  UNL     1      99.161  99.398  77.815  1.00  0.00    -0.302 OA
ATOM     14  H1  UNL     1      98.237  99.262  77.641  1.00  0.00     0.238 HD
ENDBRANCH   5  13
TORSDOF 4
ENDMDL
MODEL 4
REMARK VINA RESULT: -4.661271739      2.068      4.052
REMARK  4 active torsions:
REMARK  status: ('A' for Active; 'I' for Inactive)
REMARK    1  A    between atoms: C2_2  and  C3_3 
REMARK    2  A    between atoms: C3_3  and  N1_4 
REMARK    3  A    between atoms: N2_8  and  O1_9 
REMARK    4  A    between atoms: C7_12  and  O2_13 
ROOT
HETATM    1  N1  UNL     1      99.233  98.840  81.229  1.00  0.00    -0.357 N 
HETATM    2  C4  UNL     1     100.580  99.031  81.033  1.00  0.00     0.084 C 
HETATM    3  C5  UNL     1     101.633  98.179  81.550  1.00  0.00     0.133 C 
HETATM    4  C6  UNL     1     102.510  97.603  80.428  1.00  0.00     0.035 C 
HETATM    5  N2  UNL     1     101.281  97.053  82.373  1.00  0.00    -0.125 NA
HETATM    6  S1  UNL     1      99.727  96.382  81.939  1.00  0.00    -0.001 SA
HETATM    7  C7  UNL     1      98.699  97.904  82.094  1.00  0.00     0.304 C 
ENDROOT
BRANCH   1   8
HETATM    8  C3  UNL     1      98.443  98.969  80.015  1.00  0.00     0.125 C 
BRANCH   8   9
HETATM    9  C2  UNL     1      99.140  98.333  78.832  1.00  0.00     0.015 C 
HETATM   10  C1  UNL     1      98.376  97.071  78.461  1.00  0.00     0.006 C 
ENDBRANCH   8   9
ENDBRANCH   1   8
BRANCH   7  11
HETATM   11  O2  UNL     1      97.416  97.497  81.916  1.00  0.00    -0.361 OA
HETATM   12  C8  UNL     1      97.385  96.088  81.923  1.00  0.00     0.205 C 
ENDBRANCH   7  11
BRANCH   5  13
HETATM   13  O1  UNL     1     102.252  96.173  82.537  1.00  0.00    -0.302 OA
ATOM     14  H1  UNL     1     102.617  95.836  81.728  1.00  0.00     0.238 HD
ENDBRANCH   5  13
TORSDOF 4
ENDMDL
MODEL 5
REMARK VINA RESULT: -4.632525941      1.902      4.024
REMARK  4 active torsions:
REMARK  status: ('A' for Active; 'I' for Inactive)
REMARK    1  A    between atoms: C2_2  and  C3_3 
REMARK    2  A    between atoms: C3_3  and  N1_4 
REMARK    3  A    between atoms: N2_8  and  O1_9 
REMARK    4  A    between atoms: C7_12  and  O2_13 
ROOT
HETATM    1  N1  UNL     1     100.602  98.315  80.908  1.00  0.00    -0.357 N 
HETATM    2  C4  UNL     1     101.152  99.565  80.746  1.00  0.00     0.084 C 
HETATM    3  C5  UNL     1     102.558  99.888  80.889  1.00  0.00     0.133 C 
HETATM    4  C6  UNL     1     103.140 100.500  79.606  1.00  0.00     0.035 C 
HETATM    5  N2  UNL     1     103.480  98.851  81.267  1.00  0.00    -0.125 NA
HETATM    6  S1  UNL     1     102.983  97.283  80.676  1.00  0.00    -0.001 SA
HETATM    7  C7  UNL     1     101.289  97.222  81.399  1.00  0.00     0.304 C 
ENDROOT
BRANCH   1   8
HETATM    8  C3  UNL     1      99.678  97.944  79.848  1.00  0.00     0.125 C 
BRANCH   8   9
HETATM    9  C2  UNL     1      99.706  98.946  78.715  1.00  0.00     0.015 C 
HETATM   10  C1  UNL     1      98.271  99.346  78.407  1.00  0.00     0.006 C 
ENDBRANCH   8   9
ENDBRANCH   1   8
BRANCH   7  11
HETATM   11  O2  UNL     1     100.823  95.975  81.133  1.00  0.00    -0.361 OA
HETATM   12  C8  UNL     1     100.818  95.231  82.329  1.00  0.00     0.205 C 
ENDBRANCH   7  11
BRANCH   5  13
HETATM   13  O1  UNL     1     104.750  99.153  81.073  1.00  0.00    -0.302 OA
ATOM     14  H1  UNL     1     105.179  98.636  80.402  1.00  0.00     0.238 HD
ENDBRANCH   5  13
TORSDOF 4
ENDMDL
