MODEL 1
REMARK VINA RESULT: -5.694622560      0.000      0.000
REMARK  5 active torsions:
REMARK  status: ('A' for Active; 'I' for Inactive)
REMARK    1  A    between atoms: C2_2  and  O1_3 
REMARK    2  A    between atoms: C2_2  and  C3_5 
REMARK    3  A    between atoms: C3_5  and  O2_7 
REMARK    4  A    between atoms: O2_7  and  C5_8 
REMARK       I    between atoms: C5_8  and  N1_10 
REMARK    5  A    between atoms: N1_10  and  C6_12 
ROOT
HETATM    1  C5  UNL     1     102.128  97.332  80.730  1.00  0.00     0.361 C 
HETATM    2  O3  UNL     1     103.180  96.733  80.431  1.00  0.00    -0.238 OA
HETATM    3  N1  UNL     1     102.045  98.731  80.547  1.00  0.00    -0.332 N 
ATOM      4  H1  UNL     1     101.186  99.225  80.790  1.00  0.00     0.165 HD
ENDROOT
BRANCH   1   5
HETATM    5  O2  UNL     1     101.066  96.607  81.236  1.00  0.00    -0.296 OA
BRANCH   5   6
HETATM    6  C3  UNL     1     101.190  95.930  82.456  1.00  0.00     0.158 C 
HETATM    7  C4  UNL     1     100.572  96.781  83.535  1.00  0.00     0.043 C 
BRANCH   6   8
HETATM    8  C2  UNL     1     100.578  94.554  82.389  1.00  0.00     0.143 C 
HETATM    9  C1  UNL     1      99.081  94.599  82.210  1.00  0.00     0.042 C 
BRANCH   8  10
HETATM   10  O1  UNL     1     100.970  93.809  83.489  1.00  0.00    -0.393 OA
ATOM     11  H1  UNL     1     101.885  93.931  83.713  1.00  0.00     0.210 HD
ENDBRANCH   8  10
ENDBRANCH   6   8
ENDBRANCH   5   6
ENDBRANCH   1   5
BRANCH   3  12
HETATM   12  C6  UNL     1     103.158  99.459  80.022  1.00  0.00     0.086 C 
HETATM   13  C7  UNL     1     103.859 100.300  81.078  1.00  0.00     0.025 C 
HETATM   14  C8  UNL     1     104.035 101.654  80.428  1.00  0.00     0.002 C 
HETATM   15  C9  UNL     1     103.815 101.429  78.931  1.00  0.00     0.002 C 
HETATM   16  C10 UNL     1     102.656 100.430  78.976  1.00  0.00     0.025 C 
ENDBRANCH   3  12
TORSDOF 5
ENDMDL
MODEL 2
REMARK VINA RESULT: -5.659898665      1.027      1.742
REMARK  5 active torsions:
REMARK  status: ('A' for Active; 'I' for Inactive)
REMARK    1  A    between atoms: C2_2  and  O1_3 
REMARK    2  A    between atoms: C2_2  and  C3_5 
REMARK    3  A    between atoms: C3_5  and  O2_7 
REMARK    4  A    between atoms: O2_7  and  C5_8 
REMARK       I    between atoms: C5_8  and  N1_10 
REMARK    5  A    between atoms: N1_10  and  C6_12 
ROOT
HETATM    1  C5  UNL     1     101.592  97.604  81.301  1.00  0.00     0.361 C 
HETATM    2  O3  UNL     1     101.291  98.252  82.323  1.00  0.00    -0.238 OA
HETATM    3  N1  UNL     1     102.249  98.252  80.231  1.00  0.00    -0.332 N 
ATOM      4  H1  UNL     1     102.497  97.725  79.394  1.00  0.00     0.165 HD
ENDROOT
BRANCH   1   5
HETATM    5  O2  UNL     1     101.271  96.261  81.242  1.00  0.00    -0.296 OA
BRANCH   5   6
HETATM    6  C3  UNL     1     100.049  95.803  81.752  1.00  0.00     0.158 C 
HETATM    7  C4  UNL     1      98.992  96.001  80.697  1.00  0.00     0.043 C 
BRANCH   6   8
HETATM    8  C2  UNL     1     100.143  94.370  82.209  1.00  0.00     0.143 C 
HETATM    9  C1  UNL     1      98.846  93.865  82.788  1.00  0.00     0.042 C 
BRANCH   8  10
HETATM   10  O1  UNL     1     101.216  94.219  83.072  1.00  0.00    -0.393 OA
ATOM     11  H1  UNL     1     102.015  94.617  82.745  1.00  0.00     0.210 HD
ENDBRANCH   8  10
ENDBRANCH   6   8
ENDBRANCH   5   6
ENDBRANCH   1   5
BRANCH   3  12
HETATM   12  C6  UNL     1     102.570  99.643  80.315  1.00  0.00     0.086 C 
HETATM   13  C7  UNL     1     102.523 100.338  78.964  1.00  0.00     0.025 C 
HETATM   14  C8  UNL     1     103.803 101.141  78.908  1.00  0.00     0.002 C 
HETATM   15  C9  UNL     1     104.318 101.206  80.346  1.00  0.00     0.002 C 
HETATM   16  C10 UNL     1     103.991  99.786  80.814  1.00  0.00     0.025 C 
ENDBRANCH   3  12
TORSDOF 5
ENDMDL
MODEL 3
REMARK VINA RESULT: -5.629041593      5.055      7.523
REMARK  5 active torsions:
REMARK  status: ('A' for Active; 'I' for Inactive)
REMARK    1  A    between atoms: C2_2  and  O1_3 
REMARK    2  A    between atoms: C2_2  and  C3_5 
REMARK    3  A    between atoms: C3_5  and  O2_7 
REMARK    4  A    between atoms: O2_7  and  C5_8 
REMARK       I    between atoms: C5_8  and  N1_10 
REMARK    5  A    between atoms: N1_10  and  C6_12 
ROOT
HETATM    1  C5  UNL     1     101.962 101.594  76.457  1.00  0.00     0.361 C 
HETATM    2  O3  UNL     1     102.123 100.431  76.038  1.00  0.00    -0.238 OA
HETATM    3  N1  UNL     1     102.568 101.990  77.671  1.00  0.00    -0.332 N 
ATOM      4  H1  UNL     1     102.438 102.941  78.016  1.00  0.00     0.165 HD
ENDROOT
BRANCH   1   5
HETATM    5  O2  UNL     1     101.190 102.470  75.717  1.00  0.00    -0.296 OA
BRANCH   5   6
HETATM    6  C3  UNL     1     100.607 103.588  76.328  1.00  0.00     0.158 C 
HETATM    7  C4  UNL     1     101.400 104.808  75.936  1.00  0.00     0.043 C 
BRANCH   6   8
HETATM    8  C2  UNL     1      99.148 103.714  75.974  1.00  0.00     0.143 C 
HETATM    9  C1  UNL     1      98.467 104.828  76.727  1.00  0.00     0.042 C 
BRANCH   8  10
HETATM   10  O1  UNL     1      98.518 102.490  76.130  1.00  0.00    -0.393 OA
ATOM     11  H1  UNL     1      99.123 101.758  76.135  1.00  0.00     0.210 HD
ENDBRANCH   8  10
ENDBRANCH   6   8
ENDBRANCH   5   6
ENDBRANCH   1   5
BRANCH   3  12
HETATM   12  C6  UNL     1     103.361 101.065  78.418  1.00  0.00     0.086 C 
HETATM   13  C7  UNL     1     102.529 100.200  79.351  1.00  0.00     0.025 C 
HETATM   14  C8  UNL     1     103.265 100.252  80.672  1.00  0.00     0.002 C 
HETATM   15  C9  UNL     1     104.662 100.783  80.349  1.00  0.00     0.002 C 
HETATM   16  C10 UNL     1     104.313 101.842  79.301  1.00  0.00     0.025 C 
ENDBRANCH   3  12
TORSDOF 5
ENDMDL
MODEL 4
REMARK VINA RESULT: -5.608388052      2.159      6.254
REMARK  5 active torsions:
REMARK  status: ('A' for Active; 'I' for Inactive)
REMARK    1  A    between atoms: C2_2  and  O1_3 
REMARK    2  A    between atoms: C2_2  and  C3_5 
REMARK    3  A    between atoms: C3_5  and  O2_7 
REMARK    4  A    between atoms: O2_7  and  C5_8 
REMARK       I    between atoms: C5_8  and  N1_10 
REMARK    5  A    between atoms: N1_10  and  C6_12 
ROOT
HETATM    1  C5  UNL     1     102.293  98.692  80.802  1.00  0.00     0.361 C 
HETATM    2  O3  UNL     1     101.968  99.235  81.876  1.00  0.00    -0.238 OA
HETATM    3  N1  UNL     1     101.686  97.473  80.424  1.00  0.00    -0.332 N 
ATOM      4  H1  UNL     1     101.949  97.026  79.546  1.00  0.00     0.165 HD
ENDROOT
BRANCH   1   5
HETATM    5  O2  UNL     1     103.244  99.301  80.005  1.00  0.00    -0.296 OA
BRANCH   5   6
HETATM    6  C3  UNL     1     103.805 100.527  80.387  1.00  0.00     0.158 C 
HETATM    7  C4  UNL     1     105.136 100.255  81.038  1.00  0.00     0.043 C 
BRANCH   6   8
HETATM    8  C2  UNL     1     103.920 101.470  79.216  1.00  0.00     0.143 C 
HETATM    9  C1  UNL     1     102.971 101.118  78.099  1.00  0.00     0.042 C 
BRANCH   8  10
HETATM   10  O1  UNL     1     105.240 101.549  78.802  1.00  0.00    -0.393 OA
ATOM     11  H1  UNL     1     105.396 102.258  78.190  1.00  0.00     0.210 HD
ENDBRANCH   8  10
ENDBRANCH   6   8
ENDBRANCH   5   6
ENDBRANCH   1   5
BRANCH   3  12
HETATM   12  C6  UNL     1     100.705  96.862  81.266  1.00  0.00     0.086 C 
HETATM   13  C7  UNL     1     101.161  95.520  81.818  1.00  0.00     0.025 C 
HETATM   14  C8  UNL     1      99.985  94.598  81.586  1.00  0.00     0.002 C 
HETATM   15  C9  UNL     1      98.790  95.509  81.303  1.00  0.00     0.002 C 
HETATM   16  C10 UNL     1      99.466  96.581  80.445  1.00  0.00     0.025 C 
ENDBRANCH   3  12
TORSDOF 5
ENDMDL
MODEL 5
REMARK VINA RESULT: -5.597210666      1.143      1.756
REMARK  5 active torsions:
REMARK  status: ('A' for Active; 'I' for Inactive)
REMARK    1  A    between atoms: C2_2  and  O1_3 
REMARK    2  A    between atoms: C2_2  and  C3_5 
REMARK    3  A    between atoms: C3_5  and  O2_7 
REMARK    4  A    between atoms: O2_7  and  C5_8 
REMARK       I    between atoms: C5_8  and  N1_10 
REMARK    5  A    between atoms: N1_10  and  C6_12 
ROOT
HETATM    1  C5  UNL     1     102.716  97.039  80.872  1.00  0.00     0.361 C 
HETATM    2  O3  UNL     1     103.550  96.560  80.078  1.00  0.00    -0.238 OA
HETATM    3  N1  UNL     1     102.542  98.440  80.938  1.00  0.00    -0.332 N 
ATOM      4  H1  UNL     1     101.860  98.836  81.586  1.00  0.00     0.165 HD
ENDROOT
BRANCH   1   5
HETATM    5  O2  UNL     1     101.981  96.182  81.669  1.00  0.00    -0.296 OA
BRANCH   5   6
HETATM    6  C3  UNL     1     100.584  96.145  81.566  1.00  0.00     0.158 C 
HETATM    7  C4  UNL     1     100.152  94.702  81.523  1.00  0.00     0.043 C 
BRANCH   6   8
HETATM    8  C2  UNL     1      99.928  96.908  82.688  1.00  0.00     0.143 C 
HETATM    9  C1  UNL     1      99.071  98.043  82.187  1.00  0.00     0.042 C 
BRANCH   8  10
HETATM   10  O1  UNL     1     100.883  97.314  83.605  1.00  0.00    -0.393 OA
ATOM     11  H1  UNL     1     101.757  97.362  83.235  1.00  0.00     0.210 HD
ENDBRANCH   8  10
ENDBRANCH   6   8
ENDBRANCH   5   6
ENDBRANCH   1   5
BRANCH   3  12
HETATM   12  C6  UNL     1     103.315  99.306  80.104  1.00  0.00     0.086 C 
HETATM   13  C7  UNL     1     104.204 100.248  80.901  1.00  0.00     0.025 C 
HETATM   14  C8  UNL     1     103.975 101.604  80.273  1.00  0.00     0.002 C 
HETATM   15  C9  UNL     1     103.310 101.332  78.923  1.00  0.00     0.002 C 
HETATM   16  C10 UNL     1     102.374 100.185  79.311  1.00  0.00     0.025 C 
ENDBRANCH   3  12
TORSDOF 5
ENDMDL
