MODEL 1
REMARK VINA RESULT: -5.647124196      0.000      0.000
REMARK  4 active torsions:
REMARK  status: ('A' for Active; 'I' for Inactive)
REMARK    1  A    between atoms: C2_2  and  C4_4 
REMARK    2  A    between atoms: C8_8  and  N1_9 
REMARK    3  A    between atoms: N1_9  and  O1_10 
REMARK    4  A    between atoms: C9_12  and  N2_13 
ROOT
HETATM    1  C4  UNL     1     101.331  98.640  80.144  1.00  0.00     0.020 C 
HETATM    2  C5  UNL     1     100.858  99.724  81.042  1.00  0.00     0.007 C 
HETATM    3  C6  UNL     1      99.357  99.587  81.181  1.00  0.00     0.002 C 
HETATM    4  C7  UNL     1      98.614  99.491  79.903  1.00  0.00     0.026 C 
HETATM    5  C8  UNL     1      99.236  98.602  78.873  1.00  0.00     0.135 C 
HETATM    6  C9  UNL     1     100.739  98.741  78.790  1.00  0.00     0.181 C 
ENDROOT
BRANCH   1   7
HETATM    7  C2  UNL     1     102.821  98.500  80.069  1.00  0.00    -0.016 C 
HETATM    8  C1  UNL     1     103.248  97.106  80.469  1.00  0.00     0.010 C 
HETATM    9  C3  UNL     1     103.578  99.490  80.879  1.00  0.00     0.010 C 
ENDBRANCH   1   7
BRANCH   6  10
HETATM   10  N2  UNL     1     101.122  99.868  78.000  1.00  0.00    -0.148 N 
HETATM   11  O2  UNL     1     102.236 100.421  78.088  1.00  0.00    -0.536 OA
HETATM   12  O3  UNL     1     100.255 100.402  77.082  1.00  0.00    -0.536 OA
ENDBRANCH   6  10
BRANCH   5  13
HETATM   13  N1  UNL     1      98.916  97.208  79.077  1.00  0.00    -0.097 NA
BRANCH  13  14
HETATM   14  O1  UNL     1      98.771  96.565  77.904  1.00  0.00    -0.296 OA
ATOM     15  H1  UNL     1      98.335  97.114  77.263  1.00  0.00     0.238 HD
ENDBRANCH  13  14
ENDBRANCH   5  13
TORSDOF 4
ENDMDL
MODEL 2
REMARK VINA RESULT: -5.555146976      3.168      4.480
REMARK  4 active torsions:
REMARK  status: ('A' for Active; 'I' for Inactive)
REMARK    1  A    between atoms: C2_2  and  C4_4 
REMARK    2  A    between atoms: C8_8  and  N1_9 
REMARK    3  A    between atoms: N1_9  and  O1_10 
REMARK    4  A    between atoms: C9_12  and  N2_13 
ROOT
HETATM    1  C4  UNL     1      99.581  97.583  79.926  1.00  0.00     0.020 C 
HETATM    2  C5  UNL     1     100.122  98.598  78.987  1.00  0.00     0.007 C 
HETATM    3  C6  UNL     1     101.588  98.788  79.306  1.00  0.00     0.002 C 
HETATM    4  C7  UNL     1     101.892  99.057  80.731  1.00  0.00     0.026 C 
HETATM    5  C8  UNL     1     101.137  98.214  81.710  1.00  0.00     0.135 C 
HETATM    6  C9  UNL     1      99.685  98.018  81.337  1.00  0.00     0.181 C 
ENDROOT
BRANCH   1   7
HETATM    7  C2  UNL     1      98.191  97.120  79.608  1.00  0.00    -0.016 C 
HETATM    8  C1  UNL     1      97.818  95.926  80.457  1.00  0.00     0.010 C 
HETATM    9  C3  UNL     1      97.959  96.789  78.177  1.00  0.00     0.010 C 
ENDBRANCH   1   7
BRANCH   6  10
HETATM   10  N2  UNL     1      98.884  99.134  81.730  1.00  0.00    -0.148 N 
HETATM   11  O2  UNL     1      99.093 100.300  81.340  1.00  0.00    -0.536 OA
HETATM   12  O3  UNL     1      97.819  98.963  82.575  1.00  0.00    -0.536 OA
ENDBRANCH   6  10
BRANCH   5  13
HETATM   13  N1  UNL     1     101.739  96.916  81.905  1.00  0.00    -0.097 NA
BRANCH  13  14
HETATM   14  O1  UNL     1     101.536  96.468  83.158  1.00  0.00    -0.296 OA
ATOM     15  H1  UNL     1     100.630  96.579  83.420  1.00  0.00     0.238 HD
ENDBRANCH  13  14
ENDBRANCH   5  13
TORSDOF 4
ENDMDL
MODEL 3
REMARK VINA RESULT: -5.502770387      2.819      3.243
REMARK  4 active torsions:
REMARK  status: ('A' for Active; 'I' for Inactive)
REMARK    1  A    between atoms: C2_2  and  C4_4 
REMARK    2  A    between atoms: C8_8  and  N1_9 
REMARK    3  A    between atoms: N1_9  and  O1_10 
REMARK    4  A    between atoms: C9_12  and  N2_13 
ROOT
HETATM    1  C4  UNL     1      99.718  96.909  81.580  1.00  0.00     0.020 C 
HETATM    2  C5  UNL     1      99.231  97.870  82.601  1.00  0.00     0.007 C 
HETATM    3  C6  UNL     1      98.330  98.867  81.905  1.00  0.00     0.002 C 
HETATM    4  C7  UNL     1      98.910  99.504  80.700  1.00  0.00     0.026 C 
HETATM    5  C8  UNL     1      99.651  98.578  79.788  1.00  0.00     0.135 C 
HETATM    6  C9  UNL     1     100.511  97.575  80.521  1.00  0.00     0.181 C 
ENDROOT
BRANCH   1   7
HETATM    7  C2  UNL     1     100.453  95.728  82.138  1.00  0.00    -0.016 C 
HETATM    8  C1  UNL     1      99.965  94.445  81.504  1.00  0.00     0.010 C 
HETATM    9  C3  UNL     1     100.382  95.595  83.617  1.00  0.00     0.010 C 
ENDBRANCH   1   7
BRANCH   6  10
HETATM   10  N2  UNL     1     101.764  98.140  80.911  1.00  0.00    -0.148 N 
HETATM   11  O2  UNL     1     101.886  98.969  81.836  1.00  0.00    -0.536 OA
HETATM   12  O3  UNL     1     102.920  97.780  80.269  1.00  0.00    -0.536 OA
ENDBRANCH   6  10
BRANCH   5  13
HETATM   13  N1  UNL     1      98.773  97.860  78.893  1.00  0.00    -0.097 NA
BRANCH  13  14
HETATM   14  O1  UNL     1      99.453  96.955  78.166  1.00  0.00    -0.296 OA
ATOM     15  H1  UNL     1      99.074  96.854  77.301  1.00  0.00     0.238 HD
ENDBRANCH  13  14
ENDBRANCH   5  13
TORSDOF 4
ENDMDL
MODEL 4
REMARK VINA RESULT: -5.493157588      2.923      3.494
REMARK  4 active torsions:
REMARK  status: ('A' for Active; 'I' for Inactive)
REMARK    1  A    between atoms: C2_2  and  C4_4 
REMARK    2  A    between atoms: C8_8  and  N1_9 
REMARK    3  A    between atoms: N1_9  and  O1_10 
REMARK    4  A    between atoms: C9_12  and  N2_13 
ROOT
HETATM    1  C4  UNL     1     101.536  99.186  79.780  1.00  0.00     0.020 C 
HETATM    2  C5  UNL     1     101.091  98.493  78.544  1.00  0.00     0.007 C 
HETATM    3  C6  UNL     1      99.648  98.084  78.738  1.00  0.00     0.002 C 
HETATM    4  C7  UNL     1      99.369  97.336  79.986  1.00  0.00     0.026 C 
HETATM    5  C8  UNL     1     100.043  97.871  81.210  1.00  0.00     0.135 C 
HETATM    6  C9  UNL     1     101.470  98.303  80.967  1.00  0.00     0.181 C 
ENDROOT
BRANCH   1   7
HETATM    7  C2  UNL     1     102.878  99.845  79.675  1.00  0.00    -0.016 C 
HETATM    8  C1  UNL     1     103.256 100.500  80.984  1.00  0.00     0.010 C 
HETATM    9  C3  UNL     1     102.994 100.845  78.581  1.00  0.00     0.010 C 
ENDBRANCH   1   7
BRANCH   6  10
HETATM   10  N2  UNL     1     102.370  97.193  80.997  1.00  0.00    -0.148 N 
HETATM   11  O2  UNL     1     103.271  97.016  80.152  1.00  0.00    -0.536 OA
HETATM   12  O3  UNL     1     102.280  96.250  81.988  1.00  0.00    -0.536 OA
ENDBRANCH   6  10
BRANCH   5  13
HETATM   13  N1  UNL     1      99.324  98.976  81.800  1.00  0.00    -0.097 NA
BRANCH  13  14
HETATM   14  O1  UNL     1      98.232  98.549  82.460  1.00  0.00    -0.296 OA
ATOM     15  H1  UNL     1      98.245  98.834  83.366  1.00  0.00     0.238 HD
ENDBRANCH  13  14
ENDBRANCH   5  13
TORSDOF 4
ENDMDL
MODEL 5
REMARK VINA RESULT: -5.431297429      3.537      4.272
REMARK  4 active torsions:
REMARK  status: ('A' for Active; 'I' for Inactive)
REMARK    1  A    between atoms: C2_2  and  C4_4 
REMARK    2  A    between atoms: C8_8  and  N1_9 
REMARK    3  A    between atoms: N1_9  and  O1_10 
REMARK    4  A    between atoms: C9_12  and  N2_13 
ROOT
HETATM    1  C4  UNL     1     100.446  98.159  81.007  1.00  0.00     0.020 C 
HETATM    2  C5  UNL     1     100.312  97.054  80.024  1.00  0.00     0.007 C 
HETATM    3  C6  UNL     1      98.838  96.754  79.864  1.00  0.00     0.002 C 
HETATM    4  C7  UNL     1      98.101  96.531  81.129  1.00  0.00     0.026 C 
HETATM    5  C8  UNL     1      98.435  97.484  82.233  1.00  0.00     0.135 C 
HETATM    6  C9  UNL     1      99.912  97.787  82.338  1.00  0.00     0.181 C 
ENDROOT
BRANCH   1   7
HETATM    7  C2  UNL     1     101.829  98.724  81.123  1.00  0.00    -0.016 C 
HETATM    8  C1  UNL     1     101.895 100.106  80.511  1.00  0.00     0.010 C 
HETATM    9  C3  UNL     1     102.897  97.879  80.528  1.00  0.00     0.010 C 
ENDBRANCH   1   7
BRANCH   6  10
HETATM   10  N2  UNL     1     100.611  96.766  83.053  1.00  0.00    -0.148 N 
HETATM   11  O2  UNL     1     100.868  95.644  82.571  1.00  0.00    -0.536 OA
HETATM   12  O3  UNL     1     101.044  96.985  84.334  1.00  0.00    -0.536 OA
ENDBRANCH   6  10
BRANCH   5  13
HETATM   13  N1  UNL     1      97.718  98.733  82.124  1.00  0.00    -0.097 NA
BRANCH  13  14
HETATM   14  O1  UNL     1      96.480  98.542  81.633  1.00  0.00    -0.296 OA
ATOM     15  H1  UNL     1      96.350  99.031  80.828  1.00  0.00     0.238 HD
ENDBRANCH  13  14
ENDBRANCH   5  13
TORSDOF 4
ENDMDL
