MODEL 1
REMARK VINA RESULT: -4.406208418      0.000      0.000
REMARK  4 active torsions:
REMARK  status: ('A' for Active; 'I' for Inactive)
REMARK    1  A    between atoms: N2_5  and  C2_6 
REMARK    2  A    between atoms: C2_6  and  C3_7 
REMARK    3  A    between atoms: C3_7  and  N3_8 
REMARK    4  A    between atoms: C5_13  and  N4_14 
ROOT
HETATM    1  N1  UNL     1      -3.388   3.735   9.283  1.00  0.00    -0.235 N 
ATOM      2  H11 UNL     1      -3.135   4.481   8.635  1.00  0.00     0.174 HD
ATOM      3  H12 UNL     1      -3.225   3.094   8.506  1.00  0.00     0.174 HD
HETATM    4  C1  UNL     1      -3.745   3.657  10.522  1.00  0.00     0.675 C 
HETATM    5  N2  UNL     1      -4.101   2.610  11.432  1.00  0.00    -0.193 N 
HETATM    6  C4  UNL     1      -3.570   3.416  12.479  1.00  0.00     0.252 C 
HETATM    7  C5  UNL     1      -4.410   3.700  13.695  1.00  0.00     0.228 C 
HETATM    8  C6  UNL     1      -4.153   5.218  13.818  1.00  0.00     0.057 C 
HETATM    9  C7  UNL     1      -4.292   5.681  12.409  1.00  0.00     0.146 C 
HETATM   10  N5  UNL     1      -3.970   4.542  11.598  1.00  0.00    -0.194 N 
ENDROOT
BRANCH   5  11
HETATM   11  C2  UNL     1      -4.723   1.336  11.220  1.00  0.00     0.170 C 
BRANCH  11  12
HETATM   12  C3  UNL     1      -4.098   0.368  12.232  1.00  0.00     0.250 C 
BRANCH  12  13
HETATM   13  N3  UNL     1      -4.101  -0.984  11.772  1.00  0.00    -0.078 N 
ATOM     14  H33 UNL     1      -4.481  -1.049  10.828  1.00  0.00     0.274 HD
ATOM     15  H32 UNL     1      -3.152  -1.311  11.588  1.00  0.00     0.274 HD
ATOM     16  H31 UNL     1      -4.590  -1.614  12.408  1.00  0.00     0.274 HD
ENDBRANCH  12  13
ENDBRANCH  11  12
ENDBRANCH   5  11
BRANCH   7  17
HETATM   17  N4  UNL     1      -3.828   3.129  14.900  1.00  0.00    -0.071 N 
ATOM     18  H43 UNL     1      -4.451   3.237  15.700  1.00  0.00     0.274 HD
ATOM     19  H42 UNL     1      -3.803   2.110  14.854  1.00  0.00     0.274 HD
ATOM     20  H41 UNL     1      -2.904   3.514  15.093  1.00  0.00     0.274 HD
ENDBRANCH   7  17
TORSDOF 4
ENDMDL
MODEL 2
REMARK VINA RESULT: -4.392222676      1.771      1.967
REMARK  4 active torsions:
REMARK  status: ('A' for Active; 'I' for Inactive)
REMARK    1  A    between atoms: N2_5  and  C2_6 
REMARK    2  A    between atoms: C2_6  and  C3_7 
REMARK    3  A    between atoms: C3_7  and  N3_8 
REMARK    4  A    between atoms: C5_13  and  N4_14 
ROOT
HETATM    1  N1  UNL     1      -4.224   4.421  10.091  1.00  0.00    -0.235 N 
ATOM      2  H11 UNL     1      -4.286   5.014   9.263  1.00  0.00     0.174 HD
ATOM      3  H12 UNL     1      -4.699   3.709   9.535  1.00  0.00     0.174 HD
HETATM    4  C1  UNL     1      -3.752   4.537  11.288  1.00  0.00     0.675 C 
HETATM    5  N2  UNL     1      -3.666   3.706  12.450  1.00  0.00    -0.193 N 
HETATM    6  C4  UNL     1      -2.463   4.392  12.783  1.00  0.00     0.252 C 
HETATM    7  C5  UNL     1      -2.306   4.993  14.153  1.00  0.00     0.228 C 
HETATM    8  C6  UNL     1      -1.745   6.375  13.750  1.00  0.00     0.057 C 
HETATM    9  C7  UNL     1      -2.628   6.759  12.613  1.00  0.00     0.146 C 
HETATM   10  N5  UNL     1      -3.096   5.522  12.056  1.00  0.00    -0.194 N 
ENDROOT
BRANCH   5  11
HETATM   11  C2  UNL     1      -4.515   2.658  12.935  1.00  0.00     0.170 C 
BRANCH  11  12
HETATM   12  C3  UNL     1      -4.059   1.367  12.244  1.00  0.00     0.250 C 
BRANCH  12  13
HETATM   13  N3  UNL     1      -4.842   1.056  11.092  1.00  0.00    -0.078 N 
ATOM     14  H33 UNL     1      -5.744   0.660  11.357  1.00  0.00     0.274 HD
ATOM     15  H32 UNL     1      -5.166   1.905  10.629  1.00  0.00     0.274 HD
ATOM     16  H31 UNL     1      -4.352   0.446  10.438  1.00  0.00     0.274 HD
ENDBRANCH  12  13
ENDBRANCH  11  12
ENDBRANCH   5  11
BRANCH   7  17
HETATM   17  N4  UNL     1      -1.229   4.362  14.901  1.00  0.00    -0.071 N 
ATOM     18  H43 UNL     1      -1.593   3.758  15.638  1.00  0.00     0.274 HD
ATOM     19  H42 UNL     1      -0.751   3.657  14.340  1.00  0.00     0.274 HD
ATOM     20  H41 UNL     1      -0.573   5.048  15.272  1.00  0.00     0.274 HD
ENDBRANCH   7  17
TORSDOF 4
ENDMDL
MODEL 3
REMARK VINA RESULT: -4.239511982      1.974      2.366
REMARK  4 active torsions:
REMARK  status: ('A' for Active; 'I' for Inactive)
REMARK    1  A    between atoms: N2_5  and  C2_6 
REMARK    2  A    between atoms: C2_6  and  C3_7 
REMARK    3  A    between atoms: C3_7  and  N3_8 
REMARK    4  A    between atoms: C5_13  and  N4_14 
ROOT
HETATM    1  N1  UNL     1      -4.285   4.388  10.101  1.00  0.00    -0.235 N 
ATOM      2  H11 UNL     1      -4.443   5.017   9.314  1.00  0.00     0.174 HD
ATOM      3  H12 UNL     1      -4.683   3.657   9.510  1.00  0.00     0.174 HD
HETATM    4  C1  UNL     1      -3.800   4.489  11.294  1.00  0.00     0.675 C 
HETATM    5  N2  UNL     1      -3.579   3.605  12.398  1.00  0.00    -0.193 N 
HETATM    6  C4  UNL     1      -2.462   4.415  12.751  1.00  0.00     0.252 C 
HETATM    7  C5  UNL     1      -2.345   4.946  14.154  1.00  0.00     0.228 C 
HETATM    8  C6  UNL     1      -1.971   6.409  13.830  1.00  0.00     0.057 C 
HETATM    9  C7  UNL     1      -2.925   6.749  12.737  1.00  0.00     0.146 C 
HETATM   10  N5  UNL     1      -3.250   5.499  12.111  1.00  0.00    -0.194 N 
ENDROOT
BRANCH   5  11
HETATM   11  C2  UNL     1      -4.277   2.431  12.831  1.00  0.00     0.170 C 
BRANCH  11  12
HETATM   12  C3  UNL     1      -4.734   2.697  14.272  1.00  0.00     0.250 C 
BRANCH  12  13
HETATM   13  N3  UNL     1      -4.098   1.836  15.216  1.00  0.00    -0.078 N 
ATOM     14  H33 UNL     1      -3.295   1.364  14.800  1.00  0.00     0.274 HD
ATOM     15  H32 UNL     1      -3.616   2.374  15.936  1.00  0.00     0.274 HD
ATOM     16  H31 UNL     1      -4.744   1.163  15.630  1.00  0.00     0.274 HD
ENDBRANCH  12  13
ENDBRANCH  11  12
ENDBRANCH   5  11
BRANCH   7  17
HETATM   17  N4  UNL     1      -1.177   4.411  14.839  1.00  0.00    -0.071 N 
ATOM     18  H43 UNL     1      -0.917   3.497  14.469  1.00  0.00     0.274 HD
ATOM     19  H42 UNL     1      -0.333   4.928  14.594  1.00  0.00     0.274 HD
ATOM     20  H41 UNL     1      -1.313   4.378  15.849  1.00  0.00     0.274 HD
ENDBRANCH   7  17
TORSDOF 4
ENDMDL
MODEL 4
REMARK VINA RESULT: -4.170726371      2.029      3.794
REMARK  4 active torsions:
REMARK  status: ('A' for Active; 'I' for Inactive)
REMARK    1  A    between atoms: N2_5  and  C2_6 
REMARK    2  A    between atoms: C2_6  and  C3_7 
REMARK    3  A    between atoms: C3_7  and  N3_8 
REMARK    4  A    between atoms: C5_13  and  N4_14 
ROOT
HETATM    1  N1  UNL     1      -3.799   1.557  12.803  1.00  0.00    -0.235 N 
ATOM      2  H11 UNL     1      -4.322   0.721  13.063  1.00  0.00     0.174 HD
ATOM      3  H12 UNL     1      -3.136   0.922  12.357  1.00  0.00     0.174 HD
HETATM    4  C1  UNL     1      -3.933   2.831  12.970  1.00  0.00     0.675 C 
HETATM    5  N2  UNL     1      -3.198   4.004  12.606  1.00  0.00    -0.193 N 
HETATM    6  C4  UNL     1      -4.440   4.700  12.560  1.00  0.00     0.252 C 
HETATM    7  C5  UNL     1      -4.600   5.983  13.330  1.00  0.00     0.228 C 
HETATM    8  C6  UNL     1      -5.977   5.708  13.975  1.00  0.00     0.057 C 
HETATM    9  C7  UNL     1      -5.835   4.301  14.445  1.00  0.00     0.146 C 
HETATM   10  N5  UNL     1      -4.850   3.708  13.586  1.00  0.00    -0.194 N 
ENDROOT
BRANCH   5  11
HETATM   11  C2  UNL     1      -1.796   4.224  12.405  1.00  0.00     0.170 C 
BRANCH  11  12
HETATM   12  C3  UNL     1      -1.318   5.101  13.570  1.00  0.00     0.250 C 
BRANCH  12  13
HETATM   13  N3  UNL     1      -1.214   4.377  14.795  1.00  0.00    -0.078 N 
ATOM     14  H33 UNL     1      -1.221   3.370  14.628  1.00  0.00     0.274 HD
ATOM     15  H32 UNL     1      -0.282   4.469  15.198  1.00  0.00     0.274 HD
ATOM     16  H31 UNL     1      -1.934   4.641  15.469  1.00  0.00     0.274 HD
ENDBRANCH  12  13
ENDBRANCH  11  12
ENDBRANCH   5  11
BRANCH   7  17
HETATM   17  N4  UNL     1      -4.826   7.118  12.448  1.00  0.00    -0.071 N 
ATOM     18  H43 UNL     1      -4.546   6.905  11.490  1.00  0.00     0.274 HD
ATOM     19  H42 UNL     1      -5.822   7.275  12.292  1.00  0.00     0.274 HD
ATOM     20  H41 UNL     1      -4.367   7.961  12.791  1.00  0.00     0.274 HD
ENDBRANCH   7  17
TORSDOF 4
ENDMDL
MODEL 5
REMARK VINA RESULT: -4.087723861      2.238      3.880
REMARK  4 active torsions:
REMARK  status: ('A' for Active; 'I' for Inactive)
REMARK    1  A    between atoms: N2_5  and  C2_6 
REMARK    2  A    between atoms: C2_6  and  C3_7 
REMARK    3  A    between atoms: C3_7  and  N3_8 
REMARK    4  A    between atoms: C5_13  and  N4_14 
ROOT
HETATM    1  N1  UNL     1      -1.235   4.643  14.757  1.00  0.00    -0.235 N 
ATOM      2  H11 UNL     1      -0.239   4.674  14.977  1.00  0.00     0.174 HD
ATOM      3  H12 UNL     1      -1.391   4.863  15.741  1.00  0.00     0.174 HD
HETATM    4  C1  UNL     1      -1.952   4.427  13.704  1.00  0.00     0.675 C 
HETATM    5  N2  UNL     1      -3.349   4.384  13.396  1.00  0.00    -0.193 N 
HETATM    6  C4  UNL     1      -3.017   4.830  12.085  1.00  0.00     0.252 C 
HETATM    7  C5  UNL     1      -3.522   4.066  10.891  1.00  0.00     0.228 C 
HETATM    8  C6  UNL     1      -2.215   4.011  10.068  1.00  0.00     0.057 C 
HETATM    9  C7  UNL     1      -1.203   3.648  11.099  1.00  0.00     0.146 C 
HETATM   10  N5  UNL     1      -1.736   4.124  12.343  1.00  0.00    -0.194 N 
ENDROOT
BRANCH   5  11
HETATM   11  C2  UNL     1      -4.487   4.024  14.189  1.00  0.00     0.170 C 
BRANCH  11  12
HETATM   12  C3  UNL     1      -4.572   2.492  14.167  1.00  0.00     0.250 C 
BRANCH  12  13
HETATM   13  N3  UNL     1      -4.003   1.895  15.333  1.00  0.00    -0.078 N 
ATOM     14  H33 UNL     1      -3.153   1.380  15.103  1.00  0.00     0.274 HD
ATOM     15  H32 UNL     1      -3.605   2.603  15.950  1.00  0.00     0.274 HD
ATOM     16  H31 UNL     1      -4.667   1.303  15.833  1.00  0.00     0.274 HD
ENDBRANCH  12  13
ENDBRANCH  11  12
ENDBRANCH   5  11
BRANCH   7  17
HETATM   17  N4  UNL     1      -4.433   4.864  10.084  1.00  0.00    -0.071 N 
ATOM     18  H43 UNL     1      -4.810   5.648  10.617  1.00  0.00     0.274 HD
ATOM     19  H42 UNL     1      -3.932   5.386   9.366  1.00  0.00     0.274 HD
ATOM     20  H41 UNL     1      -5.177   4.296   9.680  1.00  0.00     0.274 HD
ENDBRANCH   7  17
TORSDOF 4
ENDMDL
