MODEL 1
REMARK VINA RESULT: -5.450305858      0.000      0.000
REMARK  3 active torsions:
REMARK  status: ('A' for Active; 'I' for Inactive)
REMARK    1  A    between atoms: N3_4  and  N4_6 
REMARK       I    between atoms: C2_8  and  N6_10 
REMARK    2  A    between atoms: N6_10  and  C3_12 
REMARK    3  A    between atoms: C3_12  and  C4_13 
ROOT
HETATM    1  N4  UNL     1      -4.160   2.400  14.552  1.00  0.00    -0.272 N 
ATOM      2  H4  UNL     1      -3.233   2.077  14.277  1.00  0.00     0.189 HD
HETATM    3  C2  UNL     1      -4.734   3.236  13.786  1.00  0.00     0.203 C 
HETATM    4  N5  UNL     1      -6.012   3.712  14.121  1.00  0.00    -0.062 NA
HETATM    5  N6  UNL     1      -4.128   3.703  12.606  1.00  0.00    -0.363 N 
ATOM      6  H6  UNL     1      -4.710   3.768  11.772  1.00  0.00     0.162 HD
ENDROOT
BRANCH   1   7
HETATM    7  N3  UNL     1      -4.685   1.886  15.732  1.00  0.00    -0.274 N 
HETATM    8  C1  UNL     1      -4.852   0.654  16.017  1.00  0.00     0.215 C 
HETATM    9  N1  UNL     1      -4.499  -0.413  15.108  1.00  0.00    -0.065 NA
HETATM   10  N2  UNL     1      -5.395   0.217  17.248  1.00  0.00    -0.065 NA
ATOM     11  H3  UNL     1      -4.966   2.562  16.442  1.00  0.00     0.189 HD
ENDBRANCH   1   7
BRANCH   5  12
HETATM   12  C3  UNL     1      -2.754   4.096  12.487  1.00  0.00     0.127 C 
BRANCH  12  13
HETATM   13  C4  UNL     1      -2.398   5.294  13.319  1.00  0.00     0.003 A 
HETATM   14  C5  UNL     1      -0.949   5.732  13.168  1.00  0.00     0.007 A 
HETATM   15  C6  UNL     1      -1.498   5.211  14.478  1.00  0.00     0.007 A 
ENDBRANCH  12  13
ENDBRANCH   5  12
TORSDOF 3
ENDMDL
MODEL 2
REMARK VINA RESULT: -5.309380437      1.207      1.722
REMARK  3 active torsions:
REMARK  status: ('A' for Active; 'I' for Inactive)
REMARK    1  A    between atoms: N3_4  and  N4_6 
REMARK       I    between atoms: C2_8  and  N6_10 
REMARK    2  A    between atoms: N6_10  and  C3_12 
REMARK    3  A    between atoms: C3_12  and  C4_13 
ROOT
HETATM    1  N4  UNL     1      -4.080   2.399  14.515  1.00  0.00    -0.272 N 
ATOM      2  H4  UNL     1      -3.167   2.032  14.247  1.00  0.00     0.189 HD
HETATM    3  C2  UNL     1      -4.601   3.271  13.752  1.00  0.00     0.203 C 
HETATM    4  N5  UNL     1      -5.857   3.808  14.077  1.00  0.00    -0.062 NA
HETATM    5  N6  UNL     1      -3.957   3.719  12.584  1.00  0.00    -0.363 N 
ATOM      6  H6  UNL     1      -4.525   3.821  11.744  1.00  0.00     0.162 HD
ENDROOT
BRANCH   1   7
HETATM    7  N3  UNL     1      -4.645   1.900  15.683  1.00  0.00    -0.274 N 
HETATM    8  C1  UNL     1      -4.823   0.673  15.978  1.00  0.00     0.215 C 
HETATM    9  N1  UNL     1      -4.441  -0.407  15.095  1.00  0.00    -0.065 NA
HETATM   10  N2  UNL     1      -5.407   0.251  17.195  1.00  0.00    -0.065 NA
ATOM     11  H3  UNL     1      -4.948   2.586  16.375  1.00  0.00     0.189 HD
ENDBRANCH   1   7
BRANCH   5  12
HETATM   12  C3  UNL     1      -2.564   4.042  12.485  1.00  0.00     0.127 C 
BRANCH  12  13
HETATM   13  C4  UNL     1      -1.869   3.353  11.345  1.00  0.00     0.003 A 
HETATM   14  C5  UNL     1      -0.352   3.449  11.410  1.00  0.00     0.007 A 
HETATM   15  C6  UNL     1      -1.150   4.092  10.297  1.00  0.00     0.007 A 
ENDBRANCH  12  13
ENDBRANCH   5  12
TORSDOF 3
ENDMDL
MODEL 3
REMARK VINA RESULT: -5.229930374      1.472      1.563
REMARK  3 active torsions:
REMARK  status: ('A' for Active; 'I' for Inactive)
REMARK    1  A    between atoms: N3_4  and  N4_6 
REMARK       I    between atoms: C2_8  and  N6_10 
REMARK    2  A    between atoms: N6_10  and  C3_12 
REMARK    3  A    between atoms: C3_12  and  C4_13 
ROOT
HETATM    1  N4  UNL     1      -3.630   3.219  14.504  1.00  0.00    -0.272 N 
ATOM      2  H4  UNL     1      -2.631   3.233  14.299  1.00  0.00     0.189 HD
HETATM    3  C2  UNL     1      -4.354   4.084  13.918  1.00  0.00     0.203 C 
HETATM    4  N5  UNL     1      -5.735   4.108  14.167  1.00  0.00    -0.062 NA
HETATM    5  N6  UNL     1      -3.813   5.024  13.021  1.00  0.00    -0.363 N 
ATOM      6  H6  UNL     1      -4.324   5.197  12.157  1.00  0.00     0.162 HD
ENDROOT
BRANCH   1   7
HETATM    7  N3  UNL     1      -4.080   2.257  15.400  1.00  0.00    -0.274 N 
HETATM    8  C1  UNL     1      -4.366   1.044  15.132  1.00  0.00     0.215 C 
HETATM    9  N1  UNL     1      -4.254   0.489  13.802  1.00  0.00    -0.065 NA
HETATM   10  N2  UNL     1      -4.819   0.127  16.110  1.00  0.00    -0.065 NA
ATOM     11  H3  UNL     1      -4.192   2.551  16.370  1.00  0.00     0.189 HD
ENDBRANCH   1   7
BRANCH   5  12
HETATM   12  C3  UNL     1      -2.598   5.755  13.230  1.00  0.00     0.127 C 
BRANCH  12  13
HETATM   13  C4  UNL     1      -2.778   6.992  14.064  1.00  0.00     0.003 A 
HETATM   14  C5  UNL     1      -1.870   8.140  13.654  1.00  0.00     0.007 A 
HETATM   15  C6  UNL     1      -1.752   7.467  15.003  1.00  0.00     0.007 A 
ENDBRANCH  12  13
ENDBRANCH   5  12
TORSDOF 3
ENDMDL
MODEL 4
REMARK VINA RESULT: -5.181052718      2.065      2.433
REMARK  3 active torsions:
REMARK  status: ('A' for Active; 'I' for Inactive)
REMARK    1  A    between atoms: N3_4  and  N4_6 
REMARK       I    between atoms: C2_8  and  N6_10 
REMARK    2  A    between atoms: N6_10  and  C3_12 
REMARK    3  A    between atoms: C3_12  and  C4_13 
ROOT
HETATM    1  N4  UNL     1      -3.710   2.057  12.672  1.00  0.00    -0.272 N 
ATOM      2  H4  UNL     1      -2.889   2.556  13.015  1.00  0.00     0.189 HD
HETATM    3  C2  UNL     1      -4.226   2.465  11.585  1.00  0.00     0.203 C 
HETATM    4  N5  UNL     1      -5.358   1.812  11.072  1.00  0.00    -0.062 NA
HETATM    5  N6  UNL     1      -3.696   3.557  10.874  1.00  0.00    -0.363 N 
ATOM      6  H6  UNL     1      -3.623   3.467   9.861  1.00  0.00     0.162 HD
ENDROOT
BRANCH   1   7
HETATM    7  N3  UNL     1      -4.166   0.989  13.437  1.00  0.00    -0.274 N 
HETATM    8  C1  UNL     1      -4.225   0.935  14.709  1.00  0.00     0.215 C 
HETATM    9  N1  UNL     1      -3.806   2.028  15.558  1.00  0.00    -0.065 NA
HETATM   10  N2  UNL     1      -4.706  -0.196  15.410  1.00  0.00    -0.065 NA
ATOM     11  H3  UNL     1      -4.487   0.165  12.928  1.00  0.00     0.189 HD
ENDBRANCH   1   7
BRANCH   5  12
HETATM   12  C3  UNL     1      -3.250   4.785  11.463  1.00  0.00     0.127 C 
BRANCH  12  13
HETATM   13  C4  UNL     1      -4.336   5.534  12.183  1.00  0.00     0.003 A 
HETATM   14  C5  UNL     1      -3.830   6.733  12.970  1.00  0.00     0.007 A 
HETATM   15  C6  UNL     1      -4.457   5.534  13.648  1.00  0.00     0.007 A 
ENDBRANCH  12  13
ENDBRANCH   5  12
TORSDOF 3
ENDMDL
MODEL 5
REMARK VINA RESULT: -5.057935113      2.976      3.928
REMARK  3 active torsions:
REMARK  status: ('A' for Active; 'I' for Inactive)
REMARK    1  A    between atoms: N3_4  and  N4_6 
REMARK       I    between atoms: C2_8  and  N6_10 
REMARK    2  A    between atoms: N6_10  and  C3_12 
REMARK    3  A    between atoms: C3_12  and  C4_13 
ROOT
HETATM    1  N4  UNL     1      -3.736   2.405  12.812  1.00  0.00    -0.272 N 
ATOM      2  H4  UNL     1      -4.513   2.730  13.387  1.00  0.00     0.189 HD
HETATM    3  C2  UNL     1      -2.951   3.288  12.345  1.00  0.00     0.203 C 
HETATM    4  N5  UNL     1      -1.866   2.891  11.546  1.00  0.00    -0.062 NA
HETATM    5  N6  UNL     1      -3.133   4.658  12.604  1.00  0.00    -0.363 N 
ATOM      6  H6  UNL     1      -2.306   5.207  12.834  1.00  0.00     0.162 HD
ENDROOT
BRANCH   1   7
HETATM    7  N3  UNL     1      -3.630   1.034  12.608  1.00  0.00    -0.274 N 
HETATM    8  C1  UNL     1      -4.243   0.346  11.727  1.00  0.00     0.215 C 
HETATM    9  N1  UNL     1      -5.170   0.932  10.784  1.00  0.00    -0.065 NA
HETATM   10  N2  UNL     1      -4.075  -1.051  11.588  1.00  0.00    -0.065 NA
ATOM     11  H3  UNL     1      -2.996   0.526  13.227  1.00  0.00     0.189 HD
ENDBRANCH   1   7
BRANCH   5  12
HETATM   12  C3  UNL     1      -4.393   5.342  12.569  1.00  0.00     0.127 C 
BRANCH  12  13
HETATM   13  C4  UNL     1      -4.964   5.618  13.930  1.00  0.00     0.003 A 
HETATM   14  C5  UNL     1      -5.914   4.537  14.422  1.00  0.00     0.007 A 
HETATM   15  C6  UNL     1      -6.380   5.949  14.140  1.00  0.00     0.007 A 
ENDBRANCH  12  13
ENDBRANCH   5  12
TORSDOF 3
ENDMDL
