MODEL 1
REMARK VINA RESULT: -3.944582871      0.000      0.000
REMARK  4 active torsions:
REMARK  status: ('A' for Active; 'I' for Inactive)
REMARK    1  A    between atoms: N1_1  and  N2_4 
REMARK    2  A    between atoms: C1_6  and  C2_7 
REMARK    3  A    between atoms: C2_7  and  C3_8 
REMARK    4  A    between atoms: C3_8  and  C4_9 
ROOT
HETATM    1  C2  UNL     1      -7.973   7.749   7.897  1.00  0.00     0.048 C 
ENDROOT
BRANCH   1   2
HETATM    2  C1  UNL     1      -6.953   8.081   6.876  1.00  0.00     0.079 C 
HETATM    3  N2  UNL     1      -6.215   7.186   6.356  1.00  0.00    -0.322 N 
ATOM      4  H2  UNL     1      -5.516   7.431   5.654  1.00  0.00     0.185 HD
BRANCH   3   5
HETATM    5  N1  UNL     1      -6.379   5.860   6.762  1.00  0.00    -0.346 N 
ATOM      6  H12 UNL     1      -6.150   5.594   7.719  1.00  0.00     0.176 HD
ATOM      7  H11 UNL     1      -6.727   5.179   6.087  1.00  0.00     0.176 HD
ENDBRANCH   3   5
ENDBRANCH   1   2
BRANCH   1   8
HETATM    8  C3  UNL     1      -7.807   8.651   9.127  1.00  0.00     0.041 C 
BRANCH   8   9
HETATM    9  C4  UNL     1      -7.185   7.820  10.194  1.00  0.00     0.229 C 
HETATM   10  C5  UNL     1      -6.938   8.474  11.521  1.00  0.00     0.049 C 
HETATM   11  C6  UNL     1      -6.163   9.696  11.141  1.00  0.00     0.038 C 
HETATM   12  C8  UNL     1      -5.814   7.431  11.572  1.00  0.00     0.279 C 
HETATM   13  C7  UNL     1      -5.190   9.040  10.144  1.00  0.00     0.273 C 
HETATM   14  N3  UNL     1      -5.730   7.690  10.116  1.00  0.00     0.093 N 
ENDBRANCH   8   9
ENDBRANCH   1   8
TORSDOF 4
ENDMDL
MODEL 2
REMARK VINA RESULT: -3.873196030      5.783      7.084
REMARK  4 active torsions:
REMARK  status: ('A' for Active; 'I' for Inactive)
REMARK    1  A    between atoms: N1_1  and  N2_4 
REMARK    2  A    between atoms: C1_6  and  C2_7 
REMARK    3  A    between atoms: C2_7  and  C3_8 
REMARK    4  A    between atoms: C3_8  and  C4_9 
ROOT
HETATM    1  C2  UNL     1      -5.036   3.801  14.295  1.00  0.00     0.048 C 
ENDROOT
BRANCH   1   2
HETATM    2  C1  UNL     1      -4.509   2.723  13.427  1.00  0.00     0.079 C 
HETATM    3  N2  UNL     1      -4.130   1.607  13.907  1.00  0.00    -0.322 N 
ATOM      4  H2  UNL     1      -3.769   0.874  13.296  1.00  0.00     0.185 HD
BRANCH   3   5
HETATM    5  N1  UNL     1      -4.219   1.403  15.285  1.00  0.00    -0.346 N 
ATOM      6  H12 UNL     1      -3.384   1.497  15.864  1.00  0.00     0.176 HD
ATOM      7  H11 UNL     1      -5.124   1.162  15.690  1.00  0.00     0.176 HD
ENDBRANCH   3   5
ENDBRANCH   1   2
BRANCH   1   8
HETATM    8  C3  UNL     1      -4.447   5.155  13.877  1.00  0.00     0.041 C 
BRANCH   8   9
HETATM    9  C4  UNL     1      -3.047   4.903  13.441  1.00  0.00     0.229 C 
HETATM   10  C5  UNL     1      -1.947   5.482  14.281  1.00  0.00     0.049 C 
HETATM   11  C6  UNL     1      -2.331   6.925  14.365  1.00  0.00     0.038 C 
HETATM   12  C8  UNL     1      -1.214   5.462  12.934  1.00  0.00     0.279 C 
HETATM   13  C7  UNL     1      -2.690   7.145  12.885  1.00  0.00     0.273 C 
HETATM   14  N3  UNL     1      -2.550   5.787  12.387  1.00  0.00     0.093 N 
ENDBRANCH   8   9
ENDBRANCH   1   8
TORSDOF 4
ENDMDL
MODEL 3
REMARK VINA RESULT: -3.755672567      5.983      7.117
REMARK  4 active torsions:
REMARK  status: ('A' for Active; 'I' for Inactive)
REMARK    1  A    between atoms: N1_1  and  N2_4 
REMARK    2  A    between atoms: C1_6  and  C2_7 
REMARK    3  A    between atoms: C2_7  and  C3_8 
REMARK    4  A    between atoms: C3_8  and  C4_9 
ROOT
HETATM    1  C2  UNL     1      -5.220   3.581  13.908  1.00  0.00     0.048 C 
ENDROOT
BRANCH   1   2
HETATM    2  C1  UNL     1      -4.661   2.522  14.781  1.00  0.00     0.079 C 
HETATM    3  N2  UNL     1      -4.101   1.487  14.297  1.00  0.00    -0.322 N 
ATOM      4  H2  UNL     1      -3.722   0.767  14.912  1.00  0.00     0.185 HD
BRANCH   3   5
HETATM    5  N1  UNL     1      -4.015   1.355  12.911  1.00  0.00    -0.346 N 
ATOM      6  H12 UNL     1      -3.338   1.914  12.392  1.00  0.00     0.176 HD
ATOM      7  H11 UNL     1      -4.636   0.697  12.440  1.00  0.00     0.176 HD
ENDBRANCH   3   5
ENDBRANCH   1   2
BRANCH   1   8
HETATM    8  C3  UNL     1      -4.504   4.913  14.166  1.00  0.00     0.041 C 
BRANCH   8   9
HETATM    9  C4  UNL     1      -3.625   5.169  12.993  1.00  0.00     0.229 C 
HETATM   10  C5  UNL     1      -2.230   4.620  13.044  1.00  0.00     0.049 C 
HETATM   11  C6  UNL     1      -1.718   5.157  14.343  1.00  0.00     0.038 C 
HETATM   12  C8  UNL     1      -1.967   5.817  12.120  1.00  0.00     0.279 C 
HETATM   13  C7  UNL     1      -2.229   6.603  14.201  1.00  0.00     0.273 C 
HETATM   14  N3  UNL     1      -2.985   6.483  12.965  1.00  0.00     0.093 N 
ENDBRANCH   8   9
ENDBRANCH   1   8
TORSDOF 4
ENDMDL
MODEL 4
REMARK VINA RESULT: -3.730878963      7.253      8.008
REMARK  4 active torsions:
REMARK  status: ('A' for Active; 'I' for Inactive)
REMARK    1  A    between atoms: N1_1  and  N2_4 
REMARK    2  A    between atoms: C1_6  and  C2_7 
REMARK    3  A    between atoms: C2_7  and  C3_8 
REMARK    4  A    between atoms: C3_8  and  C4_9 
ROOT
HETATM    1  C2  UNL     1      -1.885   6.817  14.465  1.00  0.00     0.048 C 
ENDROOT
BRANCH   1   2
HETATM    2  C1  UNL     1      -1.439   5.755  13.533  1.00  0.00     0.079 C 
HETATM    3  N2  UNL     1      -1.135   4.591  13.946  1.00  0.00    -0.322 N 
ATOM      4  H2  UNL     1      -0.829   3.871  13.290  1.00  0.00     0.185 HD
BRANCH   3   5
HETATM    5  N1  UNL     1      -1.227   4.316  15.311  1.00  0.00    -0.346 N 
ATOM      6  H12 UNL     1      -1.573   5.034  15.947  1.00  0.00     0.176 HD
ATOM      7  H11 UNL     1      -0.943   3.396  15.648  1.00  0.00     0.176 HD
ENDBRANCH   3   5
ENDBRANCH   1   2
BRANCH   1   8
HETATM    8  C3  UNL     1      -1.722   8.197  13.815  1.00  0.00     0.041 C 
BRANCH   8   9
HETATM    9  C4  UNL     1      -0.805   8.982  14.686  1.00  0.00     0.229 C 
HETATM   10  C5  UNL     1      -1.173  10.409  14.965  1.00  0.00     0.049 C 
HETATM   11  C6  UNL     1      -1.368  10.967  13.591  1.00  0.00     0.038 C 
HETATM   12  C8  UNL     1       0.349  10.537  15.109  1.00  0.00     0.279 C 
HETATM   13  C7  UNL     1      -0.120  10.359  12.926  1.00  0.00     0.273 C 
HETATM   14  N3  UNL     1       0.372   9.535  14.018  1.00  0.00     0.093 N 
ENDBRANCH   8   9
ENDBRANCH   1   8
TORSDOF 4
ENDMDL
MODEL 5
REMARK VINA RESULT: -3.674466307      3.929      6.075
REMARK  4 active torsions:
REMARK  status: ('A' for Active; 'I' for Inactive)
REMARK    1  A    between atoms: N1_1  and  N2_4 
REMARK    2  A    between atoms: C1_6  and  C2_7 
REMARK    3  A    between atoms: C2_7  and  C3_8 
REMARK    4  A    between atoms: C3_8  and  C4_9 
ROOT
HETATM    1  C2  UNL     1      -3.533   4.902  13.814  1.00  0.00     0.048 C 
ENDROOT
BRANCH   1   2
HETATM    2  C1  UNL     1      -2.230   4.706  13.136  1.00  0.00     0.079 C 
HETATM    3  N2  UNL     1      -1.170   4.455  13.791  1.00  0.00    -0.322 N 
ATOM      4  H2  UNL     1      -0.280   4.323  13.309  1.00  0.00     0.185 HD
BRANCH   3   5
HETATM    5  N1  UNL     1      -1.244   4.362  15.182  1.00  0.00    -0.346 N 
ATOM      6  H12 UNL     1      -2.144   4.480  15.648  1.00  0.00     0.176 HD
ATOM      7  H11 UNL     1      -0.391   4.177  15.709  1.00  0.00     0.176 HD
ENDBRANCH   3   5
ENDBRANCH   1   2
BRANCH   1   8
HETATM    8  C3  UNL     1      -4.489   5.690  12.909  1.00  0.00     0.041 C 
BRANCH   8   9
HETATM    9  C4  UNL     1      -3.651   6.393  11.900  1.00  0.00     0.229 C 
HETATM   10  C5  UNL     1      -3.855   7.871  11.743  1.00  0.00     0.049 C 
HETATM   11  C6  UNL     1      -5.330   7.972  11.518  1.00  0.00     0.038 C 
HETATM   12  C8  UNL     1      -3.372   7.558  10.321  1.00  0.00     0.279 C 
HETATM   13  C7  UNL     1      -5.479   6.821  10.506  1.00  0.00     0.273 C 
HETATM   14  N3  UNL     1      -4.123   6.297  10.519  1.00  0.00     0.093 N 
ENDBRANCH   8   9
ENDBRANCH   1   8
TORSDOF 4
ENDMDL
