MODEL 1
REMARK VINA RESULT: -7.500123513      0.000      0.000
REMARK  12 active torsions:
REMARK  status: ('A' for Active; 'I' for Inactive)
REMARK    1  A    between atoms: C2_2  and  C3_3 
REMARK    2  A    between atoms: C2_2  and  C9_11 
REMARK    3  A    between atoms: C3_3  and  C4_4 
REMARK    4  A    between atoms: C4_4  and  C6_6 
REMARK    5  A    between atoms: C6_6  and  O1_9 
REMARK    6  A    between atoms: C9_11  and  C10_13 
REMARK    7  A    between atoms: C10_13  and  C11_15 
REMARK    8  A    between atoms: C11_15  and  C12_16 
REMARK    9  A    between atoms: C12_16  and  O4_17 
REMARK   10  A    between atoms: C12_16  and  C13_19 
REMARK   11  A    between atoms: C13_19  and  C14_20 
REMARK   12  A    between atoms: C14_20  and  C15_22 
ROOT
HETATM    1  C12 UNL     1      20.958  34.551  12.363  1.00  0.00     0.132 C 
ENDROOT
BRANCH   1   2
HETATM    2  C11 UNL     1      20.294  33.446  13.101  1.00  0.00     0.119 C 
BRANCH   2   3
HETATM    3  C10 UNL     1      20.487  32.112  12.528  1.00  0.00     0.197 C 
HETATM    4  O3  UNL     1      20.241  31.952  11.307  1.00  0.00    -0.289 OA
BRANCH   3   5
HETATM    5  C9  UNL     1      20.948  30.959  13.287  1.00  0.00     0.198 C 
HETATM    6  O2  UNL     1      20.107  30.045  13.480  1.00  0.00    -0.289 OA
BRANCH   5   7
HETATM    7  C2  UNL     1      22.321  30.814  13.828  1.00  0.00     0.060 C 
HETATM    8  C1  UNL     1      23.292  30.903  12.682  1.00  0.00     0.018 C 
BRANCH   7   9
HETATM    9  C3  UNL     1      22.402  29.578  14.625  1.00  0.00     0.019 C 
BRANCH   9  10
HETATM   10  C4  UNL     1      22.561  29.674  16.089  1.00  0.00     0.016 C 
HETATM   11  C5  UNL     1      23.716  28.721  16.455  1.00  0.00     0.013 C 
BRANCH  10  12
HETATM   12  C6  UNL     1      21.407  29.248  16.931  1.00  0.00     0.054 C 
HETATM   13  C7  UNL     1      20.994  30.394  17.871  1.00  0.00     0.045 C 
HETATM   14  C8  UNL     1      21.726  28.079  17.834  1.00  0.00     0.045 C 
BRANCH  12  15
HETATM   15  O1  UNL     1      20.249  28.933  16.230  1.00  0.00    -0.390 OA
ATOM     16  H1  UNL     1      19.959  28.032  16.314  1.00  0.00     0.210 HD
ENDBRANCH  12  15
ENDBRANCH  10  12
ENDBRANCH   9  10
ENDBRANCH   7   9
ENDBRANCH   5   7
ENDBRANCH   3   5
ENDBRANCH   2   3
ENDBRANCH   1   2
BRANCH   1  17
HETATM   17  O4  UNL     1      20.234  34.819  11.204  1.00  0.00    -0.395 OA
ATOM     18  H4  UNL     1      19.873  35.696  11.262  1.00  0.00     0.210 HD
ENDBRANCH   1  17
BRANCH   1  19
HETATM   19  C13 UNL     1      22.416  34.334  12.103  1.00  0.00     0.111 C 
BRANCH  19  20
HETATM   20  C14 UNL     1      23.240  35.410  12.637  1.00  0.00     0.139 C 
HETATM   21  O5  UNL     1      22.649  36.476  12.729  1.00  0.00    -0.297 OA
BRANCH  20  22
HETATM   22  C15 UNL     1      24.639  35.363  13.058  1.00  0.00     0.034 C 
HETATM   23  C16 UNL     1      24.959  33.967  13.531  1.00  0.00     0.025 C 
HETATM   24  C17 UNL     1      24.920  36.293  14.246  1.00  0.00     0.019 C 
HETATM   25  C18 UNL     1      26.284  36.048  14.781  1.00  0.00     0.010 C 
HETATM   26  C19 UNL     1      27.381  36.028  13.797  1.00  0.00    -0.046 C 
HETATM   27  C20 UNL     1      28.457  35.062  14.329  1.00  0.00     0.015 C 
HETATM   28  C21 UNL     1      28.112  37.378  13.781  1.00  0.00     0.015 C 
HETATM   29  C22 UNL     1      27.038  35.556  12.425  1.00  0.00     0.030 C 
HETATM   30  C23 UNL     1      25.629  35.783  12.005  1.00  0.00     0.030 C 
HETATM   31  C24 UNL     1      25.356  35.012  10.736  1.00  0.00     0.029 C 
HETATM   32  S1  UNL     1      25.520  37.589  11.688  1.00  0.00    -0.086 SA
ENDBRANCH  20  22
ENDBRANCH  19  20
ENDBRANCH   1  19
TORSDOF 12
ENDMDL
MODEL 2
REMARK VINA RESULT: -7.357621174      1.475      2.380
REMARK  12 active torsions:
REMARK  status: ('A' for Active; 'I' for Inactive)
REMARK    1  A    between atoms: C2_2  and  C3_3 
REMARK    2  A    between atoms: C2_2  and  C9_11 
REMARK    3  A    between atoms: C3_3  and  C4_4 
REMARK    4  A    between atoms: C4_4  and  C6_6 
REMARK    5  A    between atoms: C6_6  and  O1_9 
REMARK    6  A    between atoms: C9_11  and  C10_13 
REMARK    7  A    between atoms: C10_13  and  C11_15 
REMARK    8  A    between atoms: C11_15  and  C12_16 
REMARK    9  A    between atoms: C12_16  and  O4_17 
REMARK   10  A    between atoms: C12_16  and  C13_19 
REMARK   11  A    between atoms: C13_19  and  C14_20 
REMARK   12  A    between atoms: C14_20  and  C15_22 
ROOT
HETATM    1  C12 UNL     1      20.562  34.264  12.622  1.00  0.00     0.132 C 
ENDROOT
BRANCH   1   2
HETATM    2  C11 UNL     1      19.912  32.971  12.959  1.00  0.00     0.119 C 
BRANCH   2   3
HETATM    3  C10 UNL     1      20.564  31.785  12.401  1.00  0.00     0.197 C 
HETATM    4  O3  UNL     1      20.666  31.697  11.153  1.00  0.00    -0.289 OA
BRANCH   3   5
HETATM    5  C9  UNL     1      21.103  30.699  13.207  1.00  0.00     0.198 C 
HETATM    6  O2  UNL     1      20.373  29.683  13.334  1.00  0.00    -0.289 OA
BRANCH   5   7
HETATM    7  C2  UNL     1      22.432  30.730  13.864  1.00  0.00     0.060 C 
HETATM    8  C1  UNL     1      23.478  30.946  12.804  1.00  0.00     0.018 C 
BRANCH   7   9
HETATM    9  C3  UNL     1      22.602  29.514  14.676  1.00  0.00     0.019 C 
BRANCH   9  10
HETATM   10  C4  UNL     1      22.669  29.632  16.145  1.00  0.00     0.016 C 
HETATM   11  C5  UNL     1      23.768  28.653  16.602  1.00  0.00     0.013 C 
BRANCH  10  12
HETATM   12  C6  UNL     1      21.450  29.255  16.917  1.00  0.00     0.054 C 
HETATM   13  C7  UNL     1      21.005  30.433  17.802  1.00  0.00     0.045 C 
HETATM   14  C8  UNL     1      21.678  28.100  17.865  1.00  0.00     0.045 C 
BRANCH  12  15
HETATM   15  O1  UNL     1      20.334  28.952  16.147  1.00  0.00    -0.390 OA
ATOM     16  H1  UNL     1      20.490  28.350  15.429  1.00  0.00     0.210 HD
ENDBRANCH  12  15
ENDBRANCH  10  12
ENDBRANCH   9  10
ENDBRANCH   7   9
ENDBRANCH   5   7
ENDBRANCH   3   5
ENDBRANCH   2   3
ENDBRANCH   1   2
BRANCH   1  17
HETATM   17  O4  UNL     1      20.288  34.575  11.293  1.00  0.00    -0.395 OA
ATOM     18  H4  UNL     1      20.752  35.370  11.060  1.00  0.00     0.210 HD
ENDBRANCH   1  17
BRANCH   1  19
HETATM   19  C13 UNL     1      22.022  34.326  12.947  1.00  0.00     0.111 C 
BRANCH  19  20
HETATM   20  C14 UNL     1      22.677  35.472  12.330  1.00  0.00     0.139 C 
HETATM   21  O5  UNL     1      22.143  36.539  12.594  1.00  0.00    -0.297 OA
BRANCH  20  22
HETATM   22  C15 UNL     1      23.855  35.490  11.465  1.00  0.00     0.034 C 
HETATM   23  C16 UNL     1      23.671  36.557  10.414  1.00  0.00     0.025 C 
HETATM   24  C17 UNL     1      24.040  34.169  10.706  1.00  0.00     0.019 C 
HETATM   25  C18 UNL     1      25.105  34.309   9.679  1.00  0.00     0.010 C 
HETATM   26  C19 UNL     1      26.380  34.894  10.131  1.00  0.00    -0.046 C 
HETATM   27  C20 UNL     1      26.993  35.641   8.931  1.00  0.00     0.015 C 
HETATM   28  C21 UNL     1      27.408  33.787  10.407  1.00  0.00     0.015 C 
HETATM   29  C22 UNL     1      26.303  35.883  11.244  1.00  0.00     0.030 C 
HETATM   30  C23 UNL     1      25.162  35.702  12.181  1.00  0.00     0.030 C 
HETATM   31  C24 UNL     1      25.046  36.919  13.067  1.00  0.00     0.029 C 
HETATM   32  S1  UNL     1      25.606  34.227  13.181  1.00  0.00    -0.086 SA
ENDBRANCH  20  22
ENDBRANCH  19  20
ENDBRANCH   1  19
TORSDOF 12
ENDMDL
MODEL 3
REMARK VINA RESULT: -7.145324631      1.456      1.823
REMARK  12 active torsions:
REMARK  status: ('A' for Active; 'I' for Inactive)
REMARK    1  A    between atoms: C2_2  and  C3_3 
REMARK    2  A    between atoms: C2_2  and  C9_11 
REMARK    3  A    between atoms: C3_3  and  C4_4 
REMARK    4  A    between atoms: C4_4  and  C6_6 
REMARK    5  A    between atoms: C6_6  and  O1_9 
REMARK    6  A    between atoms: C9_11  and  C10_13 
REMARK    7  A    between atoms: C10_13  and  C11_15 
REMARK    8  A    between atoms: C11_15  and  C12_16 
REMARK    9  A    between atoms: C12_16  and  O4_17 
REMARK   10  A    between atoms: C12_16  and  C13_19 
REMARK   11  A    between atoms: C13_19  and  C14_20 
REMARK   12  A    between atoms: C14_20  and  C15_22 
ROOT
HETATM    1  C12 UNL     1      20.831  32.756  12.856  1.00  0.00     0.132 C 
ENDROOT
BRANCH   1   2
HETATM    2  C11 UNL     1      20.233  31.404  12.709  1.00  0.00     0.119 C 
BRANCH   2   3
HETATM    3  C10 UNL     1      20.550  30.464  13.785  1.00  0.00     0.197 C 
HETATM    4  O3  UNL     1      19.968  29.352  13.790  1.00  0.00    -0.289 OA
BRANCH   3   5
HETATM    5  C9  UNL     1      21.501  30.741  14.853  1.00  0.00     0.198 C 
HETATM    6  O2  UNL     1      21.082  31.447  15.804  1.00  0.00    -0.289 OA
BRANCH   5   7
HETATM    7  C2  UNL     1      22.897  30.242  14.872  1.00  0.00     0.060 C 
HETATM    8  C1  UNL     1      23.293  29.889  13.464  1.00  0.00     0.018 C 
BRANCH   7   9
HETATM    9  C3  UNL     1      23.009  29.147  15.849  1.00  0.00     0.019 C 
BRANCH   9  10
HETATM   10  C4  UNL     1      23.820  29.346  17.065  1.00  0.00     0.016 C 
HETATM   11  C5  UNL     1      24.820  28.173  17.109  1.00  0.00     0.013 C 
BRANCH  10  12
HETATM   12  C6  UNL     1      23.108  29.313  18.375  1.00  0.00     0.054 C 
HETATM   13  C7  UNL     1      24.046  29.803  19.493  1.00  0.00     0.045 C 
HETATM   14  C8  UNL     1      22.678  27.924  18.787  1.00  0.00     0.045 C 
BRANCH  12  15
HETATM   15  O1  UNL     1      21.995  30.140  18.462  1.00  0.00    -0.390 OA
ATOM     16  H1  UNL     1      22.068  30.965  17.996  1.00  0.00     0.210 HD
ENDBRANCH  12  15
ENDBRANCH  10  12
ENDBRANCH   9  10
ENDBRANCH   7   9
ENDBRANCH   5   7
ENDBRANCH   3   5
ENDBRANCH   2   3
ENDBRANCH   1   2
BRANCH   1  17
HETATM   17  O4  UNL     1      19.811  33.704  12.863  1.00  0.00    -0.395 OA
ATOM     18  H4  UNL     1      19.978  34.333  13.555  1.00  0.00     0.210 HD
ENDBRANCH   1  17
BRANCH   1  19
HETATM   19  C13 UNL     1      21.909  33.068  11.865  1.00  0.00     0.111 C 
BRANCH  19  20
HETATM   20  C14 UNL     1      22.586  34.324  12.160  1.00  0.00     0.139 C 
HETATM   21  O5  UNL     1      21.879  35.308  11.997  1.00  0.00    -0.297 OA
BRANCH  20  22
HETATM   22  C15 UNL     1      23.960  34.534  12.611  1.00  0.00     0.034 C 
HETATM   23  C16 UNL     1      24.449  33.278  13.289  1.00  0.00     0.025 C 
HETATM   24  C17 UNL     1      24.065  35.653  13.656  1.00  0.00     0.019 C 
HETATM   25  C18 UNL     1      25.428  35.681  14.247  1.00  0.00     0.010 C 
HETATM   26  C19 UNL     1      26.555  35.675  13.299  1.00  0.00    -0.046 C 
HETATM   27  C20 UNL     1      27.730  34.955  13.987  1.00  0.00     0.015 C 
HETATM   28  C21 UNL     1      27.095  37.099  13.100  1.00  0.00     0.015 C 
HETATM   29  C22 UNL     1      26.334  34.970  12.004  1.00  0.00     0.030 C 
HETATM   30  C23 UNL     1      24.925  34.935  11.527  1.00  0.00     0.030 C 
HETATM   31  C24 UNL     1      24.810  33.961  10.380  1.00  0.00     0.029 C 
HETATM   32  S1  UNL     1      24.584  36.644  10.948  1.00  0.00    -0.086 SA
ENDBRANCH  20  22
ENDBRANCH  19  20
ENDBRANCH   1  19
TORSDOF 12
ENDMDL
MODEL 4
REMARK VINA RESULT: -7.115052384      1.088      1.268
REMARK  12 active torsions:
REMARK  status: ('A' for Active; 'I' for Inactive)
REMARK    1  A    between atoms: C2_2  and  C3_3 
REMARK    2  A    between atoms: C2_2  and  C9_11 
REMARK    3  A    between atoms: C3_3  and  C4_4 
REMARK    4  A    between atoms: C4_4  and  C6_6 
REMARK    5  A    between atoms: C6_6  and  O1_9 
REMARK    6  A    between atoms: C9_11  and  C10_13 
REMARK    7  A    between atoms: C10_13  and  C11_15 
REMARK    8  A    between atoms: C11_15  and  C12_16 
REMARK    9  A    between atoms: C12_16  and  O4_17 
REMARK   10  A    between atoms: C12_16  and  C13_19 
REMARK   11  A    between atoms: C13_19  and  C14_20 
REMARK   12  A    between atoms: C14_20  and  C15_22 
ROOT
HETATM    1  C12 UNL     1      21.171  34.439  12.319  1.00  0.00     0.132 C 
ENDROOT
BRANCH   1   2
HETATM    2  C11 UNL     1      20.476  33.426  13.155  1.00  0.00     0.119 C 
BRANCH   2   3
HETATM    3  C10 UNL     1      20.496  32.062  12.621  1.00  0.00     0.197 C 
HETATM    4  O3  UNL     1      20.145  31.888  11.428  1.00  0.00    -0.289 OA
BRANCH   3   5
HETATM    5  C9  UNL     1      20.899  30.894  13.390  1.00  0.00     0.198 C 
HETATM    6  O2  UNL     1      20.068  29.953  13.454  1.00  0.00    -0.289 OA
BRANCH   5   7
HETATM    7  C2  UNL     1      22.205  30.763  14.081  1.00  0.00     0.060 C 
HETATM    8  C1  UNL     1      23.293  30.780  13.042  1.00  0.00     0.018 C 
BRANCH   7   9
HETATM    9  C3  UNL     1      22.181  29.570  14.945  1.00  0.00     0.019 C 
BRANCH   9  10
HETATM   10  C4  UNL     1      22.716  29.664  16.317  1.00  0.00     0.016 C 
HETATM   11  C5  UNL     1      23.914  28.695  16.374  1.00  0.00     0.013 C 
BRANCH  10  12
HETATM   12  C6  UNL     1      21.815  29.252  17.431  1.00  0.00     0.054 C 
HETATM   13  C7  UNL     1      22.219  27.857  17.943  1.00  0.00     0.045 C 
HETATM   14  C8  UNL     1      20.368  29.127  17.015  1.00  0.00     0.045 C 
BRANCH  12  15
HETATM   15  O1  UNL     1      21.860  30.065  18.557  1.00  0.00    -0.390 OA
ATOM     16  H1  UNL     1      22.591  30.672  18.588  1.00  0.00     0.210 HD
ENDBRANCH  12  15
ENDBRANCH  10  12
ENDBRANCH   9  10
ENDBRANCH   7   9
ENDBRANCH   5   7
ENDBRANCH   3   5
ENDBRANCH   2   3
ENDBRANCH   1   2
BRANCH   1  17
HETATM   17  O4  UNL     1      20.386  34.718  11.203  1.00  0.00    -0.395 OA
ATOM     18  H4  UNL     1      20.699  34.202  10.469  1.00  0.00     0.210 HD
ENDBRANCH   1  17
BRANCH   1  19
HETATM   19  C13 UNL     1      22.583  34.089  11.967  1.00  0.00     0.111 C 
BRANCH  19  20
HETATM   20  C14 UNL     1      23.444  35.262  11.901  1.00  0.00     0.139 C 
HETATM   21  O5  UNL     1      23.113  36.062  11.038  1.00  0.00    -0.297 OA
BRANCH  20  22
HETATM   22  C15 UNL     1      24.614  35.579  12.717  1.00  0.00     0.034 C 
HETATM   23  C16 UNL     1      24.360  35.124  14.133  1.00  0.00     0.025 C 
HETATM   24  C17 UNL     1      24.877  37.090  12.793  1.00  0.00     0.019 C 
HETATM   25  C18 UNL     1      25.927  37.380  13.804  1.00  0.00     0.010 C 
HETATM   26  C19 UNL     1      27.165  36.586  13.711  1.00  0.00    -0.046 C 
HETATM   27  C20 UNL     1      27.726  36.440  15.139  1.00  0.00     0.015 C 
HETATM   28  C21 UNL     1      28.262  37.386  12.993  1.00  0.00     0.015 C 
HETATM   29  C22 UNL     1      27.032  35.202  13.171  1.00  0.00     0.030 C 
HETATM   30  C23 UNL     1      25.908  34.993  12.219  1.00  0.00     0.030 C 
HETATM   31  C24 UNL     1      25.721  33.514  11.984  1.00  0.00     0.029 C 
HETATM   32  S1  UNL     1      26.447  35.820  10.670  1.00  0.00    -0.086 SA
ENDBRANCH  20  22
ENDBRANCH  19  20
ENDBRANCH   1  19
TORSDOF 12
ENDMDL
MODEL 5
REMARK VINA RESULT: -7.091498599      1.353      1.657
REMARK  12 active torsions:
REMARK  status: ('A' for Active; 'I' for Inactive)
REMARK    1  A    between atoms: C2_2  and  C3_3 
REMARK    2  A    between atoms: C2_2  and  C9_11 
REMARK    3  A    between atoms: C3_3  and  C4_4 
REMARK    4  A    between atoms: C4_4  and  C6_6 
REMARK    5  A    between atoms: C6_6  and  O1_9 
REMARK    6  A    between atoms: C9_11  and  C10_13 
REMARK    7  A    between atoms: C10_13  and  C11_15 
REMARK    8  A    between atoms: C11_15  and  C12_16 
REMARK    9  A    between atoms: C12_16  and  O4_17 
REMARK   10  A    between atoms: C12_16  and  C13_19 
REMARK   11  A    between atoms: C13_19  and  C14_20 
REMARK   12  A    between atoms: C14_20  and  C15_22 
ROOT
HETATM    1  C12 UNL     1      20.672  33.698  12.873  1.00  0.00     0.132 C 
ENDROOT
BRANCH   1   2
HETATM    2  C11 UNL     1      20.321  32.268  13.068  1.00  0.00     0.119 C 
BRANCH   2   3
HETATM    3  C10 UNL     1      21.015  31.604  14.173  1.00  0.00     0.197 C 
HETATM    4  O3  UNL     1      21.016  32.167  15.295  1.00  0.00    -0.289 OA
BRANCH   3   5
HETATM    5  C9  UNL     1      21.705  30.327  14.051  1.00  0.00     0.198 C 
HETATM    6  O2  UNL     1      21.081  29.411  13.459  1.00  0.00    -0.289 OA
BRANCH   5   7
HETATM    7  C2  UNL     1      23.067  30.065  14.574  1.00  0.00     0.060 C 
HETATM    8  C1  UNL     1      23.950  29.676  13.419  1.00  0.00     0.018 C 
BRANCH   7   9
HETATM    9  C3  UNL     1      22.988  29.078  15.663  1.00  0.00     0.019 C 
BRANCH   9  10
HETATM   10  C4  UNL     1      23.620  29.385  16.961  1.00  0.00     0.016 C 
HETATM   11  C5  UNL     1      24.674  28.285  17.194  1.00  0.00     0.013 C 
BRANCH  10  12
HETATM   12  C6  UNL     1      22.745  29.363  18.169  1.00  0.00     0.054 C 
HETATM   13  C7  UNL     1      22.517  27.910  18.623  1.00  0.00     0.045 C 
HETATM   14  C8  UNL     1      21.367  29.931  17.919  1.00  0.00     0.045 C 
BRANCH  12  15
HETATM   15  O1  UNL     1      23.267  30.002  19.287  1.00  0.00    -0.390 OA
ATOM     16  H1  UNL     1      23.069  29.586  20.118  1.00  0.00     0.210 HD
ENDBRANCH  12  15
ENDBRANCH  10  12
ENDBRANCH   9  10
ENDBRANCH   7   9
ENDBRANCH   5   7
ENDBRANCH   3   5
ENDBRANCH   2   3
ENDBRANCH   1   2
BRANCH   1  17
HETATM   17  O4  UNL     1      19.517  34.407  12.553  1.00  0.00    -0.395 OA
ATOM     18  H4  UNL     1      19.527  35.238  13.013  1.00  0.00     0.210 HD
ENDBRANCH   1  17
BRANCH   1  19
HETATM   19  C13 UNL     1      21.788  33.936  11.905  1.00  0.00     0.111 C 
BRANCH  19  20
HETATM   20  C14 UNL     1      22.661  35.024  12.323  1.00  0.00     0.139 C 
HETATM   21  O5  UNL     1      22.121  36.121  12.294  1.00  0.00    -0.297 OA
BRANCH  20  22
HETATM   22  C15 UNL     1      24.056  34.960  12.755  1.00  0.00     0.034 C 
HETATM   23  C16 UNL     1      24.299  33.626  13.419  1.00  0.00     0.025 C 
HETATM   24  C17 UNL     1      24.390  36.028  13.805  1.00  0.00     0.019 C 
HETATM   25  C18 UNL     1      25.740  35.785  14.377  1.00  0.00     0.010 C 
HETATM   26  C19 UNL     1      26.832  35.568  13.413  1.00  0.00    -0.046 C 
HETATM   27  C20 UNL     1      27.854  34.628  14.080  1.00  0.00     0.015 C 
HETATM   28  C21 UNL     1      27.636  36.861  13.215  1.00  0.00     0.015 C 
HETATM   29  C22 UNL     1      26.461  34.930  12.117  1.00  0.00     0.030 C 
HETATM   30  C23 UNL     1      25.067  35.174  11.660  1.00  0.00     0.030 C 
HETATM   31  C24 UNL     1      24.749  34.251  10.509  1.00  0.00     0.029 C 
HETATM   32  S1  UNL     1      25.058  36.922  11.096  1.00  0.00    -0.086 SA
ENDBRANCH  20  22
ENDBRANCH  19  20
ENDBRANCH   1  19
TORSDOF 12
ENDMDL
