MODEL 1
REMARK VINA RESULT: -7.394636305      0.000      0.000
REMARK  14 active torsions:
REMARK  status: ('A' for Active; 'I' for Inactive)
REMARK    1  A    between atoms: C2_2  and  O2_4 
REMARK    2  A    between atoms: O2_4  and  C3_5 
REMARK    3  A    between atoms: C3_5  and  C4_6 
REMARK    4  A    between atoms: C4_6  and  O4_8 
REMARK    5  A    between atoms: O4_8  and  C5_9 
REMARK    6  A    between atoms: C7_11  and  O5_12 
REMARK    7  A    between atoms: C8_14  and  C9_15 
REMARK    8  A    between atoms: C9_15  and  C10_16 
REMARK    9  A    between atoms: C11_17  and  C13_19 
REMARK   10  A    between atoms: C13_19  and  C14_20 
REMARK   11  A    between atoms: C14_20  and  C15_21 
REMARK   12  A    between atoms: C19_25  and  O6_26 
REMARK   13  A    between atoms: C20_28  and  C21_29 
REMARK   14  A    between atoms: C21_29  and  C22_30 
ROOT
HETATM    1  C5  UNL     1      21.443  30.774  14.841  1.00  0.00     0.091 A 
HETATM    2  C6  UNL     1      20.769  31.020  16.043  1.00  0.00     0.075 A 
HETATM    3  C7  UNL     1      21.198  30.442  17.241  1.00  0.00     0.077 A 
HETATM    4  C8  UNL     1      22.286  29.636  17.189  1.00  0.00     0.012 A 
HETATM    5  C19 UNL     1      22.977  29.375  16.001  1.00  0.00     0.084 A 
HETATM    6  C20 UNL     1      22.533  29.964  14.809  1.00  0.00     0.013 A 
ENDROOT
BRANCH   4   7
HETATM    7  C9  UNL     1      22.762  28.939  18.446  1.00  0.00     0.072 C 
BRANCH   7   8
HETATM    8  C10 UNL     1      23.578  29.839  19.279  1.00  0.00    -0.020 C 
HETATM    9  C11 UNL     1      24.871  29.937  19.446  1.00  0.00    -0.087 C 
HETATM   10  C12 UNL     1      25.395  30.999  20.394  1.00  0.00     0.043 C 
BRANCH   9  11
HETATM   11  C13 UNL     1      25.811  29.011  18.791  1.00  0.00     0.037 C 
BRANCH  11  12
HETATM   12  C14 UNL     1      26.128  27.747  19.496  1.00  0.00     0.031 C 
BRANCH  12  13
HETATM   13  C15 UNL     1      25.516  26.516  18.996  1.00  0.00    -0.024 C 
HETATM   14  C16 UNL     1      24.516  25.876  19.562  1.00  0.00    -0.091 C 
HETATM   15  C17 UNL     1      23.982  24.636  18.962  1.00  0.00     0.042 C 
HETATM   16  C18 UNL     1      23.916  26.393  20.809  1.00  0.00     0.042 C 
ENDBRANCH  12  13
ENDBRANCH  11  12
ENDBRANCH   9  11
ENDBRANCH   7   8
ENDBRANCH   4   7
BRANCH   3  17
HETATM   17  O5  UNL     1      20.509  30.715  18.412  1.00  0.00    -0.360 OA
ATOM     18  H5  UNL     1      20.995  30.919  19.202  1.00  0.00     0.217 HD
ENDBRANCH   3  17
BRANCH   5  19
HETATM   19  O6  UNL     1      24.063  28.553  16.048  1.00  0.00    -0.359 OA
ATOM     20  H6  UNL     1      23.959  27.649  15.776  1.00  0.00     0.217 HD
ENDBRANCH   5  19
BRANCH   6  21
HETATM   21  C21 UNL     1      23.250  29.692  13.552  1.00  0.00     0.072 C 
BRANCH  21  22
HETATM   22  C22 UNL     1      24.423  30.554  13.307  1.00  0.00    -0.020 C 
HETATM   23  C23 UNL     1      25.678  30.178  13.178  1.00  0.00    -0.091 C 
HETATM   24  C24 UNL     1      26.190  28.787  13.254  1.00  0.00     0.042 C 
HETATM   25  C25 UNL     1      26.721  31.250  12.929  1.00  0.00     0.042 C 
ENDBRANCH  21  22
ENDBRANCH   6  21
BRANCH   1  26
HETATM   26  O4  UNL     1      20.959  31.379  13.696  1.00  0.00    -0.277 OA
BRANCH  26  27
HETATM   27  C4  UNL     1      21.140  32.759  13.473  1.00  0.00     0.288 C 
HETATM   28  O3  UNL     1      22.297  33.187  13.745  1.00  0.00    -0.262 OA
BRANCH  27  29
HETATM   29  C3  UNL     1      20.071  33.650  12.963  1.00  0.00     0.290 C 
BRANCH  29  30
HETATM   30  O2  UNL     1      20.456  34.441  11.876  1.00  0.00    -0.312 OA
BRANCH  30  31
HETATM   31  C2  UNL     1      21.171  35.599  12.013  1.00  0.00     0.255 C 
HETATM   32  C1  UNL     1      22.559  35.765  11.454  1.00  0.00     0.126 C 
HETATM   33  O1  UNL     1      20.662  36.563  12.625  1.00  0.00    -0.266 OA
ENDBRANCH  30  31
ENDBRANCH  29  30
ENDBRANCH  27  29
ENDBRANCH  26  27
ENDBRANCH   1  26
TORSDOF 14
ENDMDL
MODEL 2
REMARK VINA RESULT: -7.218729781      0.896      1.168
REMARK  14 active torsions:
REMARK  status: ('A' for Active; 'I' for Inactive)
REMARK    1  A    between atoms: C2_2  and  O2_4 
REMARK    2  A    between atoms: O2_4  and  C3_5 
REMARK    3  A    between atoms: C3_5  and  C4_6 
REMARK    4  A    between atoms: C4_6  and  O4_8 
REMARK    5  A    between atoms: O4_8  and  C5_9 
REMARK    6  A    between atoms: C7_11  and  O5_12 
REMARK    7  A    between atoms: C8_14  and  C9_15 
REMARK    8  A    between atoms: C9_15  and  C10_16 
REMARK    9  A    between atoms: C11_17  and  C13_19 
REMARK   10  A    between atoms: C13_19  and  C14_20 
REMARK   11  A    between atoms: C14_20  and  C15_21 
REMARK   12  A    between atoms: C19_25  and  O6_26 
REMARK   13  A    between atoms: C20_28  and  C21_29 
REMARK   14  A    between atoms: C21_29  and  C22_30 
ROOT
HETATM    1  C5  UNL     1      21.216  30.461  14.953  1.00  0.00     0.091 A 
HETATM    2  C6  UNL     1      20.613  30.744  16.184  1.00  0.00     0.075 A 
HETATM    3  C7  UNL     1      21.179  30.301  17.383  1.00  0.00     0.077 A 
HETATM    4  C8  UNL     1      22.330  29.589  17.302  1.00  0.00     0.012 A 
HETATM    5  C19 UNL     1      22.952  29.294  16.085  1.00  0.00     0.084 A 
HETATM    6  C20 UNL     1      22.370  29.746  14.893  1.00  0.00     0.013 A 
ENDROOT
BRANCH   4   7
HETATM    7  C9  UNL     1      22.957  29.037  18.565  1.00  0.00     0.072 C 
BRANCH   7   8
HETATM    8  C10 UNL     1      23.968  29.962  19.106  1.00  0.00    -0.020 C 
HETATM    9  C11 UNL     1      24.670  29.936  20.209  1.00  0.00    -0.087 C 
HETATM   10  C12 UNL     1      25.648  31.068  20.465  1.00  0.00     0.043 C 
BRANCH   9  11
HETATM   11  C13 UNL     1      24.490  28.881  21.220  1.00  0.00     0.037 C 
BRANCH  11  12
HETATM   12  C14 UNL     1      25.287  27.642  21.066  1.00  0.00     0.031 C 
BRANCH  12  13
HETATM   13  C15 UNL     1      24.603  26.446  20.578  1.00  0.00    -0.024 C 
HETATM   14  C16 UNL     1      24.767  25.902  19.392  1.00  0.00    -0.091 C 
HETATM   15  C17 UNL     1      24.016  24.689  19.011  1.00  0.00     0.042 C 
HETATM   16  C18 UNL     1      25.710  26.502  18.426  1.00  0.00     0.042 C 
ENDBRANCH  12  13
ENDBRANCH  11  12
ENDBRANCH   9  11
ENDBRANCH   7   8
ENDBRANCH   4   7
BRANCH   3  17
HETATM   17  O5  UNL     1      20.556  30.607  18.582  1.00  0.00    -0.360 OA
ATOM     18  H5  UNL     1      21.075  30.665  19.376  1.00  0.00     0.217 HD
ENDBRANCH   3  17
BRANCH   5  19
HETATM   19  O6  UNL     1      24.108  28.573  16.104  1.00  0.00    -0.359 OA
ATOM     20  H6  UNL     1      24.655  28.573  15.327  1.00  0.00     0.217 HD
ENDBRANCH   5  19
BRANCH   6  21
HETATM   21  C21 UNL     1      23.014  29.437  13.606  1.00  0.00     0.072 C 
BRANCH  21  22
HETATM   22  C22 UNL     1      24.023  30.420  13.165  1.00  0.00    -0.020 C 
HETATM   23  C23 UNL     1      25.308  30.212  12.966  1.00  0.00    -0.091 C 
HETATM   24  C24 UNL     1      26.027  28.926  13.147  1.00  0.00     0.042 C 
HETATM   25  C25 UNL     1      26.157  31.382  12.509  1.00  0.00     0.042 C 
ENDBRANCH  21  22
ENDBRANCH   6  21
BRANCH   1  26
HETATM   26  O4  UNL     1      20.596  30.929  13.810  1.00  0.00    -0.277 OA
BRANCH  26  27
HETATM   27  C4  UNL     1      20.749  32.270  13.399  1.00  0.00     0.288 C 
HETATM   28  O3  UNL     1      21.048  33.072  14.328  1.00  0.00    -0.262 OA
BRANCH  27  29
HETATM   29  C3  UNL     1      20.577  32.717  11.997  1.00  0.00     0.290 C 
BRANCH  29  30
HETATM   30  O2  UNL     1      20.316  34.085  11.861  1.00  0.00    -0.312 OA
BRANCH  30  31
HETATM   31  C2  UNL     1      21.298  35.036  11.885  1.00  0.00     0.255 C 
HETATM   32  C1  UNL     1      21.046  36.448  12.342  1.00  0.00     0.126 C 
HETATM   33  O1  UNL     1      22.454  34.732  11.516  1.00  0.00    -0.266 OA
ENDBRANCH  30  31
ENDBRANCH  29  30
ENDBRANCH  27  29
ENDBRANCH  26  27
ENDBRANCH   1  26
TORSDOF 14
ENDMDL
MODEL 3
REMARK VINA RESULT: -7.216442476      2.563      4.951
REMARK  14 active torsions:
REMARK  status: ('A' for Active; 'I' for Inactive)
REMARK    1  A    between atoms: C2_2  and  O2_4 
REMARK    2  A    between atoms: O2_4  and  C3_5 
REMARK    3  A    between atoms: C3_5  and  C4_6 
REMARK    4  A    between atoms: C4_6  and  O4_8 
REMARK    5  A    between atoms: O4_8  and  C5_9 
REMARK    6  A    between atoms: C7_11  and  O5_12 
REMARK    7  A    between atoms: C8_14  and  C9_15 
REMARK    8  A    between atoms: C9_15  and  C10_16 
REMARK    9  A    between atoms: C11_17  and  C13_19 
REMARK   10  A    between atoms: C13_19  and  C14_20 
REMARK   11  A    between atoms: C14_20  and  C15_21 
REMARK   12  A    between atoms: C19_25  and  O6_26 
REMARK   13  A    between atoms: C20_28  and  C21_29 
REMARK   14  A    between atoms: C21_29  and  C22_30 
ROOT
HETATM    1  C5  UNL     1      22.365  34.335  12.000  1.00  0.00     0.091 A 
HETATM    2  C6  UNL     1      21.082  33.781  11.932  1.00  0.00     0.075 A 
HETATM    3  C7  UNL     1      20.804  32.536  12.504  1.00  0.00     0.077 A 
HETATM    4  C8  UNL     1      21.824  31.892  13.122  1.00  0.00     0.012 A 
HETATM    5  C19 UNL     1      23.114  32.425  13.204  1.00  0.00     0.084 A 
HETATM    6  C20 UNL     1      23.375  33.675  12.625  1.00  0.00     0.013 A 
ENDROOT
BRANCH   4   7
HETATM    7  C9  UNL     1      21.593  30.517  13.711  1.00  0.00     0.072 C 
BRANCH   7   8
HETATM    8  C10 UNL     1      21.160  30.604  15.116  1.00  0.00    -0.020 C 
HETATM    9  C11 UNL     1      21.664  30.106  16.215  1.00  0.00    -0.087 C 
HETATM   10  C12 UNL     1      20.958  30.395  17.526  1.00  0.00     0.043 C 
BRANCH   9  11
HETATM   11  C13 UNL     1      22.850  29.232  16.199  1.00  0.00     0.037 C 
BRANCH  11  12
HETATM   12  C14 UNL     1      23.485  28.918  17.500  1.00  0.00     0.031 C 
BRANCH  12  13
HETATM   13  C15 UNL     1      24.881  29.310  17.690  1.00  0.00    -0.024 C 
HETATM   14  C16 UNL     1      25.365  29.924  18.749  1.00  0.00    -0.091 C 
HETATM   15  C17 UNL     1      26.798  30.270  18.826  1.00  0.00     0.042 C 
HETATM   16  C18 UNL     1      24.474  30.273  19.874  1.00  0.00     0.042 C 
ENDBRANCH  12  13
ENDBRANCH  11  12
ENDBRANCH   9  11
ENDBRANCH   7   8
ENDBRANCH   4   7
BRANCH   3  17
HETATM   17  O5  UNL     1      19.518  32.023  12.422  1.00  0.00    -0.360 OA
ATOM     18  H5  UNL     1      19.121  31.896  11.568  1.00  0.00     0.217 HD
ENDBRANCH   3  17
BRANCH   5  19
HETATM   19  O6  UNL     1      24.075  31.706  13.848  1.00  0.00    -0.359 OA
ATOM     20  H6  UNL     1      24.898  32.133  14.056  1.00  0.00     0.217 HD
ENDBRANCH   5  19
BRANCH   6  21
HETATM   21  C21 UNL     1      24.731  34.243  12.701  1.00  0.00     0.072 C 
BRANCH  21  22
HETATM   22  C22 UNL     1      25.014  35.011  13.929  1.00  0.00    -0.020 C 
HETATM   23  C23 UNL     1      25.267  36.300  14.025  1.00  0.00    -0.091 C 
HETATM   24  C24 UNL     1      25.323  37.269  12.903  1.00  0.00     0.042 C 
HETATM   25  C25 UNL     1      25.530  36.874  15.403  1.00  0.00     0.042 C 
ENDBRANCH  21  22
ENDBRANCH   6  21
BRANCH   1  26
HETATM   26  O4  UNL     1      22.565  35.568  11.409  1.00  0.00    -0.277 OA
BRANCH  26  27
HETATM   27  C4  UNL     1      21.770  36.678  11.760  1.00  0.00     0.288 C 
HETATM   28  O3  UNL     1      21.392  36.693  12.965  1.00  0.00    -0.262 OA
BRANCH  27  29
HETATM   29  C3  UNL     1      21.397  37.749  10.805  1.00  0.00     0.290 C 
BRANCH  29  30
HETATM   30  O2  UNL     1      22.446  38.174   9.983  1.00  0.00    -0.312 OA
BRANCH  30  31
HETATM   31  C2  UNL     1      22.890  39.467   9.952  1.00  0.00     0.255 C 
HETATM   32  C1  UNL     1      24.269  39.839   9.477  1.00  0.00     0.126 C 
HETATM   33  O1  UNL     1      22.128  40.384  10.331  1.00  0.00    -0.266 OA
ENDBRANCH  30  31
ENDBRANCH  29  30
ENDBRANCH  27  29
ENDBRANCH  26  27
ENDBRANCH   1  26
TORSDOF 14
ENDMDL
MODEL 4
REMARK VINA RESULT: -7.186600040      2.355      3.975
REMARK  14 active torsions:
REMARK  status: ('A' for Active; 'I' for Inactive)
REMARK    1  A    between atoms: C2_2  and  O2_4 
REMARK    2  A    between atoms: O2_4  and  C3_5 
REMARK    3  A    between atoms: C3_5  and  C4_6 
REMARK    4  A    between atoms: C4_6  and  O4_8 
REMARK    5  A    between atoms: O4_8  and  C5_9 
REMARK    6  A    between atoms: C7_11  and  O5_12 
REMARK    7  A    between atoms: C8_14  and  C9_15 
REMARK    8  A    between atoms: C9_15  and  C10_16 
REMARK    9  A    between atoms: C11_17  and  C13_19 
REMARK   10  A    between atoms: C13_19  and  C14_20 
REMARK   11  A    between atoms: C14_20  and  C15_21 
REMARK   12  A    between atoms: C19_25  and  O6_26 
REMARK   13  A    between atoms: C20_28  and  C21_29 
REMARK   14  A    between atoms: C21_29  and  C22_30 
ROOT
HETATM    1  C5  UNL     1      21.508  32.731  12.294  1.00  0.00     0.091 A 
HETATM    2  C6  UNL     1      20.625  31.704  12.646  1.00  0.00     0.075 A 
HETATM    3  C7  UNL     1      21.066  30.590  13.366  1.00  0.00     0.077 A 
HETATM    4  C8  UNL     1      22.378  30.546  13.703  1.00  0.00     0.012 A 
HETATM    5  C19 UNL     1      23.280  31.559  13.363  1.00  0.00     0.084 A 
HETATM    6  C20 UNL     1      22.820  32.669  12.642  1.00  0.00     0.013 A 
ENDROOT
BRANCH   4   7
HETATM    7  C9  UNL     1      22.922  29.336  14.435  1.00  0.00     0.072 C 
BRANCH   7   8
HETATM    8  C10 UNL     1      22.470  29.313  15.836  1.00  0.00    -0.020 C 
HETATM    9  C11 UNL     1      23.130  29.332  16.965  1.00  0.00    -0.087 C 
HETATM   10  C12 UNL     1      22.340  29.300  18.260  1.00  0.00     0.043 C 
BRANCH   9  11
HETATM   11  C13 UNL     1      24.602  29.321  17.004  1.00  0.00     0.037 C 
BRANCH  11  12
HETATM   12  C14 UNL     1      25.249  28.986  18.294  1.00  0.00     0.031 C 
BRANCH  12  13
HETATM   13  C15 UNL     1      26.266  29.904  18.806  1.00  0.00    -0.024 C 
HETATM   14  C16 UNL     1      26.091  30.769  19.781  1.00  0.00    -0.091 C 
HETATM   15  C17 UNL     1      27.198  31.648  20.212  1.00  0.00     0.042 C 
HETATM   16  C18 UNL     1      24.781  30.870  20.457  1.00  0.00     0.042 C 
ENDBRANCH  12  13
ENDBRANCH  11  12
ENDBRANCH   9  11
ENDBRANCH   7   8
ENDBRANCH   4   7
BRANCH   3  17
HETATM   17  O5  UNL     1      20.160  29.596  13.703  1.00  0.00    -0.360 OA
ATOM     18  H5  UNL     1      20.347  29.026  14.440  1.00  0.00     0.217 HD
ENDBRANCH   3  17
BRANCH   5  19
HETATM   19  O6  UNL     1      24.581  31.428  13.748  1.00  0.00    -0.359 OA
ATOM     20  H6  UNL     1      25.257  31.791  13.189  1.00  0.00     0.217 HD
ENDBRANCH   5  19
BRANCH   6  21
HETATM   21  C21 UNL     1      23.762  33.739  12.274  1.00  0.00     0.072 C 
BRANCH  21  22
HETATM   22  C22 UNL     1      23.980  34.760  13.317  1.00  0.00    -0.020 C 
HETATM   23  C23 UNL     1      25.121  35.090  13.886  1.00  0.00    -0.091 C 
HETATM   24  C24 UNL     1      26.450  34.498  13.596  1.00  0.00     0.042 C 
HETATM   25  C25 UNL     1      25.102  36.178  14.943  1.00  0.00     0.042 C 
ENDBRANCH  21  22
ENDBRANCH   6  21
BRANCH   1  26
HETATM   26  O4  UNL     1      21.000  33.799  11.579  1.00  0.00    -0.277 OA
BRANCH  26  27
HETATM   27  C4  UNL     1      20.418  34.901  12.239  1.00  0.00     0.288 C 
HETATM   28  O3  UNL     1      19.327  34.648  12.822  1.00  0.00    -0.262 OA
BRANCH  27  29
HETATM   29  C3  UNL     1      21.025  36.253  12.257  1.00  0.00     0.290 C 
BRANCH  29  30
HETATM   30  O2  UNL     1      21.846  36.527  11.158  1.00  0.00    -0.312 OA
BRANCH  30  31
HETATM   31  C2  UNL     1      22.018  37.786  10.652  1.00  0.00     0.255 C 
HETATM   32  C1  UNL     1      23.376  38.354  10.338  1.00  0.00     0.126 C 
HETATM   33  O1  UNL     1      21.014  38.501  10.437  1.00  0.00    -0.266 OA
ENDBRANCH  30  31
ENDBRANCH  29  30
ENDBRANCH  27  29
ENDBRANCH  26  27
ENDBRANCH   1  26
TORSDOF 14
ENDMDL
MODEL 5
REMARK VINA RESULT: -7.185828778      1.323      2.339
REMARK  14 active torsions:
REMARK  status: ('A' for Active; 'I' for Inactive)
REMARK    1  A    between atoms: C2_2  and  O2_4 
REMARK    2  A    between atoms: O2_4  and  C3_5 
REMARK    3  A    between atoms: C3_5  and  C4_6 
REMARK    4  A    between atoms: C4_6  and  O4_8 
REMARK    5  A    between atoms: O4_8  and  C5_9 
REMARK    6  A    between atoms: C7_11  and  O5_12 
REMARK    7  A    between atoms: C8_14  and  C9_15 
REMARK    8  A    between atoms: C9_15  and  C10_16 
REMARK    9  A    between atoms: C11_17  and  C13_19 
REMARK   10  A    between atoms: C13_19  and  C14_20 
REMARK   11  A    between atoms: C14_20  and  C15_21 
REMARK   12  A    between atoms: C19_25  and  O6_26 
REMARK   13  A    between atoms: C20_28  and  C21_29 
REMARK   14  A    between atoms: C21_29  and  C22_30 
ROOT
HETATM    1  C5  UNL     1      21.819  31.653  14.548  1.00  0.00     0.091 A 
HETATM    2  C6  UNL     1      20.974  31.707  15.662  1.00  0.00     0.075 A 
HETATM    3  C7  UNL     1      21.033  30.729  16.658  1.00  0.00     0.077 A 
HETATM    4  C8  UNL     1      21.937  29.732  16.500  1.00  0.00     0.012 A 
HETATM    5  C19 UNL     1      22.793  29.656  15.396  1.00  0.00     0.084 A 
HETATM    6  C20 UNL     1      22.720  30.646  14.407  1.00  0.00     0.013 A 
ENDROOT
BRANCH   4   7
HETATM    7  C9  UNL     1      22.006  28.616  17.521  1.00  0.00     0.072 C 
BRANCH   7   8
HETATM    8  C10 UNL     1      22.885  28.976  18.646  1.00  0.00    -0.020 C 
HETATM    9  C11 UNL     1      24.007  28.459  19.075  1.00  0.00    -0.087 C 
HETATM   10  C12 UNL     1      24.672  29.087  20.285  1.00  0.00     0.043 C 
BRANCH   9  11
HETATM   11  C13 UNL     1      24.597  27.260  18.455  1.00  0.00     0.037 C 
BRANCH  11  12
HETATM   12  C14 UNL     1      26.059  27.261  18.218  1.00  0.00     0.031 C 
BRANCH  12  13
HETATM   13  C15 UNL     1      26.526  27.256  16.832  1.00  0.00    -0.024 C 
HETATM   14  C16 UNL     1      26.848  28.322  16.131  1.00  0.00    -0.091 C 
HETATM   15  C17 UNL     1      27.308  28.190  14.733  1.00  0.00     0.042 C 
HETATM   16  C18 UNL     1      26.752  29.665  16.737  1.00  0.00     0.042 C 
ENDBRANCH  12  13
ENDBRANCH  11  12
ENDBRANCH   9  11
ENDBRANCH   7   8
ENDBRANCH   4   7
BRANCH   3  17
HETATM   17  O5  UNL     1      20.184  30.820  17.751  1.00  0.00    -0.360 OA
ATOM     18  H5  UNL     1      20.033  31.668  18.153  1.00  0.00     0.217 HD
ENDBRANCH   3  17
BRANCH   5  19
HETATM   19  O6  UNL     1      23.671  28.617  15.324  1.00  0.00    -0.359 OA
ATOM     20  H6  UNL     1      24.598  28.799  15.420  1.00  0.00     0.217 HD
ENDBRANCH   5  19
BRANCH   6  21
HETATM   21  C21 UNL     1      23.613  30.573  13.238  1.00  0.00     0.072 C 
BRANCH  21  22
HETATM   22  C22 UNL     1      25.038  30.824  13.529  1.00  0.00    -0.020 C 
HETATM   23  C23 UNL     1      25.679  31.971  13.449  1.00  0.00    -0.091 C 
HETATM   24  C24 UNL     1      25.099  33.275  13.042  1.00  0.00     0.042 C 
HETATM   25  C25 UNL     1      27.154  31.989  13.801  1.00  0.00     0.042 C 
ENDBRANCH  21  22
ENDBRANCH   6  21
BRANCH   1  26
HETATM   26  O4  UNL     1      21.701  32.654  13.601  1.00  0.00    -0.277 OA
BRANCH  26  27
HETATM   27  C4  UNL     1      20.471  32.904  12.960  1.00  0.00     0.288 C 
HETATM   28  O3  UNL     1      19.873  31.869  12.552  1.00  0.00    -0.262 OA
BRANCH  27  29
HETATM   29  C3  UNL     1      19.911  34.263  12.771  1.00  0.00     0.290 C 
BRANCH  29  30
HETATM   30  O2  UNL     1      20.531  35.002  11.758  1.00  0.00    -0.312 OA
BRANCH  30  31
HETATM   31  C2  UNL     1      21.483  35.953  12.006  1.00  0.00     0.255 C 
HETATM   32  C1  UNL     1      22.880  35.863  11.454  1.00  0.00     0.126 C 
HETATM   33  O1  UNL     1      21.190  36.939  12.717  1.00  0.00    -0.266 OA
ENDBRANCH  30  31
ENDBRANCH  29  30
ENDBRANCH  27  29
ENDBRANCH  26  27
ENDBRANCH   1  26
TORSDOF 14
ENDMDL
