MODEL 1
REMARK VINA RESULT: -7.356181539      0.000      0.000
REMARK  13 active torsions:
REMARK  status: ('A' for Active; 'I' for Inactive)
REMARK    1  A    between atoms: O1_2  and  C2_3 
REMARK    2  A    between atoms: C2_3  and  C3_5 
REMARK    3  A    between atoms: C4_6  and  C5_7 
REMARK    4  A    between atoms: C4_6  and  C11_13 
REMARK    5  A    between atoms: C5_7  and  C6_8 
REMARK    6  A    between atoms: C6_8  and  C7_9 
REMARK    7  A    between atoms: C11_13  and  C12_14 
REMARK    8  A    between atoms: C13_15  and  O3_16 
REMARK    9  A    between atoms: C14_18  and  C15_19 
REMARK   10  A    between atoms: C16_22  and  O6_23 
REMARK   11  A    between atoms: C17_25  and  C18_26 
REMARK   12  A    between atoms: C18_26  and  C19_27 
REMARK   13  A    between atoms: C23_31  and  O7_32 
ROOT
HETATM    1  C12 UNL     1      23.059  30.726  13.873  1.00  0.00     0.014 A 
HETATM    2  C13 UNL     1      21.744  31.143  13.574  1.00  0.00     0.095 A 
HETATM    3  C14 UNL     1      21.490  32.410  13.032  1.00  0.00     0.108 A 
HETATM    4  C16 UNL     1      22.569  33.273  12.786  1.00  0.00     0.094 A 
HETATM    5  C17 UNL     1      23.872  32.828  13.095  1.00  0.00     0.014 A 
HETATM    6  C23 UNL     1      24.083  31.586  13.623  1.00  0.00     0.086 A 
ENDROOT
BRANCH   1   7
HETATM    7  C11 UNL     1      23.286  29.401  14.441  1.00  0.00     0.082 C 
BRANCH   7   8
HETATM    8  C4  UNL     1      23.581  29.400  15.916  1.00  0.00    -0.051 C 
HETATM    9  C3  UNL     1      22.694  29.631  16.819  1.00  0.00     0.089 C 
BRANCH   9  10
HETATM   10  C2  UNL     1      21.290  29.914  16.750  1.00  0.00     0.282 C 
HETATM   11  O2  UNL     1      20.940  31.164  16.798  1.00  0.00    -0.260 OA
BRANCH  10  12
HETATM   12  O1  UNL     1      20.227  29.065  16.639  1.00  0.00    -0.323 OA
HETATM   13  C1  UNL     1      19.251  28.864  17.611  1.00  0.00     0.213 C 
ENDBRANCH  10  12
ENDBRANCH   9  10
BRANCH   8  14
HETATM   14  C5  UNL     1      24.988  29.131  16.225  1.00  0.00    -0.015 C 
BRANCH  14  15
HETATM   15  C6  UNL     1      25.491  28.802  17.547  1.00  0.00     0.055 C 
BRANCH  15  16
HETATM   16  C7  UNL     1      26.164  29.863  18.321  1.00  0.00    -0.021 C 
HETATM   17  C8  UNL     1      25.659  30.311  19.451  1.00  0.00    -0.091 C 
HETATM   18  C9  UNL     1      24.388  29.761  19.990  1.00  0.00     0.042 C 
HETATM   19  C10 UNL     1      26.360  31.386  20.210  1.00  0.00     0.042 C 
ENDBRANCH  15  16
ENDBRANCH  14  15
ENDBRANCH   8  14
ENDBRANCH   7   8
ENDBRANCH   1   7
BRANCH   2  20
HETATM   20  O3  UNL     1      20.774  30.257  13.839  1.00  0.00    -0.359 OA
ATOM     21  H3  UNL     1      20.234  30.446  14.598  1.00  0.00     0.217 HD
ENDBRANCH   2  20
BRANCH   6  22
HETATM   22  O7  UNL     1      25.376  31.194  13.908  1.00  0.00    -0.355 OA
HETATM   23  C24 UNL     1      26.258  30.567  13.003  1.00  0.00     0.210 C 
ENDBRANCH   6  22
BRANCH   3  24
HETATM   24  C15 UNL     1      20.141  32.845  12.723  1.00  0.00     0.215 C 
HETATM   25  O4  UNL     1      19.274  32.008  12.382  1.00  0.00    -0.644 OA
HETATM   26  O5  UNL     1      19.721  34.151  12.777  1.00  0.00    -0.644 OA
ENDBRANCH   3  24
BRANCH   5  27
HETATM   27  C18 UNL     1      24.990  33.767  12.810  1.00  0.00     0.072 C 
BRANCH  27  28
HETATM   28  C19 UNL     1      25.272  34.693  13.929  1.00  0.00    -0.020 C 
HETATM   29  C20 UNL     1      25.230  35.997  13.910  1.00  0.00    -0.091 C 
HETATM   30  C21 UNL     1      24.884  36.859  12.754  1.00  0.00     0.042 C 
HETATM   31  C22 UNL     1      25.563  36.742  15.185  1.00  0.00     0.042 C 
ENDBRANCH  27  28
ENDBRANCH   5  27
BRANCH   4  32
HETATM   32  O6  UNL     1      22.415  34.493  12.276  1.00  0.00    -0.359 OA
ATOM     33  H6  UNL     1      23.062  34.900  11.711  1.00  0.00     0.217 HD
ENDBRANCH   4  32
TORSDOF 13
ENDMDL
MODEL 2
REMARK VINA RESULT: -7.266964257      1.272      5.991
REMARK  13 active torsions:
REMARK  status: ('A' for Active; 'I' for Inactive)
REMARK    1  A    between atoms: O1_2  and  C2_3 
REMARK    2  A    between atoms: C2_3  and  C3_5 
REMARK    3  A    between atoms: C4_6  and  C5_7 
REMARK    4  A    between atoms: C4_6  and  C11_13 
REMARK    5  A    between atoms: C5_7  and  C6_8 
REMARK    6  A    between atoms: C6_8  and  C7_9 
REMARK    7  A    between atoms: C11_13  and  C12_14 
REMARK    8  A    between atoms: C13_15  and  O3_16 
REMARK    9  A    between atoms: C14_18  and  C15_19 
REMARK   10  A    between atoms: C16_22  and  O6_23 
REMARK   11  A    between atoms: C17_25  and  C18_26 
REMARK   12  A    between atoms: C18_26  and  C19_27 
REMARK   13  A    between atoms: C23_31  and  O7_32 
ROOT
HETATM    1  C12 UNL     1      23.138  30.067  14.663  1.00  0.00     0.014 A 
HETATM    2  C13 UNL     1      21.909  30.140  15.353  1.00  0.00     0.095 A 
HETATM    3  C14 UNL     1      21.820  29.815  16.714  1.00  0.00     0.108 A 
HETATM    4  C16 UNL     1      22.979  29.409  17.393  1.00  0.00     0.094 A 
HETATM    5  C17 UNL     1      24.193  29.346  16.677  1.00  0.00     0.014 A 
HETATM    6  C23 UNL     1      24.243  29.671  15.351  1.00  0.00     0.086 A 
ENDROOT
BRANCH   1   7
HETATM    7  C11 UNL     1      23.193  30.410  13.246  1.00  0.00     0.082 C 
BRANCH   7   8
HETATM    8  C4  UNL     1      23.404  31.874  12.970  1.00  0.00    -0.051 C 
HETATM    9  C3  UNL     1      22.523  32.627  12.411  1.00  0.00     0.089 C 
BRANCH   9  10
HETATM   10  C2  UNL     1      21.194  32.375  11.935  1.00  0.00     0.282 C 
HETATM   11  O2  UNL     1      21.080  31.623  10.882  1.00  0.00    -0.260 OA
BRANCH  10  12
HETATM   12  O1  UNL     1      19.992  32.807  12.416  1.00  0.00    -0.323 OA
HETATM   13  C1  UNL     1      19.771  34.021  13.062  1.00  0.00     0.213 C 
ENDBRANCH  10  12
ENDBRANCH   9  10
BRANCH   8  14
HETATM   14  C5  UNL     1      24.726  32.357  13.380  1.00  0.00    -0.015 C 
BRANCH  14  15
HETATM   15  C6  UNL     1      25.349  33.570  12.882  1.00  0.00     0.055 C 
BRANCH  15  16
HETATM   16  C7  UNL     1      25.771  34.589  13.861  1.00  0.00    -0.021 C 
HETATM   17  C8  UNL     1      25.104  35.715  14.010  1.00  0.00    -0.091 C 
HETATM   18  C9  UNL     1      23.895  35.998  13.193  1.00  0.00     0.042 C 
HETATM   19  C10 UNL     1      25.556  36.727  15.007  1.00  0.00     0.042 C 
ENDBRANCH  15  16
ENDBRANCH  14  15
ENDBRANCH   8  14
ENDBRANCH   7   8
ENDBRANCH   1   7
BRANCH   2  20
HETATM   20  O3  UNL     1      20.853  30.537  14.630  1.00  0.00    -0.359 OA
ATOM     21  H3  UNL     1      20.003  30.241  14.937  1.00  0.00     0.217 HD
ENDBRANCH   2  20
BRANCH   6  22
HETATM   22  O7  UNL     1      25.454  29.595  14.692  1.00  0.00    -0.355 OA
HETATM   23  C24 UNL     1      25.889  28.508  13.904  1.00  0.00     0.210 C 
ENDBRANCH   6  22
BRANCH   3  24
HETATM   24  C15 UNL     1      20.559  29.887  17.429  1.00  0.00     0.215 C 
HETATM   25  O4  UNL     1      20.433  30.665  18.402  1.00  0.00    -0.644 OA
HETATM   26  O5  UNL     1      19.450  29.142  17.112  1.00  0.00    -0.644 OA
ENDBRANCH   3  24
BRANCH   5  27
HETATM   27  C18 UNL     1      25.401  28.923  17.435  1.00  0.00     0.072 C 
BRANCH  27  28
HETATM   28  C19 UNL     1      26.034  30.030  18.185  1.00  0.00    -0.020 C 
HETATM   29  C20 UNL     1      26.289  30.079  19.464  1.00  0.00    -0.091 C 
HETATM   30  C21 UNL     1      26.004  29.025  20.468  1.00  0.00     0.042 C 
HETATM   31  C22 UNL     1      26.945  31.326  20.015  1.00  0.00     0.042 C 
ENDBRANCH  27  28
ENDBRANCH   5  27
BRANCH   4  32
HETATM   32  O6  UNL     1      22.980  29.080  18.683  1.00  0.00    -0.359 OA
ATOM     33  H6  UNL     1      23.045  29.724  19.378  1.00  0.00     0.217 HD
ENDBRANCH   4  32
TORSDOF 13
ENDMDL
MODEL 3
REMARK VINA RESULT: -7.194152494      2.201      6.178
REMARK  13 active torsions:
REMARK  status: ('A' for Active; 'I' for Inactive)
REMARK    1  A    between atoms: O1_2  and  C2_3 
REMARK    2  A    between atoms: C2_3  and  C3_5 
REMARK    3  A    between atoms: C4_6  and  C5_7 
REMARK    4  A    between atoms: C4_6  and  C11_13 
REMARK    5  A    between atoms: C5_7  and  C6_8 
REMARK    6  A    between atoms: C6_8  and  C7_9 
REMARK    7  A    between atoms: C11_13  and  C12_14 
REMARK    8  A    between atoms: C13_15  and  O3_16 
REMARK    9  A    between atoms: C14_18  and  C15_19 
REMARK   10  A    between atoms: C16_22  and  O6_23 
REMARK   11  A    between atoms: C17_25  and  C18_26 
REMARK   12  A    between atoms: C18_26  and  C19_27 
REMARK   13  A    between atoms: C23_31  and  O7_32 
ROOT
HETATM    1  C12 UNL     1      23.760  29.447  15.430  1.00  0.00     0.014 A 
HETATM    2  C13 UNL     1      22.419  29.594  15.846  1.00  0.00     0.095 A 
HETATM    3  C14 UNL     1      22.071  29.546  17.203  1.00  0.00     0.108 A 
HETATM    4  C16 UNL     1      23.080  29.347  18.157  1.00  0.00     0.094 A 
HETATM    5  C17 UNL     1      24.411  29.204  17.711  1.00  0.00     0.014 A 
HETATM    6  C23 UNL     1      24.715  29.256  16.380  1.00  0.00     0.086 A 
ENDROOT
BRANCH   1   7
HETATM    7  C11 UNL     1      24.086  29.499  14.009  1.00  0.00     0.082 C 
BRANCH   7   8
HETATM    8  C4  UNL     1      24.627  30.824  13.544  1.00  0.00    -0.051 C 
HETATM    9  C3  UNL     1      23.883  31.821  13.217  1.00  0.00     0.089 C 
BRANCH   9  10
HETATM   10  C2  UNL     1      22.461  32.006  13.200  1.00  0.00     0.282 C 
HETATM   11  O2  UNL     1      21.954  32.743  14.141  1.00  0.00    -0.260 OA
BRANCH  10  12
HETATM   12  O1  UNL     1      21.522  31.522  12.336  1.00  0.00    -0.323 OA
HETATM   13  C1  UNL     1      20.326  32.154  12.007  1.00  0.00     0.213 C 
ENDBRANCH  10  12
ENDBRANCH   9  10
BRANCH   8  14
HETATM   14  C5  UNL     1      26.091  30.861  13.478  1.00  0.00    -0.015 C 
BRANCH  14  15
HETATM   15  C6  UNL     1      26.873  30.445  12.328  1.00  0.00     0.055 C 
BRANCH  15  16
HETATM   16  C7  UNL     1      27.494  29.107  12.354  1.00  0.00    -0.021 C 
HETATM   17  C8  UNL     1      27.036  28.124  11.607  1.00  0.00    -0.091 C 
HETATM   18  C9  UNL     1      25.874  28.330  10.704  1.00  0.00     0.042 C 
HETATM   19  C10 UNL     1      27.684  26.782  11.657  1.00  0.00     0.042 C 
ENDBRANCH  15  16
ENDBRANCH  14  15
ENDBRANCH   8  14
ENDBRANCH   7   8
ENDBRANCH   1   7
BRANCH   2  20
HETATM   20  O3  UNL     1      21.520  29.781  14.870  1.00  0.00    -0.359 OA
ATOM     21  H3  UNL     1      20.838  30.419  15.049  1.00  0.00     0.217 HD
ENDBRANCH   2  20
BRANCH   6  22
HETATM   22  O7  UNL     1      26.032  29.112  15.991  1.00  0.00    -0.355 OA
HETATM   23  C24 UNL     1      26.676  27.884  15.728  1.00  0.00     0.210 C 
ENDBRANCH   6  22
BRANCH   3  24
HETATM   24  C15 UNL     1      20.695  29.695  17.637  1.00  0.00     0.215 C 
HETATM   25  O4  UNL     1      20.374  30.639  18.395  1.00  0.00    -0.644 OA
HETATM   26  O5  UNL     1      19.675  28.853  17.268  1.00  0.00    -0.644 OA
ENDBRANCH   3  24
BRANCH   5  27
HETATM   27  C18 UNL     1      25.454  29.006  18.754  1.00  0.00     0.072 C 
BRANCH  27  28
HETATM   28  C19 UNL     1      25.985  30.277  19.293  1.00  0.00    -0.020 C 
HETATM   29  C20 UNL     1      25.939  30.696  20.528  1.00  0.00    -0.091 C 
HETATM   30  C21 UNL     1      25.342  29.987  21.686  1.00  0.00     0.042 C 
HETATM   31  C22 UNL     1      26.550  32.043  20.850  1.00  0.00     0.042 C 
ENDBRANCH  27  28
ENDBRANCH   5  27
BRANCH   4  32
HETATM   32  O6  UNL     1      22.835  29.286  19.464  1.00  0.00    -0.359 OA
ATOM     33  H6  UNL     1      23.524  29.290  20.118  1.00  0.00     0.217 HD
ENDBRANCH   4  32
TORSDOF 13
ENDMDL
MODEL 4
REMARK VINA RESULT: -7.122907417      1.022      1.300
REMARK  13 active torsions:
REMARK  status: ('A' for Active; 'I' for Inactive)
REMARK    1  A    between atoms: O1_2  and  C2_3 
REMARK    2  A    between atoms: C2_3  and  C3_5 
REMARK    3  A    between atoms: C4_6  and  C5_7 
REMARK    4  A    between atoms: C4_6  and  C11_13 
REMARK    5  A    between atoms: C5_7  and  C6_8 
REMARK    6  A    between atoms: C6_8  and  C7_9 
REMARK    7  A    between atoms: C11_13  and  C12_14 
REMARK    8  A    between atoms: C13_15  and  O3_16 
REMARK    9  A    between atoms: C14_18  and  C15_19 
REMARK   10  A    between atoms: C16_22  and  O6_23 
REMARK   11  A    between atoms: C17_25  and  C18_26 
REMARK   12  A    between atoms: C18_26  and  C19_27 
REMARK   13  A    between atoms: C23_31  and  O7_32 
ROOT
HETATM    1  C12 UNL     1      23.115  30.381  13.746  1.00  0.00     0.014 A 
HETATM    2  C13 UNL     1      21.870  30.945  13.395  1.00  0.00     0.095 A 
HETATM    3  C14 UNL     1      21.793  32.084  12.581  1.00  0.00     0.108 A 
HETATM    4  C16 UNL     1      22.981  32.665  12.112  1.00  0.00     0.094 A 
HETATM    5  C17 UNL     1      24.210  32.079  12.480  1.00  0.00     0.014 A 
HETATM    6  C23 UNL     1      24.248  30.969  13.275  1.00  0.00     0.086 A 
ENDROOT
BRANCH   1   7
HETATM    7  C11 UNL     1      23.158  29.197  14.599  1.00  0.00     0.082 C 
BRANCH   7   8
HETATM    8  C4  UNL     1      23.447  29.486  16.047  1.00  0.00    -0.051 C 
HETATM    9  C3  UNL     1      22.549  29.854  16.892  1.00  0.00     0.089 C 
BRANCH   9  10
HETATM   10  C2  UNL     1      21.137  30.072  16.774  1.00  0.00     0.282 C 
HETATM   11  O2  UNL     1      20.735  31.306  16.736  1.00  0.00    -0.260 OA
BRANCH  10  12
HETATM   12  O1  UNL     1      20.114  29.173  16.693  1.00  0.00    -0.323 OA
HETATM   13  C1  UNL     1      19.140  28.970  17.667  1.00  0.00     0.213 C 
ENDBRANCH  10  12
ENDBRANCH   9  10
BRANCH   8  14
HETATM   14  C5  UNL     1      24.861  29.328  16.398  1.00  0.00    -0.015 C 
BRANCH  14  15
HETATM   15  C6  UNL     1      25.344  28.942  17.711  1.00  0.00     0.055 C 
BRANCH  15  16
HETATM   16  C7  UNL     1      26.247  29.867  18.422  1.00  0.00    -0.021 C 
HETATM   17  C8  UNL     1      25.845  30.540  19.480  1.00  0.00    -0.091 C 
HETATM   18  C9  UNL     1      24.461  30.389  19.999  1.00  0.00     0.042 C 
HETATM   19  C10 UNL     1      26.780  31.470  20.175  1.00  0.00     0.042 C 
ENDBRANCH  15  16
ENDBRANCH  14  15
ENDBRANCH   8  14
ENDBRANCH   7   8
ENDBRANCH   1   7
BRANCH   2  20
HETATM   20  O3  UNL     1      20.787  30.327  13.885  1.00  0.00    -0.359 OA
ATOM     21  H3  UNL     1      20.953  29.596  14.470  1.00  0.00     0.217 HD
ENDBRANCH   2  20
BRANCH   6  22
HETATM   22  O7  UNL     1      25.474  30.429  13.608  1.00  0.00    -0.355 OA
HETATM   23  C24 UNL     1      26.145  29.417  12.888  1.00  0.00     0.210 C 
ENDBRANCH   6  22
BRANCH   3  24
HETATM   24  C15 UNL     1      20.517  32.669  12.216  1.00  0.00     0.215 C 
HETATM   25  O4  UNL     1      19.476  31.973  12.241  1.00  0.00    -0.644 OA
HETATM   26  O5  UNL     1      20.350  33.977  11.833  1.00  0.00    -0.644 OA
ENDBRANCH   3  24
BRANCH   5  27
HETATM   27  C18 UNL     1      25.446  32.718  11.954  1.00  0.00     0.072 C 
BRANCH  27  28
HETATM   28  C19 UNL     1      25.871  33.896  12.742  1.00  0.00    -0.020 C 
HETATM   29  C20 UNL     1      26.844  33.961  13.609  1.00  0.00    -0.091 C 
HETATM   30  C21 UNL     1      27.757  32.862  14.006  1.00  0.00     0.042 C 
HETATM   31  C22 UNL     1      27.097  35.282  14.303  1.00  0.00     0.042 C 
ENDBRANCH  27  28
ENDBRANCH   5  27
BRANCH   4  32
HETATM   32  O6  UNL     1      22.996  33.749  11.337  1.00  0.00    -0.359 OA
ATOM     33  H6  UNL     1      22.466  33.827  10.553  1.00  0.00     0.217 HD
ENDBRANCH   4  32
TORSDOF 13
ENDMDL
MODEL 5
REMARK VINA RESULT: -7.121307079      2.455      6.735
REMARK  13 active torsions:
REMARK  status: ('A' for Active; 'I' for Inactive)
REMARK    1  A    between atoms: O1_2  and  C2_3 
REMARK    2  A    between atoms: C2_3  and  C3_5 
REMARK    3  A    between atoms: C4_6  and  C5_7 
REMARK    4  A    between atoms: C4_6  and  C11_13 
REMARK    5  A    between atoms: C5_7  and  C6_8 
REMARK    6  A    between atoms: C6_8  and  C7_9 
REMARK    7  A    between atoms: C11_13  and  C12_14 
REMARK    8  A    between atoms: C13_15  and  O3_16 
REMARK    9  A    between atoms: C14_18  and  C15_19 
REMARK   10  A    between atoms: C16_22  and  O6_23 
REMARK   11  A    between atoms: C17_25  and  C18_26 
REMARK   12  A    between atoms: C18_26  and  C19_27 
REMARK   13  A    between atoms: C23_31  and  O7_32 
ROOT
HETATM    1  C12 UNL     1      23.738  29.342  15.382  1.00  0.00     0.014 A 
HETATM    2  C13 UNL     1      22.404  29.526  15.806  1.00  0.00     0.095 A 
HETATM    3  C14 UNL     1      22.069  29.539  17.167  1.00  0.00     0.108 A 
HETATM    4  C16 UNL     1      23.086  29.364  18.118  1.00  0.00     0.094 A 
HETATM    5  C17 UNL     1      24.410  29.183  17.665  1.00  0.00     0.014 A 
HETATM    6  C23 UNL     1      24.700  29.176  16.330  1.00  0.00     0.086 A 
ENDROOT
BRANCH   1   7
HETATM    7  C11 UNL     1      24.049  29.330  13.957  1.00  0.00     0.082 C 
BRANCH   7   8
HETATM    8  C4  UNL     1      24.708  30.586  13.455  1.00  0.00    -0.051 C 
HETATM    9  C3  UNL     1      25.879  30.612  12.924  1.00  0.00     0.089 C 
BRANCH   9  10
HETATM   10  C2  UNL     1      26.838  29.584  12.639  1.00  0.00     0.282 C 
HETATM   11  O2  UNL     1      28.016  29.718  13.168  1.00  0.00    -0.260 OA
BRANCH  10  12
HETATM   12  O1  UNL     1      26.716  28.455  11.883  1.00  0.00    -0.323 OA
HETATM   13  C1  UNL     1      25.948  28.337  10.728  1.00  0.00     0.213 C 
ENDBRANCH  10  12
ENDBRANCH   9  10
BRANCH   8  14
HETATM   14  C5  UNL     1      23.892  31.788  13.653  1.00  0.00    -0.015 C 
BRANCH  14  15
HETATM   15  C6  UNL     1      23.330  32.586  12.579  1.00  0.00     0.055 C 
BRANCH  15  16
HETATM   16  C7  UNL     1      22.222  33.506  12.900  1.00  0.00    -0.021 C 
HETATM   17  C8  UNL     1      20.986  33.246  12.530  1.00  0.00    -0.091 C 
HETATM   18  C9  UNL     1      20.661  32.010  11.772  1.00  0.00     0.042 C 
HETATM   19  C10 UNL     1      19.888  34.197  12.867  1.00  0.00     0.042 C 
ENDBRANCH  15  16
ENDBRANCH  14  15
ENDBRANCH   8  14
ENDBRANCH   7   8
ENDBRANCH   1   7
BRANCH   2  20
HETATM   20  O3  UNL     1      21.496  29.685  14.833  1.00  0.00    -0.359 OA
ATOM     21  H3  UNL     1      20.891  30.410  14.942  1.00  0.00     0.217 HD
ENDBRANCH   2  20
BRANCH   6  22
HETATM   22  O7  UNL     1      26.010  28.996  15.934  1.00  0.00    -0.355 OA
HETATM   23  C24 UNL     1      26.663  27.751  15.810  1.00  0.00     0.210 C 
ENDBRANCH   6  22
BRANCH   3  24
HETATM   24  C15 UNL     1      20.700  29.726  17.609  1.00  0.00     0.215 C 
HETATM   25  O4  UNL     1      20.409  30.682  18.364  1.00  0.00    -0.644 OA
HETATM   26  O5  UNL     1      19.656  28.910  17.251  1.00  0.00    -0.644 OA
ENDBRANCH   3  24
BRANCH   5  27
HETATM   27  C18 UNL     1      25.461  29.013  18.704  1.00  0.00     0.072 C 
BRANCH  27  28
HETATM   28  C19 UNL     1      25.964  30.298  19.238  1.00  0.00    -0.020 C 
HETATM   29  C20 UNL     1      25.958  30.698  20.480  1.00  0.00    -0.091 C 
HETATM   30  C21 UNL     1      25.445  29.949  21.653  1.00  0.00     0.042 C 
HETATM   31  C22 UNL     1      26.528  32.064  20.794  1.00  0.00     0.042 C 
ENDBRANCH  27  28
ENDBRANCH   5  27
BRANCH   4  32
HETATM   32  O6  UNL     1      22.854  29.361  19.430  1.00  0.00    -0.359 OA
ATOM     33  H6  UNL     1      23.519  29.134  20.069  1.00  0.00     0.217 HD
ENDBRANCH   4  32
TORSDOF 13
ENDMDL
