MODEL 1
REMARK VINA RESULT: -8.487151529      0.000      0.000
REMARK  7 active torsions:
REMARK  status: ('A' for Active; 'I' for Inactive)
REMARK    1  A    between atoms: C2_2  and  C3_3 
REMARK    2  A    between atoms: C2_2  and  N6_19 
REMARK    3  A    between atoms: C3_3  and  S1_4 
REMARK    4  A    between atoms: S1_4  and  C4_5 
REMARK    5  A    between atoms: C8_13  and  N4_14 
REMARK    6  A    between atoms: N6_19  and  C9_21 
REMARK    7  A    between atoms: C11_26  and  C12_27 
ROOT
HETATM    1  C4  UNL     1     143.370  57.011 129.276  1.00  0.00     0.147 A 
HETATM    2  N1  UNL     1     143.846  57.935 128.422  1.00  0.00    -0.324 N 
ATOM      3  H1  UNL     1     143.194  58.588 127.988  1.00  0.00     0.169 HD
HETATM    4  C5  UNL     1     145.170  58.027 128.118  1.00  0.00     0.142 A 
HETATM    5  N2  UNL     1     145.662  58.997 127.221  1.00  0.00    -0.081 NA
HETATM    6  C6  UNL     1     146.044  57.163 128.693  1.00  0.00     0.129 A 
HETATM    7  C7  UNL     1     147.464  57.180 128.435  1.00  0.00     0.106 C 
HETATM    8  N3  UNL     1     148.597  57.210 128.234  1.00  0.00    -0.191 NA
HETATM    9  C8  UNL     1     145.579  56.204 129.575  1.00  0.00     0.125 A 
HETATM   10  N5  UNL     1     144.265  56.176 129.822  1.00  0.00    -0.322 N 
ATOM     11  H5  UNL     1     143.919  55.470 130.472  1.00  0.00     0.169 HD
ENDROOT
BRANCH   9  12
HETATM   12  N4  UNL     1     146.367  55.360 130.147  1.00  0.00    -0.384 N 
ATOM     13  H42 UNL     1     147.350  55.308 129.878  1.00  0.00     0.157 HD
ATOM     14  H41 UNL     1     146.043  54.726 130.878  1.00  0.00     0.157 HD
ENDBRANCH   9  12
BRANCH   1  15
HETATM   15  S1  UNL     1     141.620  56.910 129.659  1.00  0.00    -0.092 SA
BRANCH  15  16
HETATM   16  C3  UNL     1     140.823  58.438 129.096  1.00  0.00     0.107 C 
BRANCH  16  17
HETATM   17  C2  UNL     1     140.385  59.228 130.306  1.00  0.00     0.088 C 
HETATM   18  C1  UNL     1     138.896  59.069 130.466  1.00  0.00     0.033 C 
BRANCH  17  19
HETATM   19  N6  UNL     1     140.667  60.637 130.113  1.00  0.00    -0.367 N 
ATOM     20  H6  UNL     1     139.979  61.226 129.642  1.00  0.00     0.161 HD
BRANCH  19  21
HETATM   21  C9  UNL     1     141.901  61.220 130.573  1.00  0.00     0.174 C 
HETATM   22  N7  UNL     1     142.851  60.297 130.843  1.00  0.00    -0.305 N 
HETATM   23  C10 UNL     1     143.875  60.295 131.744  1.00  0.00     0.256 C 
ATOM     24  H7  UNL     1     142.791  59.453 130.272  1.00  0.00     0.171 HD
HETATM   25  O1  UNL     1     144.437  59.186 131.859  1.00  0.00    -0.268 OA
HETATM   26  C11 UNL     1     144.467  61.219 132.581  1.00  0.00     0.046 C 
HETATM   27  C15 UNL     1     144.355  62.593 132.613  1.00  0.00     0.089 C 
HETATM   28  C16 UNL     1     143.414  63.548 132.277  1.00  0.00     0.248 C 
HETATM   29  O4  UNL     1     143.524  64.632 132.893  1.00  0.00    -0.268 OA
HETATM   30  N9  UNL     1     142.397  63.531 131.408  1.00  0.00    -0.287 N 
HETATM   31  C17 UNL     1     141.797  62.592 130.621  1.00  0.00     0.292 C 
ATOM     32  H9  UNL     1     141.962  64.448 131.309  1.00  0.00     0.172 HD
HETATM   33  O5  UNL     1     140.995  63.057 129.776  1.00  0.00    -0.264 OA
BRANCH  26  34
HETATM   34  C12 UNL     1     145.345  60.613 133.563  1.00  0.00     0.190 C 
HETATM   35  C13 UNL     1     146.761  61.080 133.582  1.00  0.00     0.162 C 
HETATM   36  N8  UNL     1     147.155  60.863 134.965  1.00  0.00    -0.334 N 
HETATM   37  C14 UNL     1     146.017  60.451 135.675  1.00  0.00     0.361 C 
ATOM     38  H8  UNL     1     148.092  60.988 135.350  1.00  0.00     0.164 HD
HETATM   39  O2  UNL     1     146.017  59.958 136.826  1.00  0.00    -0.238 OA
HETATM   40  O3  UNL     1     144.900  60.679 134.906  1.00  0.00    -0.292 OA
ENDBRANCH  26  34
ENDBRANCH  19  21
ENDBRANCH  17  19
ENDBRANCH  16  17
ENDBRANCH  15  16
ENDBRANCH   1  15
TORSDOF 7
ENDMDL
MODEL 2
REMARK VINA RESULT: -8.460538057      2.319      3.198
REMARK  7 active torsions:
REMARK  status: ('A' for Active; 'I' for Inactive)
REMARK    1  A    between atoms: C2_2  and  C3_3 
REMARK    2  A    between atoms: C2_2  and  N6_19 
REMARK    3  A    between atoms: C3_3  and  S1_4 
REMARK    4  A    between atoms: S1_4  and  C4_5 
REMARK    5  A    between atoms: C8_13  and  N4_14 
REMARK    6  A    between atoms: N6_19  and  C9_21 
REMARK    7  A    between atoms: C11_26  and  C12_27 
ROOT
HETATM    1  C4  UNL     1     141.133  58.422 130.079  1.00  0.00     0.147 A 
HETATM    2  N1  UNL     1     142.016  57.492 129.674  1.00  0.00    -0.324 N 
ATOM      3  H1  UNL     1     142.285  57.463 128.690  1.00  0.00     0.169 HD
HETATM    4  C5  UNL     1     142.563  56.588 130.532  1.00  0.00     0.142 A 
HETATM    5  N2  UNL     1     143.486  55.615 130.100  1.00  0.00    -0.081 NA
HETATM    6  C6  UNL     1     142.211  56.622 131.843  1.00  0.00     0.129 A 
HETATM    7  C7  UNL     1     142.734  55.708 132.829  1.00  0.00     0.106 C 
HETATM    8  N3  UNL     1     143.167  54.983 133.612  1.00  0.00    -0.191 NA
HETATM    9  C8  UNL     1     141.306  57.570 132.284  1.00  0.00     0.125 A 
HETATM   10  N5  UNL     1     140.812  58.422 131.380  1.00  0.00    -0.322 N 
ATOM     11  H5  UNL     1     140.144  59.122 131.703  1.00  0.00     0.169 HD
ENDROOT
BRANCH   9  12
HETATM   12  N4  UNL     1     140.939  57.644 133.518  1.00  0.00    -0.384 N 
ATOM     13  H42 UNL     1     140.390  56.894 133.938  1.00  0.00     0.157 HD
ATOM     14  H41 UNL     1     141.181  58.440 134.108  1.00  0.00     0.157 HD
ENDBRANCH   9  12
BRANCH   1  15
HETATM   15  S1  UNL     1     140.427  59.603 128.927  1.00  0.00    -0.092 SA
BRANCH  15  16
HETATM   16  C3  UNL     1     139.133  60.537 129.786  1.00  0.00     0.107 C 
BRANCH  16  17
HETATM   17  C2  UNL     1     139.744  61.214 130.990  1.00  0.00     0.088 C 
HETATM   18  C1  UNL     1     138.635  61.615 131.926  1.00  0.00     0.033 C 
BRANCH  17  19
HETATM   19  N6  UNL     1     140.446  62.416 130.586  1.00  0.00    -0.367 N 
ATOM     20  H6  UNL     1     139.949  63.132 130.058  1.00  0.00     0.161 HD
BRANCH  19  21
HETATM   21  C9  UNL     1     141.834  62.615 130.917  1.00  0.00     0.174 C 
HETATM   22  N7  UNL     1     142.504  61.455 131.098  1.00  0.00    -0.305 N 
HETATM   23  C10 UNL     1     143.569  61.145 131.893  1.00  0.00     0.256 C 
ATOM     24  H7  UNL     1     142.153  60.675 130.542  1.00  0.00     0.171 HD
HETATM   25  O1  UNL     1     143.801  59.920 131.958  1.00  0.00    -0.268 OA
HETATM   26  C11 UNL     1     144.477  61.845 132.660  1.00  0.00     0.046 C 
HETATM   27  C15 UNL     1     144.762  63.194 132.694  1.00  0.00     0.089 C 
HETATM   28  C16 UNL     1     144.103  64.383 132.447  1.00  0.00     0.248 C 
HETATM   29  O4  UNL     1     144.575  65.378 133.041  1.00  0.00    -0.268 OA
HETATM   30  N9  UNL     1     143.043  64.673 131.683  1.00  0.00    -0.287 N 
HETATM   31  C17 UNL     1     142.129  63.959 130.966  1.00  0.00     0.292 C 
ATOM     32  H9  UNL     1     142.879  65.678 131.622  1.00  0.00     0.172 HD
HETATM   33  O5  UNL     1     141.413  64.650 130.202  1.00  0.00    -0.264 OA
BRANCH  26  34
HETATM   34  C12 UNL     1     145.237  60.994 133.555  1.00  0.00     0.190 C 
HETATM   35  C13 UNL     1     146.723  61.097 133.482  1.00  0.00     0.162 C 
HETATM   36  N8  UNL     1     147.140  60.722 134.825  1.00  0.00    -0.334 N 
HETATM   37  C14 UNL     1     145.984  60.569 135.604  1.00  0.00     0.361 C 
ATOM     38  H8  UNL     1     148.101  60.594 135.142  1.00  0.00     0.164 HD
HETATM   39  O2  UNL     1     145.935  60.035 136.736  1.00  0.00    -0.238 OA
HETATM   40  O3  UNL     1     144.911  61.102 134.928  1.00  0.00    -0.292 OA
ENDBRANCH  26  34
ENDBRANCH  19  21
ENDBRANCH  17  19
ENDBRANCH  16  17
ENDBRANCH  15  16
ENDBRANCH   1  15
TORSDOF 7
ENDMDL
MODEL 3
REMARK VINA RESULT: -8.415494397      1.251      2.226
REMARK  7 active torsions:
REMARK  status: ('A' for Active; 'I' for Inactive)
REMARK    1  A    between atoms: C2_2  and  C3_3 
REMARK    2  A    between atoms: C2_2  and  N6_19 
REMARK    3  A    between atoms: C3_3  and  S1_4 
REMARK    4  A    between atoms: S1_4  and  C4_5 
REMARK    5  A    between atoms: C8_13  and  N4_14 
REMARK    6  A    between atoms: N6_19  and  C9_21 
REMARK    7  A    between atoms: C11_26  and  C12_27 
ROOT
HETATM    1  C4  UNL     1     141.238  58.124 129.172  1.00  0.00     0.147 A 
HETATM    2  N1  UNL     1     141.302  57.101 130.043  1.00  0.00    -0.324 N 
ATOM      3  H1  UNL     1     140.454  56.821 130.536  1.00  0.00     0.169 HD
HETATM    4  C5  UNL     1     142.459  56.428 130.288  1.00  0.00     0.142 A 
HETATM    5  N2  UNL     1     142.517  55.357 131.204  1.00  0.00    -0.081 NA
HETATM    6  C6  UNL     1     143.591  56.795 129.635  1.00  0.00     0.129 A 
HETATM    7  C7  UNL     1     144.864  56.144 129.826  1.00  0.00     0.106 C 
HETATM    8  N3  UNL     1     145.874  55.610 129.975  1.00  0.00    -0.191 NA
HETATM    9  C8  UNL     1     143.551  57.843 128.733  1.00  0.00     0.125 A 
HETATM   10  N5  UNL     1     142.377  58.455 128.547  1.00  0.00    -0.322 N 
ATOM     11  H5  UNL     1     142.346  59.229 127.883  1.00  0.00     0.169 HD
ENDROOT
BRANCH   9  12
HETATM   12  N4  UNL     1     144.597  58.230 128.087  1.00  0.00    -0.384 N 
ATOM     13  H42 UNL     1     145.497  58.308 128.563  1.00  0.00     0.157 HD
ATOM     14  H41 UNL     1     144.564  58.467 127.096  1.00  0.00     0.157 HD
ENDBRANCH   9  12
BRANCH   1  15
HETATM   15  S1  UNL     1     139.700  58.995 128.867  1.00  0.00    -0.092 SA
BRANCH  15  16
HETATM   16  C3  UNL     1     138.860  59.246 130.454  1.00  0.00     0.107 C 
BRANCH  16  17
HETATM   17  C2  UNL     1     139.680  60.200 131.288  1.00  0.00     0.088 C 
HETATM   18  C1  UNL     1     138.743  60.998 132.157  1.00  0.00     0.033 C 
BRANCH  17  19
HETATM   19  N6  UNL     1     140.396  61.126 130.433  1.00  0.00    -0.367 N 
ATOM     20  H6  UNL     1     139.956  61.456 129.574  1.00  0.00     0.161 HD
BRANCH  19  21
HETATM   21  C9  UNL     1     141.717  61.586 130.775  1.00  0.00     0.174 C 
HETATM   22  N7  UNL     1     142.581  60.575 131.019  1.00  0.00    -0.305 N 
HETATM   23  C10 UNL     1     143.665  60.496 131.843  1.00  0.00     0.256 C 
ATOM     24  H7  UNL     1     142.387  59.721 130.496  1.00  0.00     0.171 HD
HETATM   25  O1  UNL     1     144.111  59.337 131.970  1.00  0.00    -0.268 OA
HETATM   26  C11 UNL     1     144.415  61.382 132.590  1.00  0.00     0.046 C 
HETATM   27  C15 UNL     1     144.453  62.760 132.564  1.00  0.00     0.089 C 
HETATM   28  C16 UNL     1     143.598  63.799 132.252  1.00  0.00     0.248 C 
HETATM   29  O4  UNL     1     143.870  64.888 132.805  1.00  0.00    -0.268 OA
HETATM   30  N9  UNL     1     142.521  63.860 131.460  1.00  0.00    -0.287 N 
HETATM   31  C17 UNL     1     141.765  62.962 130.764  1.00  0.00     0.292 C 
ATOM     32  H9  UNL     1     142.180  64.815 131.349  1.00  0.00     0.172 HD
HETATM   33  O5  UNL     1     140.955  63.479 129.958  1.00  0.00    -0.264 OA
BRANCH  26  34
HETATM   34  C12 UNL     1     145.295  60.721 133.535  1.00  0.00     0.190 C 
HETATM   35  C13 UNL     1     146.729  61.132 133.519  1.00  0.00     0.162 C 
HETATM   36  N8  UNL     1     147.155  60.872 134.886  1.00  0.00    -0.334 N 
HETATM   37  C14 UNL     1     146.022  60.492 135.622  1.00  0.00     0.361 C 
ATOM     38  H8  UNL     1     148.106  60.951 135.245  1.00  0.00     0.164 HD
HETATM   39  O2  UNL     1     146.035  59.976 136.763  1.00  0.00    -0.238 OA
HETATM   40  O3  UNL     1     144.893  60.779 134.891  1.00  0.00    -0.292 OA
ENDBRANCH  26  34
ENDBRANCH  19  21
ENDBRANCH  17  19
ENDBRANCH  16  17
ENDBRANCH  15  16
ENDBRANCH   1  15
TORSDOF 7
ENDMDL
MODEL 4
REMARK VINA RESULT: -8.363105244      3.294      7.682
REMARK  7 active torsions:
REMARK  status: ('A' for Active; 'I' for Inactive)
REMARK    1  A    between atoms: C2_2  and  C3_3 
REMARK    2  A    between atoms: C2_2  and  N6_19 
REMARK    3  A    between atoms: C3_3  and  S1_4 
REMARK    4  A    between atoms: S1_4  and  C4_5 
REMARK    5  A    between atoms: C8_13  and  N4_14 
REMARK    6  A    between atoms: N6_19  and  C9_21 
REMARK    7  A    between atoms: C11_26  and  C12_27 
ROOT
HETATM    1  C4  UNL     1     146.519  61.651 135.194  1.00  0.00     0.147 A 
HETATM    2  N1  UNL     1     147.783  61.953 135.542  1.00  0.00    -0.324 N 
ATOM      3  H1  UNL     1     148.274  62.686 135.030  1.00  0.00     0.169 HD
HETATM    4  C5  UNL     1     148.429  61.312 136.555  1.00  0.00     0.142 A 
HETATM    5  N2  UNL     1     149.754  61.633 136.913  1.00  0.00    -0.081 NA
HETATM    6  C6  UNL     1     147.782  60.337 137.241  1.00  0.00     0.129 A 
HETATM    7  C7  UNL     1     148.380  59.601 138.329  1.00  0.00     0.106 C 
HETATM    8  N3  UNL     1     148.861  59.028 139.205  1.00  0.00    -0.191 NA
HETATM    9  C8  UNL     1     146.481  60.009 136.903  1.00  0.00     0.125 A 
HETATM   10  N5  UNL     1     145.916  60.682 135.896  1.00  0.00    -0.322 N 
ATOM     11  H5  UNL     1     144.957  60.441 135.644  1.00  0.00     0.169 HD
ENDROOT
BRANCH   9  12
HETATM   12  N4  UNL     1     145.823  59.090 137.523  1.00  0.00    -0.384 N 
ATOM     13  H42 UNL     1     146.293  58.486 138.198  1.00  0.00     0.157 HD
ATOM     14  H41 UNL     1     144.827  58.938 137.367  1.00  0.00     0.157 HD
ENDBRANCH   9  12
BRANCH   1  15
HETATM   15  S1  UNL     1     145.691  62.510 133.855  1.00  0.00    -0.092 SA
BRANCH  15  16
HETATM   16  C3  UNL     1     143.977  61.924 133.774  1.00  0.00     0.107 C 
BRANCH  16  17
HETATM   17  C2  UNL     1     143.612  61.698 132.326  1.00  0.00     0.088 C 
HETATM   18  C1  UNL     1     142.985  62.958 131.790  1.00  0.00     0.033 C 
BRANCH  17  19
HETATM   19  N6  UNL     1     142.636  60.631 132.216  1.00  0.00    -0.367 N 
ATOM     20  H6  UNL     1     141.643  60.853 132.274  1.00  0.00     0.161 HD
BRANCH  19  21
HETATM   21  C9  UNL     1     143.047  59.263 132.028  1.00  0.00     0.174 C 
HETATM   22  N7  UNL     1     144.227  59.152 131.378  1.00  0.00    -0.305 N 
HETATM   23  C10 UNL     1     144.709  58.185 130.545  1.00  0.00     0.256 C 
ATOM     24  H7  UNL     1     144.870  59.929 131.537  1.00  0.00     0.171 HD
HETATM   25  O1  UNL     1     145.764  58.509 129.963  1.00  0.00    -0.268 OA
HETATM   26  C11 UNL     1     144.327  56.912 130.170  1.00  0.00     0.046 C 
HETATM   27  C15 UNL     1     143.395  56.061 130.726  1.00  0.00     0.089 C 
HETATM   28  C16 UNL     1     142.222  56.165 131.450  1.00  0.00     0.248 C 
HETATM   29  O4  UNL     1     141.456  55.181 131.350  1.00  0.00    -0.268 OA
HETATM   30  N9  UNL     1     141.747  57.131 132.245  1.00  0.00    -0.287 N 
HETATM   31  C17 UNL     1     142.117  58.403 132.568  1.00  0.00     0.292 C 
ATOM     32  H9  UNL     1     140.897  56.844 132.730  1.00  0.00     0.172 HD
HETATM   33  O5  UNL     1     141.498  58.893 133.542  1.00  0.00    -0.264 OA
BRANCH  26  34
HETATM   34  C12 UNL     1     145.047  56.424 129.010  1.00  0.00     0.190 C 
HETATM   35  C13 UNL     1     145.282  54.953 128.933  1.00  0.00     0.162 C 
HETATM   36  N8  UNL     1     145.362  54.714 127.500  1.00  0.00    -0.334 N 
HETATM   37  C14 UNL     1     145.054  55.917 126.847  1.00  0.00     0.361 C 
ATOM     38  H8  UNL     1     145.599  53.829 127.050  1.00  0.00     0.164 HD
HETATM   39  O2  UNL     1     145.244  56.154 125.632  1.00  0.00    -0.238 OA
HETATM   40  O3  UNL     1     144.510  56.796 127.754  1.00  0.00    -0.292 OA
ENDBRANCH  26  34
ENDBRANCH  19  21
ENDBRANCH  17  19
ENDBRANCH  16  17
ENDBRANCH  15  16
ENDBRANCH   1  15
TORSDOF 7
ENDMDL
MODEL 5
REMARK VINA RESULT: -8.229379479      2.463      3.664
REMARK  7 active torsions:
REMARK  status: ('A' for Active; 'I' for Inactive)
REMARK    1  A    between atoms: C2_2  and  C3_3 
REMARK    2  A    between atoms: C2_2  and  N6_19 
REMARK    3  A    between atoms: C3_3  and  S1_4 
REMARK    4  A    between atoms: S1_4  and  C4_5 
REMARK    5  A    between atoms: C8_13  and  N4_14 
REMARK    6  A    between atoms: N6_19  and  C9_21 
REMARK    7  A    between atoms: C11_26  and  C12_27 
ROOT
HETATM    1  C4  UNL     1     141.765  58.867 130.189  1.00  0.00     0.147 A 
HETATM    2  N1  UNL     1     142.559  57.865 129.772  1.00  0.00    -0.324 N 
ATOM      3  H1  UNL     1     142.934  57.896 128.824  1.00  0.00     0.169 HD
HETATM    4  C5  UNL     1     142.878  56.811 130.572  1.00  0.00     0.142 A 
HETATM    5  N2  UNL     1     143.710  55.764 130.127  1.00  0.00    -0.081 NA
HETATM    6  C6  UNL     1     142.383  56.764 131.835  1.00  0.00     0.129 A 
HETATM    7  C7  UNL     1     142.663  55.692 132.758  1.00  0.00     0.106 C 
HETATM    8  N3  UNL     1     142.903  54.838 133.493  1.00  0.00    -0.191 NA
HETATM    9  C8  UNL     1     141.565  57.784 132.288  1.00  0.00     0.125 A 
HETATM   10  N5  UNL     1     141.297  58.784 131.442  1.00  0.00    -0.322 N 
ATOM     11  H5  UNL     1     140.693  59.537 131.774  1.00  0.00     0.169 HD
ENDROOT
BRANCH   9  12
HETATM   12  N4  UNL     1     141.070  57.787 133.478  1.00  0.00    -0.384 N 
ATOM     13  H42 UNL     1     140.789  56.912 133.921  1.00  0.00     0.157 HD
ATOM     14  H41 UNL     1     140.945  58.648 134.011  1.00  0.00     0.157 HD
ENDBRANCH   9  12
BRANCH   1  15
HETATM   15  S1  UNL     1     141.359  60.245 129.114  1.00  0.00    -0.092 SA
BRANCH  15  16
HETATM   16  C3  UNL     1     141.703  61.786 130.005  1.00  0.00     0.107 C 
BRANCH  16  17
HETATM   17  C2  UNL     1     141.170  61.660 131.412  1.00  0.00     0.088 C 
HETATM   18  C1  UNL     1     139.701  61.990 131.396  1.00  0.00     0.033 C 
BRANCH  17  19
HETATM   19  N6  UNL     1     141.832  62.608 132.286  1.00  0.00    -0.367 N 
ATOM     20  H6  UNL     1     141.297  63.377 132.689  1.00  0.00     0.161 HD
BRANCH  19  21
HETATM   21  C9  UNL     1     143.233  62.482 132.595  1.00  0.00     0.174 C 
HETATM   22  N7  UNL     1     143.612  61.203 132.814  1.00  0.00    -0.305 N 
HETATM   23  C10 UNL     1     144.587  60.675 133.609  1.00  0.00     0.256 C 
ATOM     24  H7  UNL     1     143.074  60.510 132.292  1.00  0.00     0.171 HD
HETATM   25  O1  UNL     1     144.522  59.433 133.720  1.00  0.00    -0.268 OA
HETATM   26  C11 UNL     1     145.650  61.165 134.340  1.00  0.00     0.046 C 
HETATM   27  C15 UNL     1     146.249  62.408 134.318  1.00  0.00     0.089 C 
HETATM   28  C16 UNL     1     145.888  63.710 134.031  1.00  0.00     0.248 C 
HETATM   29  O4  UNL     1     146.594  64.584 134.582  1.00  0.00    -0.268 OA
HETATM   30  N9  UNL     1     144.913  64.218 133.268  1.00  0.00    -0.287 N 
HETATM   31  C17 UNL     1     143.841  63.717 132.589  1.00  0.00     0.292 C 
ATOM     32  H9  UNL     1     144.991  65.229 133.169  1.00  0.00     0.172 HD
HETATM   33  O5  UNL     1     143.296  64.532 131.806  1.00  0.00    -0.264 OA
BRANCH  26  34
HETATM   34  C12 UNL     1     146.203  60.190 135.259  1.00  0.00     0.190 C 
HETATM   35  C13 UNL     1     147.682  60.206 135.449  1.00  0.00     0.162 C 
HETATM   36  N8  UNL     1     147.841  59.683 136.797  1.00  0.00    -0.334 N 
HETATM   37  C14 UNL     1     146.561  59.532 137.351  1.00  0.00     0.361 C 
ATOM     38  H8  UNL     1     148.725  59.466 137.258  1.00  0.00     0.164 HD
HETATM   39  O2  UNL     1     146.292  58.900 138.398  1.00  0.00    -0.238 OA
HETATM   40  O3  UNL     1     145.648  60.191 136.561  1.00  0.00    -0.292 OA
ENDBRANCH  26  34
ENDBRANCH  19  21
ENDBRANCH  17  19
ENDBRANCH  16  17
ENDBRANCH  15  16
ENDBRANCH   1  15
TORSDOF 7
ENDMDL
