MODEL 1
REMARK VINA RESULT: -9.659280448      0.000      0.000
REMARK  9 active torsions:
REMARK  status: ('A' for Active; 'I' for Inactive)
REMARK       I    between atoms: C2_2  and  N1_4 
REMARK       I    between atoms: N1_4  and  C3_6 
REMARK    1  A    between atoms: C3_6  and  C4_8 
REMARK    2  A    between atoms: C4_8  and  C5_9 
REMARK    3  A    between atoms: C5_9  and  N2_10 
REMARK    4  A    between atoms: C5_9  and  C6_14 
REMARK    5  A    between atoms: C6_14  and  N3_15 
REMARK    6  A    between atoms: C6_14  and  C14_38 
REMARK    7  A    between atoms: N3_15  and  N4_17 
REMARK       I    between atoms: N4_17  and  C7_19 
REMARK    8  A    between atoms: C7_19  and  C8_21 
REMARK       I    between atoms: C8_21  and  N5_23 
REMARK    9  A    between atoms: C11_26  and  N6_27 
ROOT
HETATM    1  N3  UNL     1     143.060  64.217 131.706  1.00  0.00    -0.320 N 
ATOM      2  H3  UNL     1     142.977  64.431 130.712  1.00  0.00     0.181 HD
ENDROOT
BRANCH   1   3
HETATM    3  C6  UNL     1     143.870  65.027 132.519  1.00  0.00     0.188 C 
BRANCH   3   4
HETATM    4  C5  UNL     1     143.216  65.954 133.489  1.00  0.00     0.222 C 
BRANCH   4   5
HETATM    5  C4  UNL     1     144.147  66.346 134.574  1.00  0.00     0.138 C 
BRANCH   5   6
HETATM    6  C3  UNL     1     143.672  67.555 135.336  1.00  0.00     0.226 C 
HETATM    7  N1  UNL     1     144.617  68.366 136.020  1.00  0.00    -0.298 N 
HETATM    8  C2  UNL     1     144.199  69.497 136.725  1.00  0.00     0.220 C 
ATOM      9  H1  UNL     1     145.607  68.120 135.997  1.00  0.00     0.171 HD
HETATM   10  C1  UNL     1     142.778  69.931 136.824  1.00  0.00     0.117 C 
HETATM   11  O1  UNL     1     145.089  70.191 137.313  1.00  0.00    -0.274 OA
HETATM   12  O2  UNL     1     142.450  67.775 135.320  1.00  0.00    -0.273 OA
ENDBRANCH   5   6
ENDBRANCH   4   5
BRANCH   4  13
HETATM   13  N2  UNL     1     142.541  67.084 132.873  1.00  0.00    -0.072 N 
ATOM     14  H23 UNL     1     143.199  67.841 132.687  1.00  0.00     0.274 HD
ATOM     15  H22 UNL     1     142.264  66.863 131.916  1.00  0.00     0.274 HD
ATOM     16  H21 UNL     1     141.744  67.421 133.412  1.00  0.00     0.274 HD
ENDBRANCH   4  13
ENDBRANCH   3   4
BRANCH   3  17
HETATM   17  C14 UNL     1     144.915  64.222 133.256  1.00  0.00     0.094 A 
HETATM   18  N10 UNL     1     146.217  64.454 133.251  1.00  0.00    -0.295 N 
HETATM   19  N11 UNL     1     146.989  63.703 133.909  1.00  0.00    -0.298 N 
ATOM     20  H10 UNL     1     146.596  65.237 132.718  1.00  0.00     0.187 HD
HETATM   21  C15 UNL     1     146.502  62.684 134.604  1.00  0.00     0.064 A 
ATOM     22  H11 UNL     1     147.993  63.881 133.906  1.00  0.00     0.187 HD
HETATM   23  C16 UNL     1     147.230  61.676 135.443  1.00  0.00     0.078 C 
HETATM   24  S1  UNL     1     144.816  62.855 134.260  1.00  0.00    -0.059 SA
ENDBRANCH   3  17
ENDBRANCH   1   3
BRANCH   1  25
HETATM   25  N4  UNL     1     142.389  63.161 132.211  1.00  0.00    -0.265 N 
HETATM   26  C7  UNL     1     141.479  62.426 131.363  1.00  0.00     0.329 C 
HETATM   27  O3  UNL     1     141.332  62.800 130.164  1.00  0.00    -0.261 OA
ATOM     28  H4  UNL     1     142.524  62.884 133.184  1.00  0.00     0.190 HD
BRANCH  26  29
HETATM   29  C8  UNL     1     140.771  61.293 131.908  1.00  0.00     0.335 C 
HETATM   30  O4  UNL     1     139.580  61.494 132.340  1.00  0.00    -0.260 OA
HETATM   31  N5  UNL     1     141.328  59.980 131.988  1.00  0.00    -0.225 N 
HETATM   32  C9  UNL     1     142.520  59.505 131.616  1.00  0.00     0.139 A 
HETATM   33  N9  UNL     1     140.672  58.930 132.511  1.00  0.00    -0.275 N 
HETATM   34  C10 UNL     1     142.611  58.146 131.912  1.00  0.00     0.070 A 
HETATM   35  C11 UNL     1     143.601  57.199 131.744  1.00  0.00     0.115 A 
HETATM   36  C13 UNL     1     141.401  57.828 132.484  1.00  0.00     0.137 A 
HETATM   37  N7  UNL     1     143.397  55.933 132.140  1.00  0.00    -0.338 N 
HETATM   38  C12 UNL     1     142.204  55.643 132.698  1.00  0.00     0.183 A 
ATOM     39  H7  UNL     1     144.116  55.219 132.025  1.00  0.00     0.168 HD
HETATM   40  N8  UNL     1     141.224  56.539 132.875  1.00  0.00    -0.337 N 
ATOM     41  H8  UNL     1     140.344  56.253 133.304  1.00  0.00     0.168 HD
ATOM     42  H9  UNL     1     139.725  58.978 132.885  1.00  0.00     0.189 HD
BRANCH  35  43
HETATM   43  N6  UNL     1     144.713  57.554 131.203  1.00  0.00    -0.385 N 
ATOM     44  H62 UNL     1     144.913  58.535 131.005  1.00  0.00     0.157 HD
ATOM     45  H61 UNL     1     145.398  56.836 130.971  1.00  0.00     0.157 HD
ENDBRANCH  35  43
ENDBRANCH  26  29
ENDBRANCH   1  25
TORSDOF 9
ENDMDL
MODEL 2
REMARK VINA RESULT: -9.233692497      3.666      9.376
REMARK  9 active torsions:
REMARK  status: ('A' for Active; 'I' for Inactive)
REMARK       I    between atoms: C2_2  and  N1_4 
REMARK       I    between atoms: N1_4  and  C3_6 
REMARK    1  A    between atoms: C3_6  and  C4_8 
REMARK    2  A    between atoms: C4_8  and  C5_9 
REMARK    3  A    between atoms: C5_9  and  N2_10 
REMARK    4  A    between atoms: C5_9  and  C6_14 
REMARK    5  A    between atoms: C6_14  and  N3_15 
REMARK    6  A    between atoms: C6_14  and  C14_38 
REMARK    7  A    between atoms: N3_15  and  N4_17 
REMARK       I    between atoms: N4_17  and  C7_19 
REMARK    8  A    between atoms: C7_19  and  C8_21 
REMARK       I    between atoms: C8_21  and  N5_23 
REMARK    9  A    between atoms: C11_26  and  N6_27 
ROOT
HETATM    1  N3  UNL     1     142.516  58.024 132.319  1.00  0.00    -0.320 N 
ATOM      2  H3  UNL     1     142.531  57.105 132.761  1.00  0.00     0.181 HD
ENDROOT
BRANCH   1   3
HETATM    3  C6  UNL     1     141.903  58.175 131.065  1.00  0.00     0.188 C 
BRANCH   3   4
HETATM    4  C5  UNL     1     141.517  56.953 130.301  1.00  0.00     0.222 C 
BRANCH   4   5
HETATM    5  C4  UNL     1     142.244  56.870 129.011  1.00  0.00     0.138 C 
BRANCH   5   6
HETATM    6  C3  UNL     1     143.711  56.581 129.191  1.00  0.00     0.226 C 
HETATM    7  N1  UNL     1     144.669  57.543 128.771  1.00  0.00    -0.298 N 
HETATM    8  C2  UNL     1     146.035  57.300 128.937  1.00  0.00     0.220 C 
ATOM      9  H1  UNL     1     144.358  58.416 128.346  1.00  0.00     0.171 HD
HETATM   10  C1  UNL     1     146.585  56.054 129.539  1.00  0.00     0.117 C 
HETATM   11  O1  UNL     1     146.848  58.199 128.550  1.00  0.00    -0.274 OA
HETATM   12  O2  UNL     1     144.002  55.491 129.709  1.00  0.00    -0.273 OA
ENDBRANCH   5   6
ENDBRANCH   4   5
BRANCH   4  13
HETATM   13  N2  UNL     1     141.572  55.724 131.074  1.00  0.00    -0.072 N 
ATOM     14  H23 UNL     1     140.643  55.315 131.170  1.00  0.00     0.274 HD
ATOM     15  H22 UNL     1     142.028  54.982 130.542  1.00  0.00     0.274 HD
ATOM     16  H21 UNL     1     142.014  55.839 131.986  1.00  0.00     0.274 HD
ENDBRANCH   4  13
ENDBRANCH   3   4
BRANCH   3  17
HETATM   17  C14 UNL     1     140.707  59.098 131.130  1.00  0.00     0.094 A 
HETATM   18  N10 UNL     1     139.446  58.723 131.262  1.00  0.00    -0.295 N 
HETATM   19  N11 UNL     1     138.535  59.596 131.301  1.00  0.00    -0.298 N 
ATOM     20  H10 UNL     1     139.210  57.733 131.333  1.00  0.00     0.187 HD
HETATM   21  C15 UNL     1     138.835  60.884 131.210  1.00  0.00     0.064 A 
ATOM     22  H11 UNL     1     137.561  59.309 131.403  1.00  0.00     0.187 HD
HETATM   23  C16 UNL     1     137.922  62.074 131.230  1.00  0.00     0.078 C 
HETATM   24  S1  UNL     1     140.555  60.789 131.060  1.00  0.00    -0.059 SA
ENDBRANCH   3  17
ENDBRANCH   1   3
BRANCH   1  25
HETATM   25  N4  UNL     1     143.088  59.069 132.953  1.00  0.00    -0.265 N 
HETATM   26  C7  UNL     1     144.309  59.637 132.428  1.00  0.00     0.329 C 
HETATM   27  O3  UNL     1     144.813  59.131 131.385  1.00  0.00    -0.261 OA
ATOM     28  H4  UNL     1     142.661  59.455 133.795  1.00  0.00     0.190 HD
BRANCH  26  29
HETATM   29  C8  UNL     1     144.910  60.760 133.106  1.00  0.00     0.335 C 
HETATM   30  O4  UNL     1     145.836  60.507 133.957  1.00  0.00    -0.260 OA
HETATM   31  N5  UNL     1     144.525  62.116 132.878  1.00  0.00    -0.225 N 
HETATM   32  C9  UNL     1     143.610  62.647 132.062  1.00  0.00     0.139 A 
HETATM   33  N9  UNL     1     145.075  63.159 133.523  1.00  0.00    -0.275 N 
HETATM   34  C10 UNL     1     143.585  64.034 132.201  1.00  0.00     0.070 A 
HETATM   35  C11 UNL     1     142.843  65.037 131.612  1.00  0.00     0.115 A 
HETATM   36  C13 UNL     1     144.544  64.310 133.149  1.00  0.00     0.137 A 
HETATM   37  N7  UNL     1     143.046  66.317 131.959  1.00  0.00    -0.338 N 
HETATM   38  C12 UNL     1     143.990  66.566 132.889  1.00  0.00     0.183 A 
ATOM     39  H7  UNL     1     142.507  67.073 131.535  1.00  0.00     0.168 HD
HETATM   40  N8  UNL     1     144.726  65.615 133.479  1.00  0.00    -0.337 N 
ATOM     41  H8  UNL     1     145.425  65.871 134.177  1.00  0.00     0.168 HD
ATOM     42  H9  UNL     1     145.815  63.073 134.220  1.00  0.00     0.189 HD
BRANCH  35  43
HETATM   43  N6  UNL     1     141.961  64.719 130.731  1.00  0.00    -0.385 N 
ATOM     44  H62 UNL     1     142.233  64.318 129.833  1.00  0.00     0.157 HD
ATOM     45  H61 UNL     1     140.976  64.876 130.944  1.00  0.00     0.157 HD
ENDBRANCH  35  43
ENDBRANCH  26  29
ENDBRANCH   1  25
TORSDOF 9
ENDMDL
MODEL 3
REMARK VINA RESULT: -9.111351707      4.239      8.867
REMARK  9 active torsions:
REMARK  status: ('A' for Active; 'I' for Inactive)
REMARK       I    between atoms: C2_2  and  N1_4 
REMARK       I    between atoms: N1_4  and  C3_6 
REMARK    1  A    between atoms: C3_6  and  C4_8 
REMARK    2  A    between atoms: C4_8  and  C5_9 
REMARK    3  A    between atoms: C5_9  and  N2_10 
REMARK    4  A    between atoms: C5_9  and  C6_14 
REMARK    5  A    between atoms: C6_14  and  N3_15 
REMARK    6  A    between atoms: C6_14  and  C14_38 
REMARK    7  A    between atoms: N3_15  and  N4_17 
REMARK       I    between atoms: N4_17  and  C7_19 
REMARK    8  A    between atoms: C7_19  and  C8_21 
REMARK       I    between atoms: C8_21  and  N5_23 
REMARK    9  A    between atoms: C11_26  and  N6_27 
ROOT
HETATM    1  N3  UNL     1     142.183  59.615 133.109  1.00  0.00    -0.320 N 
ATOM      2  H3  UNL     1     141.623  59.416 133.938  1.00  0.00     0.181 HD
ENDROOT
BRANCH   1   3
HETATM    3  C6  UNL     1     141.628  59.404 131.837  1.00  0.00     0.188 C 
BRANCH   3   4
HETATM    4  C5  UNL     1     141.117  58.045 131.491  1.00  0.00     0.222 C 
BRANCH   4   5
HETATM    5  C4  UNL     1     141.537  57.640 130.128  1.00  0.00     0.138 C 
BRANCH   5   6
HETATM    6  C3  UNL     1     142.940  57.094 130.093  1.00  0.00     0.226 C 
HETATM    7  N1  UNL     1     144.018  57.958 129.762  1.00  0.00    -0.298 N 
HETATM    8  C2  UNL     1     145.329  57.475 129.733  1.00  0.00     0.220 C 
ATOM      9  H1  UNL     1     143.834  58.937 129.543  1.00  0.00     0.171 HD
HETATM   10  C1  UNL     1     145.696  56.063 130.029  1.00  0.00     0.117 C 
HETATM   11  O1  UNL     1     146.256  58.295 129.436  1.00  0.00    -0.274 OA
HETATM   12  O2  UNL     1     143.073  55.890 130.364  1.00  0.00    -0.273 OA
ENDBRANCH   5   6
ENDBRANCH   4   5
BRANCH   4  13
HETATM   13  N2  UNL     1     141.380  57.034 132.500  1.00  0.00    -0.072 N 
ATOM     14  H23 UNL     1     142.278  56.579 132.331  1.00  0.00     0.274 HD
ATOM     15  H22 UNL     1     141.578  57.466 133.403  1.00  0.00     0.274 HD
ATOM     16  H21 UNL     1     140.635  56.343 132.584  1.00  0.00     0.274 HD
ENDBRANCH   4  13
ENDBRANCH   3   4
BRANCH   3  17
HETATM   17  C14 UNL     1     140.553  60.417 131.515  1.00  0.00     0.094 A 
HETATM   18  N10 UNL     1     140.663  61.729 131.640  1.00  0.00    -0.295 N 
HETATM   19  N11 UNL     1     139.687  62.471 131.339  1.00  0.00    -0.298 N 
ATOM     20  H10 UNL     1     141.533  62.141 131.980  1.00  0.00     0.187 HD
HETATM   21  C15 UNL     1     138.554  61.941 130.897  1.00  0.00     0.064 A 
ATOM     22  H11 UNL     1     139.770  63.482 131.436  1.00  0.00     0.187 HD
HETATM   23  C16 UNL     1     137.283  62.627 130.490  1.00  0.00     0.078 C 
HETATM   24  S1  UNL     1     138.964  60.262 130.934  1.00  0.00    -0.059 SA
ENDBRANCH   3  17
ENDBRANCH   1   3
BRANCH   1  25
HETATM   25  N4  UNL     1     143.443  60.075 133.259  1.00  0.00    -0.265 N 
HETATM   26  C7  UNL     1     143.658  61.473 133.555  1.00  0.00     0.329 C 
HETATM   27  O3  UNL     1     142.652  62.232 133.660  1.00  0.00    -0.261 OA
ATOM     28  H4  UNL     1     144.236  59.441 133.164  1.00  0.00     0.190 HD
BRANCH  26  29
HETATM   29  C8  UNL     1     145.008  61.956 133.722  1.00  0.00     0.335 C 
HETATM   30  O4  UNL     1     145.410  62.871 132.918  1.00  0.00    -0.260 OA
HETATM   31  N5  UNL     1     145.901  61.468 134.724  1.00  0.00    -0.225 N 
HETATM   32  C9  UNL     1     145.739  60.539 135.671  1.00  0.00     0.139 A 
HETATM   33  N9  UNL     1     147.163  61.908 134.867  1.00  0.00    -0.275 N 
HETATM   34  C10 UNL     1     146.912  60.396 136.411  1.00  0.00     0.070 A 
HETATM   35  C11 UNL     1     147.276  59.593 137.473  1.00  0.00     0.115 A 
HETATM   36  C13 UNL     1     147.792  61.296 135.855  1.00  0.00     0.137 A 
HETATM   37  N7  UNL     1     148.512  59.677 137.989  1.00  0.00    -0.338 N 
HETATM   38  C12 UNL     1     149.358  60.565 137.429  1.00  0.00     0.183 A 
ATOM     39  H7  UNL     1     148.800  59.092 138.773  1.00  0.00     0.168 HD
HETATM   40  N8  UNL     1     149.035  61.358 136.399  1.00  0.00    -0.337 N 
ATOM     41  H8  UNL     1     149.723  62.010 136.022  1.00  0.00     0.168 HD
ATOM     42  H9  UNL     1     147.585  62.629 134.282  1.00  0.00     0.189 HD
BRANCH  35  43
HETATM   43  N6  UNL     1     146.411  58.769 137.952  1.00  0.00    -0.385 N 
ATOM     44  H62 UNL     1     146.398  57.791 137.662  1.00  0.00     0.157 HD
ATOM     45  H61 UNL     1     145.731  59.111 138.631  1.00  0.00     0.157 HD
ENDBRANCH  35  43
ENDBRANCH  26  29
ENDBRANCH   1  25
TORSDOF 9
ENDMDL
MODEL 4
REMARK VINA RESULT: -9.107684128      4.117      9.494
REMARK  9 active torsions:
REMARK  status: ('A' for Active; 'I' for Inactive)
REMARK       I    between atoms: C2_2  and  N1_4 
REMARK       I    between atoms: N1_4  and  C3_6 
REMARK    1  A    between atoms: C3_6  and  C4_8 
REMARK    2  A    between atoms: C4_8  and  C5_9 
REMARK    3  A    between atoms: C5_9  and  N2_10 
REMARK    4  A    between atoms: C5_9  and  C6_14 
REMARK    5  A    between atoms: C6_14  and  N3_15 
REMARK    6  A    between atoms: C6_14  and  C14_38 
REMARK    7  A    between atoms: N3_15  and  N4_17 
REMARK       I    between atoms: N4_17  and  C7_19 
REMARK    8  A    between atoms: C7_19  and  C8_21 
REMARK       I    between atoms: C8_21  and  N5_23 
REMARK    9  A    between atoms: C11_26  and  N6_27 
ROOT
HETATM    1  N3  UNL     1     144.523  57.975 130.258  1.00  0.00    -0.320 N 
ATOM      2  H3  UNL     1     145.266  57.602 130.850  1.00  0.00     0.181 HD
ENDROOT
BRANCH   1   3
HETATM    3  C6  UNL     1     144.193  57.308 129.068  1.00  0.00     0.188 C 
BRANCH   3   4
HETATM    4  C5  UNL     1     144.978  56.100 128.679  1.00  0.00     0.222 C 
BRANCH   4   5
HETATM    5  C4  UNL     1     145.926  56.401 127.579  1.00  0.00     0.138 C 
BRANCH   5   6
HETATM    6  C3  UNL     1     147.102  57.222 128.036  1.00  0.00     0.226 C 
HETATM    7  N1  UNL     1     147.241  58.560 127.579  1.00  0.00    -0.298 N 
HETATM    8  C2  UNL     1     148.320  59.343 127.999  1.00  0.00     0.220 C 
ATOM      9  H1  UNL     1     146.550  58.952 126.939  1.00  0.00     0.171 HD
HETATM   10  C1  UNL     1     149.383  58.858 128.922  1.00  0.00     0.117 C 
HETATM   11  O1  UNL     1     148.391  60.536 127.563  1.00  0.00    -0.274 OA
HETATM   12  O2  UNL     1     147.901  56.665 128.807  1.00  0.00    -0.273 OA
ENDBRANCH   5   6
ENDBRANCH   4   5
BRANCH   4  13
HETATM   13  N2  UNL     1     145.595  55.403 129.795  1.00  0.00    -0.072 N 
ATOM     14  H23 UNL     1     146.559  55.709 129.924  1.00  0.00     0.274 HD
ATOM     15  H22 UNL     1     145.199  55.718 130.681  1.00  0.00     0.274 HD
ATOM     16  H21 UNL     1     145.545  54.388 129.716  1.00  0.00     0.274 HD
ENDBRANCH   4  13
ENDBRANCH   3   4
BRANCH   3  17
HETATM   17  C14 UNL     1     142.723  56.967 129.000  1.00  0.00     0.094 A 
HETATM   18  N10 UNL     1     141.996  56.472 129.989  1.00  0.00    -0.295 N 
HETATM   19  N11 UNL     1     140.772  56.227 129.804  1.00  0.00    -0.298 N 
ATOM     20  H10 UNL     1     142.424  56.289 130.897  1.00  0.00     0.187 HD
HETATM   21  C15 UNL     1     140.211  56.464 128.625  1.00  0.00     0.064 A 
ATOM     22  H11 UNL     1     140.211  55.845 130.564  1.00  0.00     0.187 HD
HETATM   23  C16 UNL     1     138.791  56.247 128.191  1.00  0.00     0.078 C 
HETATM   24  S1  UNL     1     141.572  57.080 127.755  1.00  0.00    -0.059 SA
ENDBRANCH   3  17
ENDBRANCH   1   3
BRANCH   1  25
HETATM   25  N4  UNL     1     143.879  59.099 130.636  1.00  0.00    -0.265 N 
HETATM   26  C7  UNL     1     143.127  59.105 131.871  1.00  0.00     0.329 C 
HETATM   27  O3  UNL     1     143.089  58.048 132.563  1.00  0.00    -0.261 OA
ATOM     28  H4  UNL     1     143.923  59.937 130.056  1.00  0.00     0.190 HD
BRANCH  26  29
HETATM   29  C8  UNL     1     142.448  60.314 132.273  1.00  0.00     0.335 C 
HETATM   30  O4  UNL     1     141.166  60.313 132.224  1.00  0.00    -0.260 OA
HETATM   31  N5  UNL     1     143.127  61.490 132.714  1.00  0.00    -0.225 N 
HETATM   32  C9  UNL     1     144.429  61.753 132.858  1.00  0.00     0.139 A 
HETATM   33  N9  UNL     1     142.493  62.620 133.072  1.00  0.00    -0.275 N 
HETATM   34  C10 UNL     1     144.610  63.060 133.308  1.00  0.00     0.070 A 
HETATM   35  C11 UNL     1     145.723  63.819 133.608  1.00  0.00     0.115 A 
HETATM   36  C13 UNL     1     143.338  63.571 133.429  1.00  0.00     0.137 A 
HETATM   37  N7  UNL     1     145.582  65.085 134.028  1.00  0.00    -0.338 N 
HETATM   38  C12 UNL     1     144.327  65.565 134.140  1.00  0.00     0.183 A 
ATOM     39  H7  UNL     1     146.393  65.662 134.254  1.00  0.00     0.168 HD
HETATM   40  N8  UNL     1     143.228  64.855 133.857  1.00  0.00    -0.337 N 
ATOM     41  H8  UNL     1     142.306  65.279 133.963  1.00  0.00     0.168 HD
ATOM     42  H9  UNL     1     141.479  62.729 133.068  1.00  0.00     0.189 HD
BRANCH  35  43
HETATM   43  N6  UNL     1     146.888  63.289 133.476  1.00  0.00    -0.385 N 
ATOM     44  H62 UNL     1     147.043  62.511 132.834  1.00  0.00     0.157 HD
ATOM     45  H61 UNL     1     147.662  63.659 134.027  1.00  0.00     0.157 HD
ENDBRANCH  35  43
ENDBRANCH  26  29
ENDBRANCH   1  25
TORSDOF 9
ENDMDL
MODEL 5
REMARK VINA RESULT: -9.069409342      3.773      7.218
REMARK  9 active torsions:
REMARK  status: ('A' for Active; 'I' for Inactive)
REMARK       I    between atoms: C2_2  and  N1_4 
REMARK       I    between atoms: N1_4  and  C3_6 
REMARK    1  A    between atoms: C3_6  and  C4_8 
REMARK    2  A    between atoms: C4_8  and  C5_9 
REMARK    3  A    between atoms: C5_9  and  N2_10 
REMARK    4  A    between atoms: C5_9  and  C6_14 
REMARK    5  A    between atoms: C6_14  and  N3_15 
REMARK    6  A    between atoms: C6_14  and  C14_38 
REMARK    7  A    between atoms: N3_15  and  N4_17 
REMARK       I    between atoms: N4_17  and  C7_19 
REMARK    8  A    between atoms: C7_19  and  C8_21 
REMARK       I    between atoms: C8_21  and  N5_23 
REMARK    9  A    between atoms: C11_26  and  N6_27 
ROOT
HETATM    1  N3  UNL     1     144.390  64.446 133.483  1.00  0.00    -0.320 N 
ATOM      2  H3  UNL     1     144.803  64.850 134.323  1.00  0.00     0.181 HD
ENDROOT
BRANCH   1   3
HETATM    3  C6  UNL     1     144.975  63.306 132.909  1.00  0.00     0.188 C 
BRANCH   3   4
HETATM    4  C5  UNL     1     146.279  62.819 133.445  1.00  0.00     0.222 C 
BRANCH   4   5
HETATM    5  C4  UNL     1     146.366  63.013 134.913  1.00  0.00     0.138 C 
BRANCH   5   6
HETATM    6  C3  UNL     1     146.692  61.739 135.647  1.00  0.00     0.226 C 
HETATM    7  N1  UNL     1     148.021  61.509 136.093  1.00  0.00    -0.298 N 
HETATM    8  C2  UNL     1     148.343  60.338 136.784  1.00  0.00     0.220 C 
ATOM      9  H1  UNL     1     148.745  62.203 135.907  1.00  0.00     0.171 HD
HETATM   10  C1  UNL     1     147.358  59.265 137.094  1.00  0.00     0.117 C 
HETATM   11  O1  UNL     1     149.547  60.187 137.166  1.00  0.00    -0.274 OA
HETATM   12  O2  UNL     1     145.753  60.945 135.822  1.00  0.00    -0.273 OA
ENDBRANCH   5   6
ENDBRANCH   4   5
BRANCH   4  13
HETATM   13  N2  UNL     1     146.637  61.477 133.019  1.00  0.00    -0.072 N 
ATOM     14  H23 UNL     1     146.700  61.425 132.002  1.00  0.00     0.274 HD
ATOM     15  H22 UNL     1     147.606  61.268 133.258  1.00  0.00     0.274 HD
ATOM     16  H21 UNL     1     146.011  60.758 133.380  1.00  0.00     0.274 HD
ENDBRANCH   4  13
ENDBRANCH   3   4
BRANCH   3  17
HETATM   17  C14 UNL     1     144.012  62.142 132.860  1.00  0.00     0.094 A 
HETATM   18  N10 UNL     1     143.728  61.329 133.863  1.00  0.00    -0.295 N 
HETATM   19  N11 UNL     1     142.903  60.388 133.692  1.00  0.00    -0.298 N 
ATOM     20  H10 UNL     1     144.173  61.461 134.772  1.00  0.00     0.187 HD
HETATM   21  C15 UNL     1     142.321  60.212 132.514  1.00  0.00     0.064 A 
ATOM     22  H11 UNL     1     142.684  59.760 134.465  1.00  0.00     0.187 HD
HETATM   23  C16 UNL     1     141.326  59.170 132.095  1.00  0.00     0.078 C 
HETATM   24  S1  UNL     1     143.036  61.509 131.620  1.00  0.00    -0.059 SA
ENDBRANCH   3  17
ENDBRANCH   1   3
BRANCH   1  25
HETATM   25  N4  UNL     1     143.293  65.020 132.946  1.00  0.00    -0.265 N 
HETATM   26  C7  UNL     1     143.386  66.351 132.392  1.00  0.00     0.329 C 
HETATM   27  O3  UNL     1     144.501  66.947 132.430  1.00  0.00    -0.261 OA
ATOM     28  H4  UNL     1     142.405  64.517 132.932  1.00  0.00     0.190 HD
BRANCH  26  29
HETATM   29  C8  UNL     1     142.211  66.955 131.812  1.00  0.00     0.335 C 
HETATM   30  O4  UNL     1     141.823  68.076 132.300  1.00  0.00    -0.260 OA
HETATM   31  N5  UNL     1     141.472  66.370 130.738  1.00  0.00    -0.225 N 
HETATM   32  C9  UNL     1     141.657  65.234 130.059  1.00  0.00     0.139 A 
HETATM   33  N9  UNL     1     140.368  66.926 130.211  1.00  0.00    -0.275 N 
HETATM   34  C10 UNL     1     140.657  65.078 129.100  1.00  0.00     0.070 A 
HETATM   35  C11 UNL     1     140.383  64.106 128.159  1.00  0.00     0.115 A 
HETATM   36  C13 UNL     1     139.858  66.189 129.240  1.00  0.00     0.137 A 
HETATM   37  N7  UNL     1     139.317  64.230 127.354  1.00  0.00    -0.338 N 
HETATM   38  C12 UNL     1     138.547  65.326 127.507  1.00  0.00     0.183 A 
ATOM     39  H7  UNL     1     139.097  63.522 126.653  1.00  0.00     0.168 HD
HETATM   40  N8  UNL     1     138.787  66.287 128.410  1.00  0.00    -0.337 N 
ATOM     41  H8  UNL     1     138.164  67.092 128.475  1.00  0.00     0.168 HD
ATOM     42  H9  UNL     1     139.971  67.812 130.524  1.00  0.00     0.189 HD
BRANCH  35  43
HETATM   43  N6  UNL     1     141.165  63.088 128.074  1.00  0.00    -0.385 N 
ATOM     44  H62 UNL     1     141.359  62.503 128.887  1.00  0.00     0.157 HD
ATOM     45  H61 UNL     1     141.594  62.873 127.175  1.00  0.00     0.157 HD
ENDBRANCH  35  43
ENDBRANCH  26  29
ENDBRANCH   1  25
TORSDOF 9
ENDMDL
