MODEL 1
REMARK VINA RESULT: -7.464512361      0.000      0.000
REMARK  9 active torsions:
REMARK  status: ('A' for Active; 'I' for Inactive)
REMARK    1  A    between atoms: O1_1  and  C1_3 
REMARK    2  A    between atoms: C1_3  and  C2_4 
REMARK    3  A    between atoms: C2_4  and  N1_5 
REMARK    4  A    between atoms: N1_5  and  C3_7 
REMARK    5  A    between atoms: C4_10  and  N3_11 
REMARK    6  A    between atoms: C10_19  and  N5_20 
REMARK    7  A    between atoms: N5_20  and  C11_22 
REMARK    8  A    between atoms: C11_22  and  C12_23 
REMARK    9  A    between atoms: C12_23  and  N6_24 
ROOT
HETATM    1  C3  UNL     1      -2.864  -2.407  14.756  1.00  0.00     0.711 A 
HETATM    2  N2  UNL     1      -2.048  -3.417  15.172  1.00  0.00    -0.021 N 
ATOM      3  H2  UNL     1      -1.287  -3.215  15.821  1.00  0.00     0.203 HD
HETATM    4  C4  UNL     1      -2.228  -4.667  14.743  1.00  0.00     0.709 A 
HETATM    5  N4  UNL     1      -3.219  -4.969  13.889  1.00  0.00    -0.021 N 
ATOM      6  H4  UNL     1      -3.343  -5.930  13.571  1.00  0.00     0.203 HD
HETATM    7  C10 UNL     1      -4.061  -3.988  13.446  1.00  0.00     0.707 A 
HETATM    8  N7  UNL     1      -3.879  -2.760  13.871  1.00  0.00    -0.021 N 
ATOM      9  H7  UNL     1      -4.508  -2.030  13.537  1.00  0.00     0.203 HD
ENDROOT
BRANCH   7  10
HETATM   10  N5  UNL     1      -4.978  -4.358  12.660  1.00  0.00    -0.223 N 
ATOM     11  H5  UNL     1      -5.006  -3.968  11.718  1.00  0.00     0.177 HD
BRANCH  10  12
HETATM   12  C11 UNL     1      -5.985  -5.311  13.047  1.00  0.00     0.168 C 
BRANCH  12  13
HETATM   13  C12 UNL     1      -6.763  -4.622  14.181  1.00  0.00     0.292 C 
BRANCH  13  14
HETATM   14  N6  UNL     1      -7.551  -5.645  14.836  1.00  0.00     0.094 N 
HETATM   15  C13 UNL     1      -8.728  -4.990  15.398  1.00  0.00     0.298 C 
HETATM   16  C14 UNL     1      -9.461  -4.309  14.299  1.00  0.00     0.198 C 
HETATM   17  O2  UNL     1      -9.940  -5.219  13.408  1.00  0.00    -0.388 OA
HETATM   18  C15 UNL     1      -9.391  -6.459  13.396  1.00  0.00     0.198 C 
HETATM   19  C16 UNL     1      -7.951  -6.576  13.794  1.00  0.00     0.298 C 
ENDBRANCH  13  14
ENDBRANCH  12  13
ENDBRANCH  10  12
ENDBRANCH   7  10
BRANCH   4  20
HETATM   20  N3  UNL     1      -1.379  -5.700  15.182  1.00  0.00    -0.217 N 
HETATM   21  C5  UNL     1      -1.881  -6.749  16.049  1.00  0.00     0.141 C 
HETATM   22  C6  UNL     1      -1.161  -8.049  15.888  1.00  0.00     0.020 C 
HETATM   23  C7  UNL     1       0.325  -7.917  15.784  1.00  0.00     0.003 C 
HETATM   24  C8  UNL     1       0.787  -6.472  15.822  1.00  0.00     0.020 C 
HETATM   25  C9  UNL     1      -0.001  -5.714  14.754  1.00  0.00     0.141 C 
ENDBRANCH   4  20
BRANCH   1  26
HETATM   26  N1  UNL     1      -2.819  -1.226  15.072  1.00  0.00    -0.202 N 
ATOM     27  H1  UNL     1      -2.079  -0.806  14.510  1.00  0.00     0.183 HD
BRANCH  26  28
HETATM   28  C2  UNL     1      -3.329  -0.221  15.852  1.00  0.00     0.105 C 
BRANCH  28  29
HETATM   29  C1  UNL     1      -4.826   0.017  15.866  1.00  0.00     0.209 C 
BRANCH  29  30
HETATM   30  O1  UNL     1      -5.418  -0.915  16.702  1.00  0.00    -0.396 OA
ATOM     31  H1  UNL     1      -6.301  -0.628  16.903  1.00  0.00     0.209 HD
ENDBRANCH  29  30
ENDBRANCH  28  29
ENDBRANCH  26  28
ENDBRANCH   1  26
TORSDOF 9
ENDMDL
MODEL 2
REMARK VINA RESULT: -7.410054367      1.126      1.550
REMARK  9 active torsions:
REMARK  status: ('A' for Active; 'I' for Inactive)
REMARK    1  A    between atoms: O1_1  and  C1_3 
REMARK    2  A    between atoms: C1_3  and  C2_4 
REMARK    3  A    between atoms: C2_4  and  N1_5 
REMARK    4  A    between atoms: N1_5  and  C3_7 
REMARK    5  A    between atoms: C4_10  and  N3_11 
REMARK    6  A    between atoms: C10_19  and  N5_20 
REMARK    7  A    between atoms: N5_20  and  C11_22 
REMARK    8  A    between atoms: C11_22  and  C12_23 
REMARK    9  A    between atoms: C12_23  and  N6_24 
ROOT
HETATM    1  C3  UNL     1      -2.863  -2.102  15.470  1.00  0.00     0.711 A 
HETATM    2  N2  UNL     1      -2.148  -3.240  15.705  1.00  0.00    -0.021 N 
ATOM      3  H2  UNL     1      -1.446  -3.248  16.445  1.00  0.00     0.203 HD
HETATM    4  C4  UNL     1      -2.352  -4.341  14.981  1.00  0.00     0.709 A 
HETATM    5  N4  UNL     1      -3.267  -4.364  14.000  1.00  0.00    -0.021 N 
ATOM      6  H4  UNL     1      -3.411  -5.215  13.456  1.00  0.00     0.203 HD
HETATM    7  C10 UNL     1      -4.008  -3.248  13.730  1.00  0.00     0.707 A 
HETATM    8  N7  UNL     1      -3.802  -2.166  14.444  1.00  0.00    -0.021 N 
ATOM      9  H7  UNL     1      -4.355  -1.335  14.239  1.00  0.00     0.203 HD
ENDROOT
BRANCH   7  10
HETATM   10  N5  UNL     1      -4.861  -3.359  12.806  1.00  0.00    -0.223 N 
ATOM     11  H5  UNL     1      -4.831  -2.700  12.027  1.00  0.00     0.177 HD
BRANCH  10  12
HETATM   12  C11 UNL     1      -5.873  -4.382  12.811  1.00  0.00     0.168 C 
BRANCH  12  13
HETATM   13  C12 UNL     1      -6.949  -3.865  13.781  1.00  0.00     0.292 C 
BRANCH  13  14
HETATM   14  N6  UNL     1      -7.348  -4.984  14.606  1.00  0.00     0.094 N 
HETATM   15  C13 UNL     1      -8.584  -4.603  15.283  1.00  0.00     0.298 C 
HETATM   16  C14 UNL     1      -9.598  -4.251  14.255  1.00  0.00     0.198 C 
HETATM   17  O2  UNL     1      -9.914  -5.338  13.502  1.00  0.00    -0.388 OA
HETATM   18  C15 UNL     1      -9.056  -6.389  13.496  1.00  0.00     0.198 C 
HETATM   19  C16 UNL     1      -7.602  -6.088  13.695  1.00  0.00     0.298 C 
ENDBRANCH  13  14
ENDBRANCH  12  13
ENDBRANCH  10  12
ENDBRANCH   7  10
BRANCH   4  20
HETATM   20  N3  UNL     1      -1.607  -5.508  15.236  1.00  0.00    -0.217 N 
HETATM   21  C5  UNL     1      -0.414  -5.804  14.468  1.00  0.00     0.141 C 
HETATM   22  C6  UNL     1       0.595  -6.610  15.221  1.00  0.00     0.020 C 
HETATM   23  C7  UNL     1       0.010  -7.736  16.013  1.00  0.00     0.003 C 
HETATM   24  C8  UNL     1      -1.503  -7.794  15.916  1.00  0.00     0.020 C 
HETATM   25  C9  UNL     1      -2.036  -6.408  16.280  1.00  0.00     0.141 C 
ENDBRANCH   4  20
BRANCH   1  26
HETATM   26  N1  UNL     1      -2.786  -1.032  16.056  1.00  0.00    -0.202 N 
ATOM     27  H1  UNL     1      -2.272  -1.212  16.919  1.00  0.00     0.183 HD
BRANCH  26  28
HETATM   28  C2  UNL     1      -3.088   0.306  16.059  1.00  0.00     0.105 C 
BRANCH  28  29
HETATM   29  C1  UNL     1      -2.429   1.215  15.040  1.00  0.00     0.209 C 
BRANCH  29  30
HETATM   30  O1  UNL     1      -2.717   0.745  13.770  1.00  0.00    -0.396 OA
ATOM     31  H1  UNL     1      -3.036   1.466  13.242  1.00  0.00     0.209 HD
ENDBRANCH  29  30
ENDBRANCH  28  29
ENDBRANCH  26  28
ENDBRANCH   1  26
TORSDOF 9
ENDMDL
MODEL 3
REMARK VINA RESULT: -7.395804971      1.200      1.274
REMARK  9 active torsions:
REMARK  status: ('A' for Active; 'I' for Inactive)
REMARK    1  A    between atoms: O1_1  and  C1_3 
REMARK    2  A    between atoms: C1_3  and  C2_4 
REMARK    3  A    between atoms: C2_4  and  N1_5 
REMARK    4  A    between atoms: N1_5  and  C3_7 
REMARK    5  A    between atoms: C4_10  and  N3_11 
REMARK    6  A    between atoms: C10_19  and  N5_20 
REMARK    7  A    between atoms: N5_20  and  C11_22 
REMARK    8  A    between atoms: C11_22  and  C12_23 
REMARK    9  A    between atoms: C12_23  and  N6_24 
ROOT
HETATM    1  C3  UNL     1      -2.914  -2.038  15.553  1.00  0.00     0.711 A 
HETATM    2  N2  UNL     1      -2.208  -3.168  15.848  1.00  0.00    -0.021 N 
ATOM      3  H2  UNL     1      -1.538  -3.156  16.617  1.00  0.00     0.203 HD
HETATM    4  C4  UNL     1      -2.380  -4.288  15.145  1.00  0.00     0.709 A 
HETATM    5  N4  UNL     1      -3.253  -4.338  14.127  1.00  0.00    -0.021 N 
ATOM      6  H4  UNL     1      -3.372  -5.203  13.599  1.00  0.00     0.203 HD
HETATM    7  C10 UNL     1      -3.982  -3.230  13.796  1.00  0.00     0.707 A 
HETATM    8  N7  UNL     1      -3.807  -2.130  14.490  1.00  0.00    -0.021 N 
ATOM      9  H7  UNL     1      -4.352  -1.305  14.239  1.00  0.00     0.203 HD
ENDROOT
BRANCH   7  10
HETATM   10  N5  UNL     1      -4.794  -3.367  12.839  1.00  0.00    -0.223 N 
ATOM     11  H5  UNL     1      -4.734  -2.726  12.047  1.00  0.00     0.177 HD
BRANCH  10  12
HETATM   12  C11 UNL     1      -5.802  -4.395  12.825  1.00  0.00     0.168 C 
BRANCH  12  13
HETATM   13  C12 UNL     1      -6.916  -3.864  13.742  1.00  0.00     0.292 C 
BRANCH  13  14
HETATM   14  N6  UNL     1      -7.362  -4.977  14.553  1.00  0.00     0.094 N 
HETATM   15  C13 UNL     1      -8.575  -4.550  15.243  1.00  0.00     0.298 C 
HETATM   16  C14 UNL     1      -9.577  -4.135  14.227  1.00  0.00     0.198 C 
HETATM   17  O2  UNL     1      -9.948  -5.196  13.461  1.00  0.00    -0.388 OA
HETATM   18  C15 UNL     1      -9.139  -6.285  13.433  1.00  0.00     0.198 C 
HETATM   19  C16 UNL     1      -7.672  -6.054  13.628  1.00  0.00     0.298 C 
ENDBRANCH  13  14
ENDBRANCH  12  13
ENDBRANCH  10  12
ENDBRANCH   7  10
BRANCH   4  20
HETATM   20  N3  UNL     1      -1.646  -5.447  15.462  1.00  0.00    -0.217 N 
HETATM   21  C5  UNL     1      -1.793  -6.081  16.758  1.00  0.00     0.141 C 
HETATM   22  C6  UNL     1      -1.541  -7.555  16.731  1.00  0.00     0.020 C 
HETATM   23  C7  UNL     1      -0.353  -7.957  15.917  1.00  0.00     0.003 C 
HETATM   24  C8  UNL     1       0.325  -6.775  15.249  1.00  0.00     0.020 C 
HETATM   25  C9  UNL     1      -0.750  -6.008  14.480  1.00  0.00     0.141 C 
ENDBRANCH   4  20
BRANCH   1  26
HETATM   26  N1  UNL     1      -2.862  -0.952  16.113  1.00  0.00    -0.202 N 
ATOM     27  H1  UNL     1      -2.480  -1.126  17.043  1.00  0.00     0.183 HD
BRANCH  26  28
HETATM   28  C2  UNL     1      -3.092   0.397  16.037  1.00  0.00     0.105 C 
BRANCH  28  29
HETATM   29  C1  UNL     1      -2.366   1.213  14.986  1.00  0.00     0.209 C 
BRANCH  29  30
HETATM   30  O1  UNL     1      -2.712   0.737  13.732  1.00  0.00    -0.396 OA
ATOM     31  H1  UNL     1      -2.037   0.987  13.113  1.00  0.00     0.209 HD
ENDBRANCH  29  30
ENDBRANCH  28  29
ENDBRANCH  26  28
ENDBRANCH   1  26
TORSDOF 9
ENDMDL
MODEL 4
REMARK VINA RESULT: -7.318335829      1.637      2.185
REMARK  9 active torsions:
REMARK  status: ('A' for Active; 'I' for Inactive)
REMARK    1  A    between atoms: O1_1  and  C1_3 
REMARK    2  A    between atoms: C1_3  and  C2_4 
REMARK    3  A    between atoms: C2_4  and  N1_5 
REMARK    4  A    between atoms: N1_5  and  C3_7 
REMARK    5  A    between atoms: C4_10  and  N3_11 
REMARK    6  A    between atoms: C10_19  and  N5_20 
REMARK    7  A    between atoms: N5_20  and  C11_22 
REMARK    8  A    between atoms: C11_22  and  C12_23 
REMARK    9  A    between atoms: C12_23  and  N6_24 
ROOT
HETATM    1  C3  UNL     1      -2.721  -2.913  14.800  1.00  0.00     0.711 A 
HETATM    2  N2  UNL     1      -1.848  -3.879  15.207  1.00  0.00    -0.021 N 
ATOM      3  H2  UNL     1      -1.099  -3.639  15.857  1.00  0.00     0.203 HD
HETATM    4  C4  UNL     1      -1.959  -5.134  14.769  1.00  0.00     0.709 A 
HETATM    5  N4  UNL     1      -2.933  -5.484  13.914  1.00  0.00    -0.021 N 
ATOM      6  H4  UNL     1      -3.003  -6.449  13.589  1.00  0.00     0.203 HD
HETATM    7  C10 UNL     1      -3.830  -4.549  13.479  1.00  0.00     0.707 A 
HETATM    8  N7  UNL     1      -3.715  -3.316  13.913  1.00  0.00    -0.021 N 
ATOM      9  H7  UNL     1      -4.385  -2.620  13.585  1.00  0.00     0.203 HD
ENDROOT
BRANCH   7  10
HETATM   10  N5  UNL     1      -4.726  -4.964  12.692  1.00  0.00    -0.223 N 
ATOM     11  H5  UNL     1      -4.447  -5.482  11.859  1.00  0.00     0.177 HD
BRANCH  10  12
HETATM   12  C11 UNL     1      -6.126  -4.734  12.930  1.00  0.00     0.168 C 
BRANCH  12  13
HETATM   13  C12 UNL     1      -6.469  -5.612  14.145  1.00  0.00     0.292 C 
BRANCH  13  14
HETATM   14  N6  UNL     1      -7.485  -4.912  14.901  1.00  0.00     0.094 N 
HETATM   15  C13 UNL     1      -7.210  -5.147  16.315  1.00  0.00     0.298 C 
HETATM   16  C14 UNL     1      -5.834  -4.671  16.615  1.00  0.00     0.198 C 
HETATM   17  O2  UNL     1      -5.746  -3.325  16.444  1.00  0.00    -0.388 OA
HETATM   18  C15 UNL     1      -6.692  -2.707  15.694  1.00  0.00     0.198 C 
HETATM   19  C16 UNL     1      -7.320  -3.502  14.591  1.00  0.00     0.298 C 
ENDBRANCH  13  14
ENDBRANCH  12  13
ENDBRANCH  10  12
ENDBRANCH   7  10
BRANCH   4  20
HETATM   20  N3  UNL     1      -1.053  -6.121  15.200  1.00  0.00    -0.217 N 
HETATM   21  C5  UNL     1      -1.485  -7.182  16.089  1.00  0.00     0.141 C 
HETATM   22  C6  UNL     1      -0.709  -8.449  15.925  1.00  0.00     0.020 C 
HETATM   23  C7  UNL     1       0.766  -8.249  15.786  1.00  0.00     0.003 C 
HETATM   24  C8  UNL     1       1.161  -6.783  15.798  1.00  0.00     0.020 C 
HETATM   25  C9  UNL     1       0.314  -6.075  14.740  1.00  0.00     0.141 C 
ENDBRANCH   4  20
BRANCH   1  26
HETATM   26  N1  UNL     1      -2.741  -1.734  15.124  1.00  0.00    -0.202 N 
ATOM     27  H1  UNL     1      -1.770  -1.419  15.125  1.00  0.00     0.183 HD
BRANCH  26  28
HETATM   28  C2  UNL     1      -3.498  -0.650  15.486  1.00  0.00     0.105 C 
BRANCH  28  29
HETATM   29  C1  UNL     1      -3.114   0.725  14.976  1.00  0.00     0.209 C 
BRANCH  29  30
HETATM   30  O1  UNL     1      -2.671   0.609  13.669  1.00  0.00    -0.396 OA
ATOM     31  H1  UNL     1      -3.347   0.935  13.087  1.00  0.00     0.209 HD
ENDBRANCH  29  30
ENDBRANCH  28  29
ENDBRANCH  26  28
ENDBRANCH   1  26
TORSDOF 9
ENDMDL
MODEL 5
REMARK VINA RESULT: -7.308110507      2.026      4.806
REMARK  9 active torsions:
REMARK  status: ('A' for Active; 'I' for Inactive)
REMARK    1  A    between atoms: O1_1  and  C1_3 
REMARK    2  A    between atoms: C1_3  and  C2_4 
REMARK    3  A    between atoms: C2_4  and  N1_5 
REMARK    4  A    between atoms: N1_5  and  C3_7 
REMARK    5  A    between atoms: C4_10  and  N3_11 
REMARK    6  A    between atoms: C10_19  and  N5_20 
REMARK    7  A    between atoms: N5_20  and  C11_22 
REMARK    8  A    between atoms: C11_22  and  C12_23 
REMARK    9  A    between atoms: C12_23  and  N6_24 
ROOT
HETATM    1  C3  UNL     1      -1.417  -4.987  14.705  1.00  0.00     0.711 A 
HETATM    2  N2  UNL     1      -1.553  -3.758  15.282  1.00  0.00    -0.021 N 
ATOM      3  H2  UNL     1      -0.791  -3.379  15.843  1.00  0.00     0.203 HD
HETATM    4  C4  UNL     1      -2.669  -3.045  15.123  1.00  0.00     0.709 A 
HETATM    5  N4  UNL     1      -3.692  -3.514  14.392  1.00  0.00    -0.021 N 
ATOM      6  H4  UNL     1      -4.538  -2.956  14.280  1.00  0.00     0.203 HD
HETATM    7  C10 UNL     1      -3.599  -4.741  13.795  1.00  0.00     0.707 A 
HETATM    8  N7  UNL     1      -2.500  -5.439  13.955  1.00  0.00    -0.021 N 
ATOM      9  H7  UNL     1      -2.435  -6.354  13.510  1.00  0.00     0.203 HD
ENDROOT
BRANCH   7  10
HETATM   10  N5  UNL     1      -4.596  -5.099  13.109  1.00  0.00    -0.223 N 
ATOM     11  H5  UNL     1      -4.539  -5.965  12.572  1.00  0.00     0.177 HD
BRANCH  10  12
HETATM   12  C11 UNL     1      -5.812  -4.330  13.056  1.00  0.00     0.168 C 
BRANCH  12  13
HETATM   13  C12 UNL     1      -6.902  -5.281  13.577  1.00  0.00     0.292 C 
BRANCH  13  14
HETATM   14  N6  UNL     1      -7.083  -4.987  14.983  1.00  0.00     0.094 N 
HETATM   15  C13 UNL     1      -8.022  -3.873  15.074  1.00  0.00     0.298 C 
HETATM   16  C14 UNL     1      -9.286  -4.262  14.396  1.00  0.00     0.198 C 
HETATM   17  O2  UNL     1      -9.881  -5.295  15.050  1.00  0.00    -0.388 OA
HETATM   18  C15 UNL     1      -9.127  -6.044  15.893  1.00  0.00     0.198 C 
HETATM   19  C16 UNL     1      -7.669  -6.179  15.572  1.00  0.00     0.298 C 
ENDBRANCH  13  14
ENDBRANCH  12  13
ENDBRANCH  10  12
ENDBRANCH   7  10
BRANCH   4  20
HETATM   20  N3  UNL     1      -2.795  -1.778  15.723  1.00  0.00    -0.217 N 
HETATM   21  C5  UNL     1      -2.492  -1.594  17.129  1.00  0.00     0.141 C 
HETATM   22  C6  UNL     1      -2.014  -0.216  17.460  1.00  0.00     0.020 C 
HETATM   23  C7  UNL     1      -2.786   0.876  16.791  1.00  0.00     0.003 C 
HETATM   24  C8  UNL     1      -3.873   0.346  15.874  1.00  0.00     0.020 C 
HETATM   25  C9  UNL     1      -3.219  -0.655  14.922  1.00  0.00     0.141 C 
ENDBRANCH   4  20
BRANCH   1  26
HETATM   26  N1  UNL     1      -0.456  -5.740  14.761  1.00  0.00    -0.202 N 
ATOM     27  H1  UNL     1       0.146  -5.498  13.973  1.00  0.00     0.183 HD
BRANCH  26  28
HETATM   28  C2  UNL     1       0.167  -6.769  15.421  1.00  0.00     0.105 C 
BRANCH  28  29
HETATM   29  C1  UNL     1      -0.671  -7.899  15.987  1.00  0.00     0.209 C 
BRANCH  29  30
HETATM   30  O1  UNL     1      -1.623  -8.261  15.050  1.00  0.00    -0.396 OA
ATOM     31  H1  UNL     1      -2.257  -8.835  15.464  1.00  0.00     0.209 HD
ENDBRANCH  29  30
ENDBRANCH  28  29
ENDBRANCH  26  28
ENDBRANCH   1  26
TORSDOF 9
ENDMDL
