MODEL 1
REMARK VINA RESULT: -7.584370499      0.000      0.000
REMARK  7 active torsions:
REMARK  status: ('A' for Active; 'I' for Inactive)
REMARK    1  A    between atoms: O1_2  and  C2_3 
REMARK    2  A    between atoms: C3_5  and  C4_6 
REMARK    3  A    between atoms: C4_6  and  O3_7 
REMARK    4  A    between atoms: O3_7  and  S1_8 
REMARK    5  A    between atoms: C8_15  and  N1_16 
REMARK    6  A    between atoms: N1_16  and  S2_18 
REMARK    7  A    between atoms: C10_22  and  O9_23 
ROOT
HETATM    1  C2  UNL     1      -5.206  -2.859  15.917  1.00  0.00     0.291 C 
HETATM    2  O2  UNL     1      -4.413  -3.874  16.163  1.00  0.00    -0.340 OA
HETATM    3  C3  UNL     1      -3.549  -4.484  15.271  1.00  0.00     0.215 C 
HETATM    4  C5  UNL     1      -4.156  -4.565  14.007  1.00  0.00    -0.149 C 
HETATM    5  C6  UNL     1      -4.705  -4.806  12.745  1.00  0.00     0.085 C 
HETATM    6  C7  UNL     1      -6.060  -4.031  12.723  1.00  0.00     0.040 C 
HETATM    7  C8  UNL     1      -6.711  -3.798  14.020  1.00  0.00     0.127 C 
HETATM    8  C10 UNL     1      -6.359  -2.755  14.991  1.00  0.00     0.196 C 
ENDROOT
BRANCH   3   9
HETATM    9  C4  UNL     1      -2.241  -3.723  15.245  1.00  0.00     0.236 C 
BRANCH   9  10
HETATM   10  O3  UNL     1      -1.301  -4.278  16.098  1.00  0.00    -0.254 OA
BRANCH  10  11
HETATM   11  S1  UNL     1       0.110  -4.682  15.302  1.00  0.00     0.251 S 
HETATM   12  O4  UNL     1       0.697  -3.505  14.573  1.00  0.00    -0.572 OA
HETATM   13  O5  UNL     1       1.174  -5.137  16.287  1.00  0.00    -0.572 OA
HETATM   14  O6  UNL     1      -0.129  -5.902  14.181  1.00  0.00    -0.572 OA
ENDBRANCH  10  11
ENDBRANCH   9  10
ENDBRANCH   3   9
BRANCH   1  15
HETATM   15  O1  UNL     1      -4.316  -1.786  15.581  1.00  0.00    -0.363 OA
HETATM   16  C1  UNL     1      -4.009  -0.974  16.627  1.00  0.00     0.204 C 
ENDBRANCH   1  15
BRANCH   8  17
HETATM   17  O9  UNL     1      -6.533  -1.442  14.499  1.00  0.00    -0.389 OA
ATOM     18  H9  UNL     1      -6.157  -1.329  13.634  1.00  0.00     0.210 HD
ENDBRANCH   8  17
BRANCH   7  19
HETATM   19  N1  UNL     1      -8.143  -3.545  13.639  1.00  0.00    -0.312 N 
ATOM     20  H1  UNL     1      -8.419  -2.711  13.122  1.00  0.00     0.172 HD
BRANCH  19  21
HETATM   21  S2  UNL     1      -9.257  -4.690  14.100  1.00  0.00     0.223 S 
HETATM   22  C9  UNL     1      -8.926  -5.331  15.751  1.00  0.00     0.185 C 
HETATM   23  O7  UNL     1     -10.589  -3.990  14.230  1.00  0.00    -0.206 OA
HETATM   24  O8  UNL     1      -9.487  -5.809  13.140  1.00  0.00    -0.206 OA
ENDBRANCH  19  21
ENDBRANCH   7  19
TORSDOF 7
ENDMDL
MODEL 2
REMARK VINA RESULT: -7.285987891      1.097      1.219
REMARK  7 active torsions:
REMARK  status: ('A' for Active; 'I' for Inactive)
REMARK    1  A    between atoms: O1_2  and  C2_3 
REMARK    2  A    between atoms: C3_5  and  C4_6 
REMARK    3  A    between atoms: C4_6  and  O3_7 
REMARK    4  A    between atoms: O3_7  and  S1_8 
REMARK    5  A    between atoms: C8_15  and  N1_16 
REMARK    6  A    between atoms: N1_16  and  S2_18 
REMARK    7  A    between atoms: C10_22  and  O9_23 
ROOT
HETATM    1  C2  UNL     1      -5.250  -3.744  16.277  1.00  0.00     0.291 C 
HETATM    2  O2  UNL     1      -4.501  -4.819  16.202  1.00  0.00    -0.340 OA
HETATM    3  C3  UNL     1      -3.653  -5.165  15.166  1.00  0.00     0.215 C 
HETATM    4  C5  UNL     1      -4.248  -4.835  13.937  1.00  0.00    -0.149 C 
HETATM    5  C6  UNL     1      -4.793  -4.660  12.663  1.00  0.00     0.085 C 
HETATM    6  C7  UNL     1      -6.115  -3.859  12.879  1.00  0.00     0.040 C 
HETATM    7  C8  UNL     1      -6.771  -4.002  14.187  1.00  0.00     0.127 C 
HETATM    8  C10 UNL     1      -6.387  -3.317  15.427  1.00  0.00     0.196 C 
ENDROOT
BRANCH   3   9
HETATM    9  C4  UNL     1      -2.315  -4.488  15.369  1.00  0.00     0.236 C 
BRANCH   9  10
HETATM   10  O3  UNL     1      -1.416  -5.303  16.036  1.00  0.00    -0.254 OA
BRANCH  10  11
HETATM   11  S1  UNL     1      -0.744  -6.455  15.030  1.00  0.00     0.251 S 
HETATM   12  O4  UNL     1      -0.639  -5.964  13.613  1.00  0.00    -0.572 OA
HETATM   13  O5  UNL     1       0.673  -6.789  15.463  1.00  0.00    -0.572 OA
HETATM   14  O6  UNL     1      -1.639  -7.869  15.010  1.00  0.00    -0.572 OA
ENDBRANCH  10  11
ENDBRANCH   9  10
ENDBRANCH   3   9
BRANCH   1  15
HETATM   15  O1  UNL     1      -4.313  -2.658  16.279  1.00  0.00    -0.363 OA
HETATM   16  C1  UNL     1      -3.991  -2.210  17.521  1.00  0.00     0.204 C 
ENDBRANCH   1  15
BRANCH   8  17
HETATM   17  O9  UNL     1      -6.503  -1.911  15.356  1.00  0.00    -0.389 OA
ATOM     18  H9  UNL     1      -7.244  -1.585  15.853  1.00  0.00     0.210 HD
ENDBRANCH   8  17
BRANCH   7  19
HETATM   19  N1  UNL     1      -8.187  -3.586  13.903  1.00  0.00    -0.312 N 
ATOM     20  H1  UNL     1      -8.412  -2.648  13.572  1.00  0.00     0.172 HD
BRANCH  19  21
HETATM   21  S2  UNL     1      -9.370  -4.727  14.153  1.00  0.00     0.223 S 
HETATM   22  C9  UNL     1      -9.175  -5.569  15.735  1.00  0.00     0.185 C 
HETATM   23  O7  UNL     1     -10.682  -3.989  14.281  1.00  0.00    -0.206 OA
HETATM   24  O8  UNL     1      -9.574  -5.716  13.054  1.00  0.00    -0.206 OA
ENDBRANCH  19  21
ENDBRANCH   7  19
TORSDOF 7
ENDMDL
MODEL 3
REMARK VINA RESULT: -7.228470310      0.708      1.227
REMARK  7 active torsions:
REMARK  status: ('A' for Active; 'I' for Inactive)
REMARK    1  A    between atoms: O1_2  and  C2_3 
REMARK    2  A    between atoms: C3_5  and  C4_6 
REMARK    3  A    between atoms: C4_6  and  O3_7 
REMARK    4  A    between atoms: O3_7  and  S1_8 
REMARK    5  A    between atoms: C8_15  and  N1_16 
REMARK    6  A    between atoms: N1_16  and  S2_18 
REMARK    7  A    between atoms: C10_22  and  O9_23 
ROOT
HETATM    1  C2  UNL     1      -5.095  -2.814  15.785  1.00  0.00     0.291 C 
HETATM    2  O2  UNL     1      -4.279  -3.826  15.964  1.00  0.00    -0.340 OA
HETATM    3  C3  UNL     1      -3.475  -4.418  15.006  1.00  0.00     0.215 C 
HETATM    4  C5  UNL     1      -4.167  -4.488  13.786  1.00  0.00    -0.149 C 
HETATM    5  C6  UNL     1      -4.801  -4.719  12.562  1.00  0.00     0.085 C 
HETATM    6  C7  UNL     1      -6.158  -3.955  12.644  1.00  0.00     0.040 C 
HETATM    7  C8  UNL     1      -6.721  -3.742  13.985  1.00  0.00     0.127 C 
HETATM    8  C10 UNL     1      -6.309  -2.708  14.942  1.00  0.00     0.196 C 
ENDROOT
BRANCH   3   9
HETATM    9  C4  UNL     1      -2.177  -3.646  14.900  1.00  0.00     0.236 C 
BRANCH   9  10
HETATM   10  O3  UNL     1      -1.073  -4.482  14.931  1.00  0.00    -0.254 OA
BRANCH  10  11
HETATM   11  S1  UNL     1      -0.205  -4.325  16.350  1.00  0.00     0.251 S 
HETATM   12  O4  UNL     1      -0.964  -4.865  17.531  1.00  0.00    -0.572 OA
HETATM   13  O5  UNL     1       1.086  -5.122  16.284  1.00  0.00    -0.572 OA
HETATM   14  O6  UNL     1       0.173  -2.729  16.680  1.00  0.00    -0.572 OA
ENDBRANCH  10  11
ENDBRANCH   9  10
ENDBRANCH   3   9
BRANCH   1  15
HETATM   15  O1  UNL     1      -4.237  -1.730  15.402  1.00  0.00    -0.363 OA
HETATM   16  C1  UNL     1      -3.886  -0.914  16.431  1.00  0.00     0.204 C 
ENDBRANCH   1  15
BRANCH   8  17
HETATM   17  O9  UNL     1      -6.526  -1.391  14.480  1.00  0.00    -0.389 OA
ATOM     18  H9  UNL     1      -6.604  -0.768  15.193  1.00  0.00     0.210 HD
ENDBRANCH   8  17
BRANCH   7  19
HETATM   19  N1  UNL     1      -8.177  -3.496  13.707  1.00  0.00    -0.312 N 
ATOM     20  H1  UNL     1      -8.499  -2.633  13.270  1.00  0.00     0.172 HD
BRANCH  19  21
HETATM   21  S2  UNL     1      -9.239  -4.698  14.144  1.00  0.00     0.223 S 
HETATM   22  C9  UNL     1      -8.867  -5.372  15.774  1.00  0.00     0.185 C 
HETATM   23  O7  UNL     1     -10.597  -4.057  14.305  1.00  0.00    -0.206 OA
HETATM   24  O8  UNL     1      -9.433  -5.798  13.154  1.00  0.00    -0.206 OA
ENDBRANCH  19  21
ENDBRANCH   7  19
TORSDOF 7
ENDMDL
MODEL 4
REMARK VINA RESULT: -7.215273900      3.697      6.077
REMARK  7 active torsions:
REMARK  status: ('A' for Active; 'I' for Inactive)
REMARK    1  A    between atoms: O1_2  and  C2_3 
REMARK    2  A    between atoms: C3_5  and  C4_6 
REMARK    3  A    between atoms: C4_6  and  O3_7 
REMARK    4  A    between atoms: O3_7  and  S1_8 
REMARK    5  A    between atoms: C8_15  and  N1_16 
REMARK    6  A    between atoms: N1_16  and  S2_18 
REMARK    7  A    between atoms: C10_22  and  O9_23 
ROOT
HETATM    1  C2  UNL     1      -4.205  -4.010  15.688  1.00  0.00     0.291 C 
HETATM    2  O2  UNL     1      -4.004  -3.341  16.799  1.00  0.00    -0.340 OA
HETATM    3  C3  UNL     1      -3.009  -2.410  17.034  1.00  0.00     0.215 C 
HETATM    4  C5  UNL     1      -1.812  -2.834  16.434  1.00  0.00    -0.149 C 
HETATM    5  C6  UNL     1      -0.546  -3.215  15.983  1.00  0.00     0.085 C 
HETATM    6  C7  UNL     1      -0.778  -4.488  15.111  1.00  0.00     0.040 C 
HETATM    7  C8  UNL     1      -1.964  -5.298  15.422  1.00  0.00     0.127 C 
HETATM    8  C10 UNL     1      -3.343  -5.007  15.009  1.00  0.00     0.196 C 
ENDROOT
BRANCH   3   9
HETATM    9  C4  UNL     1      -3.466  -1.056  16.535  1.00  0.00     0.236 C 
BRANCH   9  10
HETATM   10  O3  UNL     1      -2.423  -0.324  15.992  1.00  0.00    -0.254 OA
BRANCH  10  11
HETATM   11  S1  UNL     1      -2.758   0.193  14.439  1.00  0.00     0.251 S 
HETATM   12  O4  UNL     1      -2.548  -0.901  13.430  1.00  0.00    -0.572 OA
HETATM   13  O5  UNL     1      -4.214   0.608  14.311  1.00  0.00    -0.572 OA
HETATM   14  O6  UNL     1      -1.796   1.487  13.989  1.00  0.00    -0.572 OA
ENDBRANCH  10  11
ENDBRANCH   9  10
ENDBRANCH   3   9
BRANCH   1  15
HETATM   15  O1  UNL     1      -4.503  -3.000  14.715  1.00  0.00    -0.363 OA
HETATM   16  C1  UNL     1      -5.833  -2.806  14.510  1.00  0.00     0.204 C 
ENDBRANCH   1  15
BRANCH   8  17
HETATM   17  O9  UNL     1      -3.527  -5.007  13.609  1.00  0.00    -0.389 OA
ATOM     18  H9  UNL     1      -2.960  -5.632  13.171  1.00  0.00     0.210 HD
ENDBRANCH   8  17
BRANCH   7  19
HETATM   19  N1  UNL     1      -1.626  -6.637  14.828  1.00  0.00    -0.312 N 
ATOM     20  H1  UNL     1      -1.951  -6.907  13.900  1.00  0.00     0.172 HD
BRANCH  19  21
HETATM   21  S2  UNL     1      -0.697  -7.657  15.756  1.00  0.00     0.223 S 
HETATM   22  C9  UNL     1       1.066  -7.370  15.521  1.00  0.00     0.185 C 
HETATM   23  O7  UNL     1      -0.946  -7.295  17.201  1.00  0.00    -0.206 OA
HETATM   24  O8  UNL     1      -1.010  -9.112  15.649  1.00  0.00    -0.206 OA
ENDBRANCH  19  21
ENDBRANCH   7  19
TORSDOF 7
ENDMDL
MODEL 5
REMARK VINA RESULT: -6.919399336      2.657      3.940
REMARK  7 active torsions:
REMARK  status: ('A' for Active; 'I' for Inactive)
REMARK    1  A    between atoms: O1_2  and  C2_3 
REMARK    2  A    between atoms: C3_5  and  C4_6 
REMARK    3  A    between atoms: C4_6  and  O3_7 
REMARK    4  A    between atoms: O3_7  and  S1_8 
REMARK    5  A    between atoms: C8_15  and  N1_16 
REMARK    6  A    between atoms: N1_16  and  S2_18 
REMARK    7  A    between atoms: C10_22  and  O9_23 
ROOT
HETATM    1  C2  UNL     1      -4.256  -5.114  14.779  1.00  0.00     0.291 C 
HETATM    2  O2  UNL     1      -3.922  -4.311  13.797  1.00  0.00    -0.340 OA
HETATM    3  C3  UNL     1      -4.096  -2.939  13.756  1.00  0.00     0.215 C 
HETATM    4  C5  UNL     1      -5.330  -2.602  14.335  1.00  0.00    -0.149 C 
HETATM    5  C6  UNL     1      -6.581  -2.165  14.778  1.00  0.00     0.085 C 
HETATM    6  C7  UNL     1      -7.254  -3.413  15.428  1.00  0.00     0.040 C 
HETATM    7  C8  UNL     1      -6.820  -4.730  14.940  1.00  0.00     0.127 C 
HETATM    8  C10 UNL     1      -5.593  -5.436  15.331  1.00  0.00     0.196 C 
ENDROOT
BRANCH   3   9
HETATM    9  C4  UNL     1      -2.924  -2.268  14.440  1.00  0.00     0.236 C 
BRANCH   9  10
HETATM   10  O3  UNL     1      -2.448  -1.189  13.713  1.00  0.00    -0.254 OA
BRANCH  10  11
HETATM   11  S1  UNL     1      -2.778   0.268  14.460  1.00  0.00     0.251 S 
HETATM   12  O4  UNL     1      -4.218   0.666  14.292  1.00  0.00    -0.572 OA
HETATM   13  O5  UNL     1      -2.542   0.173  15.958  1.00  0.00    -0.572 OA
HETATM   14  O6  UNL     1      -1.836   1.511  13.852  1.00  0.00    -0.572 OA
ENDBRANCH  10  11
ENDBRANCH   9  10
ENDBRANCH   3   9
BRANCH   1  15
HETATM   15  O1  UNL     1      -3.454  -4.677  15.884  1.00  0.00    -0.363 OA
HETATM   16  C1  UNL     1      -2.322  -5.408  16.068  1.00  0.00     0.204 C 
ENDBRANCH   1  15
BRANCH   8  17
HETATM   17  O9  UNL     1      -5.541  -5.762  16.704  1.00  0.00    -0.389 OA
ATOM     18  H9  UNL     1      -5.419  -6.693  16.849  1.00  0.00     0.210 HD
ENDBRANCH   8  17
BRANCH   7  19
HETATM   19  N1  UNL     1      -7.960  -5.629  15.331  1.00  0.00    -0.312 N 
ATOM     20  H1  UNL     1      -8.097  -5.929  16.296  1.00  0.00     0.172 HD
BRANCH  19  21
HETATM   21  S2  UNL     1      -8.988  -6.110  14.116  1.00  0.00     0.223 S 
HETATM   22  C9  UNL     1      -8.121  -6.983  12.800  1.00  0.00     0.185 C 
HETATM   23  O7  UNL     1      -9.918  -7.145  14.703  1.00  0.00    -0.206 OA
HETATM   24  O8  UNL     1      -9.876  -5.053  13.548  1.00  0.00    -0.206 OA
ENDBRANCH  19  21
ENDBRANCH   7  19
TORSDOF 7
ENDMDL
