MODEL 1
REMARK VINA RESULT: -7.726585061      0.000      0.000
REMARK  10 active torsions:
REMARK  status: ('A' for Active; 'I' for Inactive)
REMARK       I    between atoms: C2_2  and  N1_4 
REMARK    1  A    between atoms: N1_4  and  C3_6 
REMARK    2  A    between atoms: C4_9  and  N3_10 
REMARK    3  A    between atoms: N3_10  and  C5_12 
REMARK    4  A    between atoms: C5_12  and  C6_13 
REMARK    5  A    between atoms: C6_13  and  C7_14 
REMARK    6  A    between atoms: C7_14  and  N4_15 
REMARK    7  A    between atoms: N4_15  and  C8_17 
REMARK    8  A    between atoms: C13_25  and  N6_26 
REMARK    9  A    between atoms: N6_26  and  N7_28 
REMARK   10  A    between atoms: N9_33  and  O3_34 
ROOT
HETATM    1  C3  UNL     1      -1.978  -4.909  14.675  1.00  0.00     0.741 A 
HETATM    2  N2  UNL     1      -3.115  -5.368  14.146  1.00  0.00    -0.019 N 
ATOM      3  H2  UNL     1      -3.217  -6.357  13.919  1.00  0.00     0.203 HD
HETATM    4  C4  UNL     1      -4.122  -4.510  13.919  1.00  0.00     0.707 A 
HETATM    5  N5  UNL     1      -4.028  -3.215  14.201  1.00  0.00    -0.018 N 
ATOM      6  H5  UNL     1      -4.810  -2.585  14.017  1.00  0.00     0.203 HD
HETATM    7  C13 UNL     1      -2.868  -2.743  14.740  1.00  0.00     0.754 A 
HETATM    8  N9  UNL     1      -1.859  -3.592  14.971  1.00  0.00     0.129 N 
ENDROOT
BRANCH   4   9
HETATM    9  N3  UNL     1      -5.179  -4.999  13.411  1.00  0.00    -0.225 N 
ATOM     10  H3  UNL     1      -5.761  -5.568  14.025  1.00  0.00     0.177 HD
BRANCH   9  11
HETATM   11  C5  UNL     1      -5.624  -4.838  12.095  1.00  0.00     0.143 C 
BRANCH  11  12
HETATM   12  C6  UNL     1      -6.338  -6.088  11.567  1.00  0.00     0.064 C 
BRANCH  12  13
HETATM   13  C7  UNL     1      -7.202  -6.712  12.593  1.00  0.00     0.057 C 
BRANCH  13  14
HETATM   14  N4  UNL     1      -8.396  -6.072  12.881  1.00  0.00    -0.397 N 
ATOM     15  H4  UNL     1      -8.924  -5.676  12.104  1.00  0.00     0.159 HD
BRANCH  14  16
HETATM   16  C8  UNL     1      -8.927  -5.933  14.167  1.00  0.00     0.084 C 
HETATM   17  C9  UNL     1      -8.007  -6.404  15.238  1.00  0.00     0.051 C 
HETATM   18  C10 UNL     1      -8.049  -5.492  16.464  1.00  0.00     0.169 C 
HETATM   19  O2  UNL     1      -7.828  -4.173  16.188  1.00  0.00    -0.391 OA
HETATM   20  C11 UNL     1      -7.994  -3.799  14.875  1.00  0.00     0.169 C 
HETATM   21  C12 UNL     1      -9.252  -4.433  14.360  1.00  0.00     0.051 C 
ENDBRANCH  14  16
ENDBRANCH  13  14
ENDBRANCH  12  13
ENDBRANCH  11  12
ENDBRANCH   9  11
ENDBRANCH   4   9
BRANCH   1  22
HETATM   22  N1  UNL     1      -1.014  -5.729  14.892  1.00  0.00    -0.157 N 
HETATM   23  C2  UNL     1      -1.293  -6.950  15.558  1.00  0.00     0.232 C 
HETATM   24  C1  UNL     1      -1.267  -7.066  17.042  1.00  0.00     0.118 C 
HETATM   25  O1  UNL     1      -1.568  -7.951  14.853  1.00  0.00    -0.273 OA
ATOM     26  H1  UNL     1      -0.064  -5.506  14.592  1.00  0.00     0.187 HD
ENDBRANCH   1  22
BRANCH   7  27
HETATM   27  N6  UNL     1      -2.727  -1.370  15.057  1.00  0.00    -0.115 N 
ATOM     28  H6  UNL     1      -2.636  -1.076  16.029  1.00  0.00     0.207 HD
BRANCH  27  29
HETATM   29  N7  UNL     1      -2.716  -0.526  14.147  1.00  0.00    -0.235 N 
HETATM   30  N8  UNL     1      -2.706   0.585  13.622  1.00  0.00    -0.330 N 
ATOM     31  H82 UNL     1      -2.710   1.145  14.475  1.00  0.00     0.178 HD
ATOM     32  H81 UNL     1      -2.696   1.279  12.875  1.00  0.00     0.178 HD
ATOM     33  H7  UNL     1      -2.712  -1.129  13.323  1.00  0.00     0.208 HD
ENDBRANCH  27  29
ENDBRANCH   7  27
BRANCH   8  34
HETATM   34  O3  UNL     1      -0.672  -3.155  15.515  1.00  0.00    -0.256 OA
ATOM     35  H3  UNL     1      -0.307  -2.339  15.195  1.00  0.00     0.246 HD
ENDBRANCH   8  34
TORSDOF 10
ENDMDL
MODEL 2
REMARK VINA RESULT: -7.604069551      1.396      1.742
REMARK  10 active torsions:
REMARK  status: ('A' for Active; 'I' for Inactive)
REMARK       I    between atoms: C2_2  and  N1_4 
REMARK    1  A    between atoms: N1_4  and  C3_6 
REMARK    2  A    between atoms: C4_9  and  N3_10 
REMARK    3  A    between atoms: N3_10  and  C5_12 
REMARK    4  A    between atoms: C5_12  and  C6_13 
REMARK    5  A    between atoms: C6_13  and  C7_14 
REMARK    6  A    between atoms: C7_14  and  N4_15 
REMARK    7  A    between atoms: N4_15  and  C8_17 
REMARK    8  A    between atoms: C13_25  and  N6_26 
REMARK    9  A    between atoms: N6_26  and  N7_28 
REMARK   10  A    between atoms: N9_33  and  O3_34 
ROOT
HETATM    1  C3  UNL     1      -2.022  -4.861  14.732  1.00  0.00     0.741 A 
HETATM    2  N2  UNL     1      -2.949  -5.299  13.876  1.00  0.00    -0.019 N 
ATOM      3  H2  UNL     1      -2.975  -6.281  13.602  1.00  0.00     0.203 HD
HETATM    4  C4  UNL     1      -3.846  -4.430  13.384  1.00  0.00     0.707 A 
HETATM    5  N5  UNL     1      -3.844  -3.144  13.716  1.00  0.00    -0.018 N 
ATOM      6  H5  UNL     1      -4.538  -2.506  13.325  1.00  0.00     0.203 HD
HETATM    7  C13 UNL     1      -2.898  -2.693  14.589  1.00  0.00     0.754 A 
HETATM    8  N9  UNL     1      -2.001  -3.553  15.086  1.00  0.00     0.129 N 
ENDROOT
BRANCH   4   9
HETATM    9  N3  UNL     1      -4.701  -4.901  12.571  1.00  0.00    -0.225 N 
ATOM     10  H3  UNL     1      -4.342  -5.471  11.806  1.00  0.00     0.177 HD
BRANCH   9  11
HETATM   11  C5  UNL     1      -6.087  -4.716  12.619  1.00  0.00     0.143 C 
BRANCH  11  12
HETATM   12  C6  UNL     1      -6.835  -6.016  12.940  1.00  0.00     0.064 C 
BRANCH  12  13
HETATM   13  C7  UNL     1      -7.283  -6.068  14.348  1.00  0.00     0.057 C 
BRANCH  13  14
HETATM   14  N4  UNL     1      -6.315  -5.894  15.322  1.00  0.00    -0.397 N 
ATOM     15  H4  UNL     1      -5.426  -6.379  15.202  1.00  0.00     0.159 HD
BRANCH  14  16
HETATM   16  C8  UNL     1      -6.473  -5.096  16.459  1.00  0.00     0.084 C 
HETATM   17  C9  UNL     1      -5.205  -4.473  16.925  1.00  0.00     0.051 C 
HETATM   18  C10 UNL     1      -5.418  -3.039  17.405  1.00  0.00     0.169 C 
HETATM   19  O2  UNL     1      -6.044  -2.232  16.498  1.00  0.00    -0.391 OA
HETATM   20  C11 UNL     1      -6.727  -2.876  15.494  1.00  0.00     0.169 C 
HETATM   21  C12 UNL     1      -7.508  -4.003  16.102  1.00  0.00     0.051 C 
ENDBRANCH  14  16
ENDBRANCH  13  14
ENDBRANCH  12  13
ENDBRANCH  11  12
ENDBRANCH   9  11
ENDBRANCH   4   9
BRANCH   1  22
HETATM   22  N1  UNL     1      -1.163  -5.690  15.203  1.00  0.00    -0.157 N 
HETATM   23  C2  UNL     1      -1.619  -6.947  15.681  1.00  0.00     0.232 C 
HETATM   24  C1  UNL     1      -2.066  -7.144  17.086  1.00  0.00     0.118 C 
HETATM   25  O1  UNL     1      -1.636  -7.907  14.873  1.00  0.00    -0.273 OA
ATOM     26  H1  UNL     1      -0.172  -5.451  15.235  1.00  0.00     0.187 HD
ENDBRANCH   1  22
BRANCH   7  27
HETATM   27  N6  UNL     1      -2.863  -1.330  14.970  1.00  0.00    -0.115 N 
ATOM     28  H6  UNL     1      -2.961  -1.071  15.952  1.00  0.00     0.207 HD
BRANCH  27  29
HETATM   29  N7  UNL     1      -2.713  -0.451  14.107  1.00  0.00    -0.235 N 
HETATM   30  N8  UNL     1      -2.688   0.676  13.619  1.00  0.00    -0.330 N 
ATOM     31  H82 UNL     1      -2.962   1.197  14.453  1.00  0.00     0.178 HD
ATOM     32  H81 UNL     1      -2.566   1.398  12.909  1.00  0.00     0.178 HD
ATOM     33  H7  UNL     1      -2.444  -1.016  13.301  1.00  0.00     0.208 HD
ENDBRANCH  27  29
ENDBRANCH   7  27
BRANCH   8  34
HETATM   34  O3  UNL     1      -1.031  -3.137  15.970  1.00  0.00    -0.256 OA
ATOM     35  H3  UNL     1      -0.508  -2.379  15.736  1.00  0.00     0.246 HD
ENDBRANCH   8  34
TORSDOF 10
ENDMDL
MODEL 3
REMARK VINA RESULT: -7.569097528      2.880      4.080
REMARK  10 active torsions:
REMARK  status: ('A' for Active; 'I' for Inactive)
REMARK       I    between atoms: C2_2  and  N1_4 
REMARK    1  A    between atoms: N1_4  and  C3_6 
REMARK    2  A    between atoms: C4_9  and  N3_10 
REMARK    3  A    between atoms: N3_10  and  C5_12 
REMARK    4  A    between atoms: C5_12  and  C6_13 
REMARK    5  A    between atoms: C6_13  and  C7_14 
REMARK    6  A    between atoms: C7_14  and  N4_15 
REMARK    7  A    between atoms: N4_15  and  C8_17 
REMARK    8  A    between atoms: C13_25  and  N6_26 
REMARK    9  A    between atoms: N6_26  and  N7_28 
REMARK   10  A    between atoms: N9_33  and  O3_34 
ROOT
HETATM    1  C3  UNL     1      -2.510  -6.046  16.404  1.00  0.00     0.741 A 
HETATM    2  N2  UNL     1      -3.369  -5.885  15.395  1.00  0.00    -0.019 N 
ATOM      3  H2  UNL     1      -4.153  -6.526  15.276  1.00  0.00     0.203 HD
HETATM    4  C4  UNL     1      -3.188  -4.866  14.539  1.00  0.00     0.707 A 
HETATM    5  N5  UNL     1      -2.180  -4.009  14.659  1.00  0.00    -0.018 N 
ATOM      6  H5  UNL     1      -2.067  -3.245  13.993  1.00  0.00     0.203 HD
HETATM    7  C13 UNL     1      -1.300  -4.171  15.688  1.00  0.00     0.754 A 
HETATM    8  N9  UNL     1      -1.474  -5.183  16.547  1.00  0.00     0.129 N 
ENDROOT
BRANCH   4   9
HETATM    9  N3  UNL     1      -4.033  -4.763  13.596  1.00  0.00    -0.225 N 
ATOM     10  H3  UNL     1      -4.302  -5.627  13.126  1.00  0.00     0.177 HD
BRANCH   9  11
HETATM   11  C5  UNL     1      -4.632  -3.585  13.136  1.00  0.00     0.143 C 
BRANCH  11  12
HETATM   12  C6  UNL     1      -6.156  -3.608  13.299  1.00  0.00     0.064 C 
BRANCH  12  13
HETATM   13  C7  UNL     1      -6.597  -2.893  14.517  1.00  0.00     0.057 C 
BRANCH  13  14
HETATM   14  N4  UNL     1      -6.179  -1.581  14.660  1.00  0.00    -0.397 N 
ATOM     15  H4  UNL     1      -6.340  -0.942  13.881  1.00  0.00     0.159 HD
BRANCH  14  16
HETATM   16  C8  UNL     1      -5.551  -1.072  15.801  1.00  0.00     0.084 C 
HETATM   17  C9  UNL     1      -4.859  -2.114  16.607  1.00  0.00     0.051 C 
HETATM   18  C10 UNL     1      -3.527  -1.613  17.161  1.00  0.00     0.169 C 
HETATM   19  O2  UNL     1      -2.684  -1.100  16.216  1.00  0.00    -0.391 OA
HETATM   20  C11 UNL     1      -3.268  -0.745  15.022  1.00  0.00     0.169 C 
HETATM   21  C12 UNL     1      -4.538  -0.006  15.320  1.00  0.00     0.051 C 
ENDBRANCH  14  16
ENDBRANCH  13  14
ENDBRANCH  12  13
ENDBRANCH  11  12
ENDBRANCH   9  11
ENDBRANCH   4   9
BRANCH   1  22
HETATM   22  N1  UNL     1      -2.681  -7.019  17.223  1.00  0.00    -0.157 N 
HETATM   23  C2  UNL     1      -3.954  -7.185  17.830  1.00  0.00     0.232 C 
HETATM   24  C1  UNL     1      -4.318  -6.505  19.102  1.00  0.00     0.118 C 
HETATM   25  O1  UNL     1      -4.781  -7.933  17.256  1.00  0.00    -0.273 OA
ATOM     26  H1  UNL     1      -1.917  -7.662  17.434  1.00  0.00     0.187 HD
ENDBRANCH   1  22
BRANCH   7  27
HETATM   27  N6  UNL     1      -0.213  -3.279  15.852  1.00  0.00    -0.115 N 
ATOM     28  H6  UNL     1       0.509  -3.216  15.135  1.00  0.00     0.207 HD
BRANCH  27  29
HETATM   29  N7  UNL     1      -0.143  -2.574  16.871  1.00  0.00    -0.235 N 
HETATM   30  N8  UNL     1       0.089  -1.581  17.557  1.00  0.00    -0.330 N 
ATOM     31  H82 UNL     1       0.434  -0.973  16.815  1.00  0.00     0.178 HD
ATOM     32  H81 UNL     1       0.147  -1.002  18.394  1.00  0.00     0.178 HD
ATOM     33  H7  UNL     1      -0.495  -3.220  17.578  1.00  0.00     0.208 HD
ENDBRANCH  27  29
ENDBRANCH   7  27
BRANCH   8  34
HETATM   34  O3  UNL     1      -0.608  -5.380  17.599  1.00  0.00    -0.256 OA
ATOM     35  H3  UNL     1       0.323  -5.288  17.435  1.00  0.00     0.246 HD
ENDBRANCH   8  34
TORSDOF 10
ENDMDL
MODEL 4
REMARK VINA RESULT: -7.566998016      1.583      1.671
REMARK  10 active torsions:
REMARK  status: ('A' for Active; 'I' for Inactive)
REMARK       I    between atoms: C2_2  and  N1_4 
REMARK    1  A    between atoms: N1_4  and  C3_6 
REMARK    2  A    between atoms: C4_9  and  N3_10 
REMARK    3  A    between atoms: N3_10  and  C5_12 
REMARK    4  A    between atoms: C5_12  and  C6_13 
REMARK    5  A    between atoms: C6_13  and  C7_14 
REMARK    6  A    between atoms: C7_14  and  N4_15 
REMARK    7  A    between atoms: N4_15  and  C8_17 
REMARK    8  A    between atoms: C13_25  and  N6_26 
REMARK    9  A    between atoms: N6_26  and  N7_28 
REMARK   10  A    between atoms: N9_33  and  O3_34 
ROOT
HETATM    1  C3  UNL     1      -2.356  -3.890  15.458  1.00  0.00     0.741 A 
HETATM    2  N2  UNL     1      -2.979  -4.691  14.590  1.00  0.00    -0.019 N 
ATOM      3  H2  UNL     1      -2.809  -5.697  14.602  1.00  0.00     0.203 HD
HETATM    4  C4  UNL     1      -3.832  -4.155  13.703  1.00  0.00     0.707 A 
HETATM    5  N5  UNL     1      -4.079  -2.851  13.655  1.00  0.00    -0.018 N 
ATOM      6  H5  UNL     1      -4.732  -2.471  12.969  1.00  0.00     0.203 HD
HETATM    7  C13 UNL     1      -3.444  -2.030  14.540  1.00  0.00     0.754 A 
HETATM    8  N9  UNL     1      -2.593  -2.556  15.429  1.00  0.00     0.129 N 
ENDROOT
BRANCH   4   9
HETATM    9  N3  UNL     1      -4.392  -4.963  12.898  1.00  0.00    -0.225 N 
ATOM     10  H3  UNL     1      -4.020  -5.912  12.868  1.00  0.00     0.177 HD
BRANCH   9  11
HETATM   11  C5  UNL     1      -5.469  -4.683  12.050  1.00  0.00     0.143 C 
BRANCH  11  12
HETATM   12  C6  UNL     1      -6.195  -5.955  11.596  1.00  0.00     0.064 C 
BRANCH  12  13
HETATM   13  C7  UNL     1      -7.134  -6.458  12.622  1.00  0.00     0.057 C 
BRANCH  13  14
HETATM   14  N4  UNL     1      -7.844  -5.511  13.341  1.00  0.00    -0.397 N 
ATOM     15  H4  UNL     1      -8.310  -4.769  12.820  1.00  0.00     0.159 HD
BRANCH  14  16
HETATM   16  C8  UNL     1      -7.963  -5.504  14.734  1.00  0.00     0.084 C 
HETATM   17  C9  UNL     1      -6.701  -5.865  15.436  1.00  0.00     0.051 C 
HETATM   18  C10 UNL     1      -6.484  -5.017  16.688  1.00  0.00     0.169 C 
HETATM   19  O2  UNL     1      -6.542  -3.670  16.469  1.00  0.00    -0.391 OA
HETATM   20  C11 UNL     1      -7.157  -3.278  15.303  1.00  0.00     0.169 C 
HETATM   21  C12 UNL     1      -8.414  -4.081  15.141  1.00  0.00     0.051 C 
ENDBRANCH  14  16
ENDBRANCH  13  14
ENDBRANCH  12  13
ENDBRANCH  11  12
ENDBRANCH   9  11
ENDBRANCH   4   9
BRANCH   1  22
HETATM   22  N1  UNL     1      -1.540  -4.401  16.307  1.00  0.00    -0.157 N 
HETATM   23  C2  UNL     1      -0.176  -4.545  15.943  1.00  0.00     0.232 C 
HETATM   24  C1  UNL     1       0.333  -5.757  15.246  1.00  0.00     0.118 C 
HETATM   25  O1  UNL     1       0.607  -3.607  16.227  1.00  0.00    -0.273 OA
ATOM     26  H1  UNL     1      -1.866  -4.699  17.227  1.00  0.00     0.187 HD
ENDBRANCH   1  22
BRANCH   7  27
HETATM   27  N6  UNL     1      -3.681  -0.634  14.523  1.00  0.00    -0.115 N 
ATOM     28  H6  UNL     1      -4.532  -0.255  14.939  1.00  0.00     0.207 HD
BRANCH  27  29
HETATM   29  N7  UNL     1      -2.851   0.127  14.002  1.00  0.00    -0.235 N 
HETATM   30  N8  UNL     1      -2.109   1.100  13.887  1.00  0.00    -0.330 N 
ATOM     31  H82 UNL     1      -2.320   1.544  14.781  1.00  0.00     0.178 HD
ATOM     32  H81 UNL     1      -1.427   1.725  13.459  1.00  0.00     0.178 HD
ATOM     33  H7  UNL     1      -2.674  -0.356  13.120  1.00  0.00     0.208 HD
ENDBRANCH  27  29
ENDBRANCH   7  27
BRANCH   8  34
HETATM   34  O3  UNL     1      -1.933  -1.761  16.339  1.00  0.00    -0.256 OA
ATOM     35  H3  UNL     1      -1.260  -1.175  16.014  1.00  0.00     0.246 HD
ENDBRANCH   8  34
TORSDOF 10
ENDMDL
MODEL 5
REMARK VINA RESULT: -7.509444163      2.251      6.123
REMARK  10 active torsions:
REMARK  status: ('A' for Active; 'I' for Inactive)
REMARK       I    between atoms: C2_2  and  N1_4 
REMARK    1  A    between atoms: N1_4  and  C3_6 
REMARK    2  A    between atoms: C4_9  and  N3_10 
REMARK    3  A    between atoms: N3_10  and  C5_12 
REMARK    4  A    between atoms: C5_12  and  C6_13 
REMARK    5  A    between atoms: C6_13  and  C7_14 
REMARK    6  A    between atoms: C7_14  and  N4_15 
REMARK    7  A    between atoms: N4_15  and  C8_17 
REMARK    8  A    between atoms: C13_25  and  N6_26 
REMARK    9  A    between atoms: N6_26  and  N7_28 
REMARK   10  A    between atoms: N9_33  and  O3_34 
ROOT
HETATM    1  C3  UNL     1      -4.812  -3.459  15.131  1.00  0.00     0.741 A 
HETATM    2  N2  UNL     1      -4.620  -3.218  16.430  1.00  0.00    -0.019 N 
ATOM      3  H2  UNL     1      -5.093  -3.783  17.136  1.00  0.00     0.203 HD
HETATM    4  C4  UNL     1      -3.797  -2.222  16.795  1.00  0.00     0.707 A 
HETATM    5  N5  UNL     1      -3.164  -1.464  15.908  1.00  0.00    -0.018 N 
ATOM      6  H5  UNL     1      -2.544  -0.713  16.214  1.00  0.00     0.203 HD
HETATM    7  C13 UNL     1      -3.357  -1.707  14.580  1.00  0.00     0.754 A 
HETATM    8  N9  UNL     1      -4.176  -2.699  14.206  1.00  0.00     0.129 N 
ENDROOT
BRANCH   4   9
HETATM    9  N3  UNL     1      -3.656  -2.034  18.044  1.00  0.00    -0.225 N 
ATOM     10  H3  UNL     1      -3.591  -1.066  18.357  1.00  0.00     0.177 HD
BRANCH   9  11
HETATM   11  C5  UNL     1      -3.579  -3.021  19.033  1.00  0.00     0.143 C 
BRANCH  11  12
HETATM   12  C6  UNL     1      -2.158  -3.574  19.192  1.00  0.00     0.064 C 
BRANCH  12  13
HETATM   13  C7  UNL     1      -1.974  -4.854  18.473  1.00  0.00     0.057 C 
BRANCH  13  14
HETATM   14  N4  UNL     1      -1.083  -4.856  17.413  1.00  0.00    -0.397 N 
ATOM     15  H4  UNL     1      -0.893  -3.968  16.949  1.00  0.00     0.159 HD
BRANCH  14  16
HETATM   16  C8  UNL     1      -0.426  -5.994  16.937  1.00  0.00     0.084 C 
HETATM   17  C9  UNL     1      -1.213  -7.245  17.111  1.00  0.00     0.051 C 
HETATM   18  C10 UNL     1      -1.075  -8.176  15.908  1.00  0.00     0.169 C 
HETATM   19  O2  UNL     1      -1.367  -7.589  14.709  1.00  0.00    -0.391 OA
HETATM   20  C11 UNL     1      -1.350  -6.214  14.695  1.00  0.00     0.169 C 
HETATM   21  C12 UNL     1      -0.133  -5.750  15.437  1.00  0.00     0.051 C 
ENDBRANCH  14  16
ENDBRANCH  13  14
ENDBRANCH  12  13
ENDBRANCH  11  12
ENDBRANCH   9  11
ENDBRANCH   4   9
BRANCH   1  22
HETATM   22  N1  UNL     1      -5.599  -4.411  14.780  1.00  0.00    -0.157 N 
HETATM   23  C2  UNL     1      -6.955  -4.106  14.494  1.00  0.00     0.232 C 
HETATM   24  C1  UNL     1      -8.003  -4.094  15.551  1.00  0.00     0.118 C 
HETATM   25  O1  UNL     1      -7.256  -3.840  13.306  1.00  0.00    -0.273 OA
ATOM     26  H1  UNL     1      -5.256  -5.369  14.709  1.00  0.00     0.187 HD
ENDBRANCH   1  22
BRANCH   7  27
HETATM   27  N6  UNL     1      -2.700  -0.923  13.601  1.00  0.00    -0.115 N 
ATOM     28  H6  UNL     1      -2.320  -1.363  12.764  1.00  0.00     0.207 HD
BRANCH  27  29
HETATM   29  N7  UNL     1      -2.588   0.302  13.766  1.00  0.00    -0.235 N 
HETATM   30  N8  UNL     1      -2.034   1.380  13.968  1.00  0.00    -0.330 N 
ATOM     31  H82 UNL     1      -1.077   1.034  14.045  1.00  0.00     0.178 HD
ATOM     32  H81 UNL     1      -1.941   2.387  14.104  1.00  0.00     0.178 HD
ATOM     33  H7  UNL     1      -3.561   0.599  13.681  1.00  0.00     0.208 HD
ENDBRANCH  27  29
ENDBRANCH   7  27
BRANCH   8  34
HETATM   34  O3  UNL     1      -4.397  -2.977  12.877  1.00  0.00    -0.256 OA
ATOM     35  H3  UNL     1      -4.356  -2.258  12.257  1.00  0.00     0.246 HD
ENDBRANCH   8  34
TORSDOF 10
ENDMDL
