MODEL 1
REMARK VINA RESULT: -7.172604921      0.000      0.000
REMARK  7 active torsions:
REMARK  status: ('A' for Active; 'I' for Inactive)
REMARK    1  A    between atoms: C2_2  and  S1_3 
REMARK    2  A    between atoms: S1_3  and  N1_6 
REMARK    3  A    between atoms: N1_6  and  C3_8 
REMARK    4  A    between atoms: C4_9  and  O3_10 
REMARK    5  A    between atoms: O3_10  and  C5_11 
REMARK    6  A    between atoms: C12_22  and  O5_23 
REMARK    7  A    between atoms: C14_25  and  O6_26 
ROOT
HETATM    1  C3  UNL     1      -3.691  -3.542  15.515  1.00  0.00     0.153 C 
HETATM    2  C4  UNL     1      -2.439  -2.715  15.293  1.00  0.00     0.157 C 
HETATM    3  C7  UNL     1      -1.229  -3.577  15.152  1.00  0.00     0.037 C 
HETATM    4  C8  UNL     1      -1.356  -4.659  16.235  1.00  0.00     0.047 C 
HETATM    5  C9  UNL     1      -2.351  -5.672  15.698  1.00  0.00     0.179 C 
HETATM    6  N2  UNL     1      -1.621  -6.543  14.797  1.00  0.00    -0.061 N 
ATOM      7  H21 UNL     1      -0.849  -6.072  14.324  1.00  0.00     0.278 HD
ATOM      8  H22 UNL     1      -2.155  -6.791  13.963  1.00  0.00     0.278 HD
HETATM    9  C10 UNL     1      -1.201  -7.688  15.558  1.00  0.00     0.236 C 
HETATM   10  C11 UNL     1      -1.591  -7.448  16.996  1.00  0.00     0.062 C 
HETATM   11  C12 UNL     1      -2.848  -6.592  16.784  1.00  0.00     0.161 C 
HETATM   12  C14 UNL     1      -3.504  -4.985  15.057  1.00  0.00     0.182 C 
ENDROOT
BRANCH  11  13
HETATM   13  O5  UNL     1      -3.810  -7.409  16.250  1.00  0.00    -0.388 OA
HETATM   14  C13 UNL     1      -4.963  -7.542  16.973  1.00  0.00     0.202 C 
ENDBRANCH  11  13
BRANCH  12  15
HETATM   15  O6  UNL     1      -3.416  -5.027  13.641  1.00  0.00    -0.391 OA
ATOM     16  H6  UNL     1      -3.072  -5.870  13.368  1.00  0.00     0.210 HD
ENDBRANCH  12  15
BRANCH   1  17
HETATM   17  N1  UNL     1      -4.823  -2.994  14.802  1.00  0.00    -0.310 N 
ATOM     18  H1  UNL     1      -4.842  -2.842  13.794  1.00  0.00     0.172 HD
BRANCH  17  19
HETATM   19  S1  UNL     1      -6.143  -2.626  15.859  1.00  0.00     0.226 S 
HETATM   20  O1  UNL     1      -6.456  -1.162  15.735  1.00  0.00    -0.206 OA
HETATM   21  O2  UNL     1      -5.784  -2.962  17.264  1.00  0.00    -0.206 OA
BRANCH  19  22
HETATM   22  C2  UNL     1      -7.605  -3.518  15.403  1.00  0.00     0.158 C 
HETATM   23  C1  UNL     1      -7.619  -4.798  16.222  1.00  0.00     0.023 C 
ENDBRANCH  19  22
ENDBRANCH  17  19
ENDBRANCH   1  17
BRANCH   2  24
HETATM   24  O3  UNL     1      -2.591  -1.693  14.377  1.00  0.00    -0.314 OA
BRANCH  24  25
HETATM   25  C5  UNL     1      -2.861  -0.378  14.634  1.00  0.00     0.255 C 
HETATM   26  C6  UNL     1      -3.275   0.197  15.912  1.00  0.00     0.126 C 
HETATM   27  O4  UNL     1      -2.722   0.363  13.631  1.00  0.00    -0.266 OA
ENDBRANCH  24  25
ENDBRANCH   2  24
TORSDOF 7
ENDMDL
MODEL 2
REMARK VINA RESULT: -6.785671559      2.231      4.099
REMARK  7 active torsions:
REMARK  status: ('A' for Active; 'I' for Inactive)
REMARK    1  A    between atoms: C2_2  and  S1_3 
REMARK    2  A    between atoms: S1_3  and  N1_6 
REMARK    3  A    between atoms: N1_6  and  C3_8 
REMARK    4  A    between atoms: C4_9  and  O3_10 
REMARK    5  A    between atoms: O3_10  and  C5_11 
REMARK    6  A    between atoms: C12_22  and  O5_23 
REMARK    7  A    between atoms: C14_25  and  O6_26 
ROOT
HETATM    1  C3  UNL     1      -2.545  -3.635  16.173  1.00  0.00     0.153 C 
HETATM    2  C4  UNL     1      -1.476  -4.363  16.966  1.00  0.00     0.157 C 
HETATM    3  C7  UNL     1      -1.937  -5.717  17.395  1.00  0.00     0.037 C 
HETATM    4  C8  UNL     1      -3.384  -5.534  17.878  1.00  0.00     0.047 C 
HETATM    5  C9  UNL     1      -4.235  -5.452  16.625  1.00  0.00     0.179 C 
HETATM    6  N2  UNL     1      -4.468  -6.814  16.183  1.00  0.00    -0.061 N 
ATOM      7  H21 UNL     1      -3.698  -7.444  16.409  1.00  0.00     0.278 HD
ATOM      8  H22 UNL     1      -4.429  -6.916  15.169  1.00  0.00     0.278 HD
HETATM    9  C10 UNL     1      -5.723  -7.235  16.744  1.00  0.00     0.236 C 
HETATM   10  C11 UNL     1      -6.212  -6.132  17.649  1.00  0.00     0.062 C 
HETATM   11  C12 UNL     1      -5.613  -4.918  16.924  1.00  0.00     0.161 C 
HETATM   12  C14 UNL     1      -3.578  -4.598  15.599  1.00  0.00     0.182 C 
ENDROOT
BRANCH  11  13
HETATM   13  O5  UNL     1      -6.288  -4.778  15.739  1.00  0.00    -0.388 OA
HETATM   14  C13 UNL     1      -7.509  -4.168  15.804  1.00  0.00     0.202 C 
ENDBRANCH  11  13
BRANCH  12  15
HETATM   15  O6  UNL     1      -2.984  -5.378  14.573  1.00  0.00    -0.391 OA
ATOM     16  H6  UNL     1      -2.554  -6.134  14.956  1.00  0.00     0.210 HD
ENDBRANCH  12  15
BRANCH   1  17
HETATM   17  N1  UNL     1      -1.975  -2.890  15.073  1.00  0.00    -0.310 N 
ATOM     18  H1  UNL     1      -1.020  -3.013  14.736  1.00  0.00     0.172 HD
BRANCH  17  19
HETATM   19  S1  UNL     1      -3.101  -1.764  14.394  1.00  0.00     0.226 S 
HETATM   20  O1  UNL     1      -4.116  -2.531  13.597  1.00  0.00    -0.206 OA
HETATM   21  O2  UNL     1      -2.389  -0.787  13.526  1.00  0.00    -0.206 OA
BRANCH  19  22
HETATM   22  C2  UNL     1      -3.978  -0.885  15.660  1.00  0.00     0.158 C 
HETATM   23  C1  UNL     1      -5.460  -1.113  15.415  1.00  0.00     0.023 C 
ENDBRANCH  19  22
ENDBRANCH  17  19
ENDBRANCH   1  17
BRANCH   2  24
HETATM   24  O3  UNL     1      -0.210  -4.274  16.423  1.00  0.00    -0.314 OA
BRANCH  24  25
HETATM   25  C5  UNL     1       0.439  -5.210  15.667  1.00  0.00     0.255 C 
HETATM   26  C6  UNL     1       1.467  -6.144  16.121  1.00  0.00     0.126 C 
HETATM   27  O4  UNL     1       0.072  -5.220  14.467  1.00  0.00    -0.266 OA
ENDBRANCH  24  25
ENDBRANCH   2  24
TORSDOF 7
ENDMDL
MODEL 3
REMARK VINA RESULT: -6.757459504      2.678      5.248
REMARK  7 active torsions:
REMARK  status: ('A' for Active; 'I' for Inactive)
REMARK    1  A    between atoms: C2_2  and  S1_3 
REMARK    2  A    between atoms: S1_3  and  N1_6 
REMARK    3  A    between atoms: N1_6  and  C3_8 
REMARK    4  A    between atoms: C4_9  and  O3_10 
REMARK    5  A    between atoms: O3_10  and  C5_11 
REMARK    6  A    between atoms: C12_22  and  O5_23 
REMARK    7  A    between atoms: C14_25  and  O6_26 
ROOT
HETATM    1  C3  UNL     1      -2.639  -4.639  15.241  1.00  0.00     0.153 C 
HETATM    2  C4  UNL     1      -2.162  -3.200  15.292  1.00  0.00     0.157 C 
HETATM    3  C7  UNL     1      -3.304  -2.247  15.416  1.00  0.00     0.037 C 
HETATM    4  C8  UNL     1      -4.382  -2.756  14.448  1.00  0.00     0.047 C 
HETATM    5  C9  UNL     1      -5.055  -3.922  15.147  1.00  0.00     0.179 C 
HETATM    6  N2  UNL     1      -6.028  -3.360  16.064  1.00  0.00    -0.061 N 
ATOM      7  H21 UNL     1      -5.750  -2.450  16.432  1.00  0.00     0.278 HD
ATOM      8  H22 UNL     1      -6.070  -3.856  16.954  1.00  0.00     0.278 HD
HETATM    9  C10 UNL     1      -7.291  -3.328  15.377  1.00  0.00     0.236 C 
HETATM   10  C11 UNL     1      -7.051  -3.779  13.958  1.00  0.00     0.062 C 
HETATM   11  C12 UNL     1      -5.879  -4.744  14.188  1.00  0.00     0.161 C 
HETATM   12  C14 UNL     1      -4.045  -4.790  15.810  1.00  0.00     0.182 C 
ENDROOT
BRANCH  11  13
HETATM   13  O5  UNL     1      -6.373  -5.829  14.864  1.00  0.00    -0.388 OA
HETATM   14  C13 UNL     1      -7.352  -6.544  14.233  1.00  0.00     0.202 C 
ENDBRANCH  11  13
BRANCH  12  15
HETATM   15  O6  UNL     1      -4.016  -4.579  17.214  1.00  0.00    -0.391 OA
ATOM     16  H6  UNL     1      -4.571  -5.219  17.644  1.00  0.00     0.210 HD
ENDBRANCH  12  15
BRANCH   1  17
HETATM   17  N1  UNL     1      -1.762  -5.515  15.987  1.00  0.00    -0.310 N 
ATOM     18  H1  UNL     1      -1.631  -5.464  16.997  1.00  0.00     0.172 HD
BRANCH  17  19
HETATM   19  S1  UNL     1      -0.962  -6.661  14.965  1.00  0.00     0.226 S 
HETATM   20  O1  UNL     1      -0.851  -6.073  13.588  1.00  0.00    -0.206 OA
HETATM   21  O2  UNL     1      -1.731  -7.935  14.925  1.00  0.00    -0.206 OA
BRANCH  19  22
HETATM   22  C2  UNL     1       0.684  -6.993  15.532  1.00  0.00     0.158 C 
HETATM   23  C1  UNL     1       1.177  -5.736  16.228  1.00  0.00     0.023 C 
ENDBRANCH  19  22
ENDBRANCH  17  19
ENDBRANCH   1  17
BRANCH   2  24
HETATM   24  O3  UNL     1      -1.079  -2.992  16.122  1.00  0.00    -0.314 OA
BRANCH  24  25
HETATM   25  C5  UNL     1      -1.095  -2.565  17.421  1.00  0.00     0.255 C 
HETATM   26  C6  UNL     1      -0.777  -1.224  17.906  1.00  0.00     0.126 C 
HETATM   27  O4  UNL     1      -1.424  -3.462  18.235  1.00  0.00    -0.266 OA
ENDBRANCH  24  25
ENDBRANCH   2  24
TORSDOF 7
ENDMDL
MODEL 4
REMARK VINA RESULT: -6.716896723      2.312      5.529
REMARK  7 active torsions:
REMARK  status: ('A' for Active; 'I' for Inactive)
REMARK    1  A    between atoms: C2_2  and  S1_3 
REMARK    2  A    between atoms: S1_3  and  N1_6 
REMARK    3  A    between atoms: N1_6  and  C3_8 
REMARK    4  A    between atoms: C4_9  and  O3_10 
REMARK    5  A    between atoms: O3_10  and  C5_11 
REMARK    6  A    between atoms: C12_22  and  O5_23 
REMARK    7  A    between atoms: C14_25  and  O6_26 
ROOT
HETATM    1  C3  UNL     1      -5.045  -4.452  16.124  1.00  0.00     0.153 C 
HETATM    2  C4  UNL     1      -6.479  -3.960  16.122  1.00  0.00     0.157 C 
HETATM    3  C7  UNL     1      -6.562  -2.512  15.768  1.00  0.00     0.037 C 
HETATM    4  C8  UNL     1      -5.425  -1.826  16.539  1.00  0.00     0.047 C 
HETATM    5  C9  UNL     1      -4.156  -2.120  15.760  1.00  0.00     0.179 C 
HETATM    6  N2  UNL     1      -4.101  -1.168  14.667  1.00  0.00    -0.061 N 
ATOM      7  H21 UNL     1      -5.024  -0.892  14.331  1.00  0.00     0.278 HD
ATOM      8  H22 UNL     1      -3.762  -1.578  13.797  1.00  0.00     0.278 HD
HETATM    9  C10 UNL     1      -3.308  -0.055  15.112  1.00  0.00     0.236 C 
HETATM   10  C11 UNL     1      -2.966  -0.288  16.563  1.00  0.00     0.062 C 
HETATM   11  C12 UNL     1      -2.923  -1.823  16.574  1.00  0.00     0.161 C 
HETATM   12  C14 UNL     1      -4.132  -3.539  15.313  1.00  0.00     0.182 C 
ENDROOT
BRANCH  11  13
HETATM   13  O5  UNL     1      -1.824  -2.204  15.849  1.00  0.00    -0.388 OA
HETATM   14  C13 UNL     1      -0.930  -3.020  16.483  1.00  0.00     0.202 C 
ENDBRANCH  11  13
BRANCH  12  15
HETATM   15  O6  UNL     1      -4.443  -3.658  13.934  1.00  0.00    -0.391 OA
ATOM     16  H6  UNL     1      -3.642  -3.778  13.436  1.00  0.00     0.210 HD
ENDBRANCH  12  15
BRANCH   1  17
HETATM   17  N1  UNL     1      -4.940  -5.786  15.573  1.00  0.00    -0.310 N 
ATOM     18  H1  UNL     1      -5.312  -6.056  14.662  1.00  0.00     0.172 HD
BRANCH  17  19
HETATM   19  S1  UNL     1      -4.112  -6.869  16.639  1.00  0.00     0.226 S 
HETATM   20  O1  UNL     1      -2.952  -7.469  15.898  1.00  0.00    -0.206 OA
HETATM   21  O2  UNL     1      -5.038  -7.938  17.104  1.00  0.00    -0.206 OA
BRANCH  19  22
HETATM   22  C2  UNL     1      -3.456  -6.015  18.046  1.00  0.00     0.158 C 
HETATM   23  C1  UNL     1      -1.999  -6.426  18.177  1.00  0.00     0.023 C 
ENDBRANCH  19  22
ENDBRANCH  17  19
ENDBRANCH   1  17
BRANCH   2  24
HETATM   24  O3  UNL     1      -7.369  -4.811  15.497  1.00  0.00    -0.314 OA
BRANCH  24  25
HETATM   25  C5  UNL     1      -8.012  -4.615  14.306  1.00  0.00     0.255 C 
HETATM   26  C6  UNL     1      -9.412  -4.243  14.118  1.00  0.00     0.126 C 
HETATM   27  O4  UNL     1      -7.272  -4.786  13.308  1.00  0.00    -0.266 OA
ENDBRANCH  24  25
ENDBRANCH   2  24
TORSDOF 7
ENDMDL
MODEL 5
REMARK VINA RESULT: -6.682120877      2.734      5.480
REMARK  7 active torsions:
REMARK  status: ('A' for Active; 'I' for Inactive)
REMARK    1  A    between atoms: C2_2  and  S1_3 
REMARK    2  A    between atoms: S1_3  and  N1_6 
REMARK    3  A    between atoms: N1_6  and  C3_8 
REMARK    4  A    between atoms: C4_9  and  O3_10 
REMARK    5  A    between atoms: O3_10  and  C5_11 
REMARK    6  A    between atoms: C12_22  and  O5_23 
REMARK    7  A    between atoms: C14_25  and  O6_26 
ROOT
HETATM    1  C3  UNL     1      -5.301  -3.908  15.505  1.00  0.00     0.153 C 
HETATM    2  C4  UNL     1      -6.641  -3.308  15.123  1.00  0.00     0.157 C 
HETATM    3  C7  UNL     1      -6.520  -1.856  14.800  1.00  0.00     0.037 C 
HETATM    4  C8  UNL     1      -5.594  -1.263  15.872  1.00  0.00     0.047 C 
HETATM    5  C9  UNL     1      -4.184  -1.646  15.464  1.00  0.00     0.179 C 
HETATM    6  N2  UNL     1      -3.763  -0.694  14.455  1.00  0.00    -0.061 N 
ATOM      7  H21 UNL     1      -4.535  -0.346  13.886  1.00  0.00     0.278 HD
ATOM      8  H22 UNL     1      -3.226  -1.122  13.701  1.00  0.00     0.278 HD
HETATM    9  C10 UNL     1      -3.046   0.354  15.132  1.00  0.00     0.236 C 
HETATM   10  C11 UNL     1      -3.135   0.084  16.613  1.00  0.00     0.062 C 
HETATM   11  C12 UNL     1      -3.206  -1.450  16.593  1.00  0.00     0.161 C 
HETATM   12  C14 UNL     1      -4.138  -3.060  15.002  1.00  0.00     0.182 C 
ENDROOT
BRANCH  11  13
HETATM   13  O5  UNL     1      -1.979  -1.907  16.187  1.00  0.00    -0.388 OA
HETATM   14  C13 UNL     1      -1.232  -2.561  17.126  1.00  0.00     0.202 C 
ENDBRANCH  11  13
BRANCH  12  15
HETATM   15  O6  UNL     1      -4.063  -3.145  13.587  1.00  0.00    -0.391 OA
ATOM     16  H6  UNL     1      -4.620  -2.480  13.198  1.00  0.00     0.210 HD
ENDBRANCH  12  15
BRANCH   1  17
HETATM   17  N1  UNL     1      -5.143  -5.241  14.966  1.00  0.00    -0.310 N 
ATOM     18  H1  UNL     1      -4.965  -5.440  13.982  1.00  0.00     0.172 HD
BRANCH  17  19
HETATM   19  S1  UNL     1      -5.291  -6.459  16.187  1.00  0.00     0.226 S 
HETATM   20  O1  UNL     1      -4.036  -7.284  16.189  1.00  0.00    -0.206 OA
HETATM   21  O2  UNL     1      -6.476  -7.317  15.913  1.00  0.00    -0.206 OA
BRANCH  19  22
HETATM   22  C2  UNL     1      -5.453  -5.742  17.799  1.00  0.00     0.158 C 
HETATM   23  C1  UNL     1      -6.915  -5.865  18.197  1.00  0.00     0.023 C 
ENDBRANCH  19  22
ENDBRANCH  17  19
ENDBRANCH   1  17
BRANCH   2  24
HETATM   24  O3  UNL     1      -7.381  -4.085  14.254  1.00  0.00    -0.314 OA
BRANCH  24  25
HETATM   25  C5  UNL     1      -8.690  -4.460  14.382  1.00  0.00     0.255 C 
HETATM   26  C6  UNL     1      -9.254  -5.332  15.409  1.00  0.00     0.126 C 
HETATM   27  O4  UNL     1      -9.435  -3.973  13.497  1.00  0.00    -0.266 OA
ENDBRANCH  24  25
ENDBRANCH   2  24
TORSDOF 7
ENDMDL
