MODEL 1
REMARK VINA RESULT: -6.317892610      0.000      0.000
REMARK  11 active torsions:
REMARK  status: ('A' for Active; 'I' for Inactive)
REMARK    1  A    between atoms: N1_1  and  C1_5 
REMARK    2  A    between atoms: C3_7  and  C4_8 
REMARK    3  A    between atoms: C4_8  and  S1_9 
REMARK    4  A    between atoms: S1_9  and  N2_10 
REMARK    5  A    between atoms: C5_15  and  C6_16 
REMARK    6  A    between atoms: C7_17  and  C8_18 
REMARK    7  A    between atoms: C8_18  and  S2_19 
REMARK    8  A    between atoms: S2_19  and  C9_21 
REMARK    9  A    between atoms: C9_21  and  C10_22 
REMARK   10  A    between atoms: C11_23  and  C12_24 
REMARK   11  A    between atoms: C12_24  and  O4_25 
ROOT
HETATM    1  C1  UNL     1      -0.727  -4.314  15.751  1.00  0.00     0.319 C 
HETATM    2  C2  UNL     1      -1.981  -3.737  15.121  1.00  0.00     0.069 C 
HETATM    3  C3  UNL     1      -2.464  -2.804  16.176  1.00  0.00     0.038 C 
HETATM    4  C5  UNL     1      -1.213  -2.585  17.000  1.00  0.00     0.152 C 
HETATM    5  O5  UNL     1      -0.656  -3.839  17.052  1.00  0.00    -0.349 OA
ENDROOT
BRANCH   4   6
HETATM    6  C6  UNL     1      -1.453  -1.970  18.306  1.00  0.00     0.002 C 
HETATM    7  C7  UNL     1      -0.690  -1.055  18.866  1.00  0.00    -0.016 C 
BRANCH   7   8
HETATM    8  C8  UNL     1       0.535  -0.453  18.346  1.00  0.00     0.136 C 
BRANCH   8   9
HETATM    9  S2  UNL     1       0.747   1.231  18.911  1.00  0.00     0.029 S 
HETATM   10  O3  UNL     1      -0.728   1.894  19.365  1.00  0.00    -0.257 OA
BRANCH   9  11
HETATM   11  C9  UNL     1       1.546   2.239  17.687  1.00  0.00     0.202 C 
BRANCH  11  12
HETATM   12  C10 UNL     1       0.656   2.473  16.553  1.00  0.00    -0.092 C 
HETATM   13  C11 UNL     1      -0.082   2.679  15.623  1.00  0.00    -0.080 C 
BRANCH  13  14
HETATM   14  C12 UNL     1      -0.999   2.925  14.483  1.00  0.00     0.257 C 
BRANCH  14  15
HETATM   15  O4  UNL     1      -1.347   1.713  13.937  1.00  0.00    -0.389 OA
ATOM     16  H4  UNL     1      -2.157   1.824  13.453  1.00  0.00     0.210 HD
ENDBRANCH  14  15
ENDBRANCH  13  14
ENDBRANCH  11  12
ENDBRANCH   9  11
ENDBRANCH   8   9
ENDBRANCH   7   8
ENDBRANCH   4   6
BRANCH   3  17
HETATM   17  C4  UNL     1      -2.964  -1.486  15.700  1.00  0.00     0.170 C 
BRANCH  17  18
HETATM   18  S1  UNL     1      -4.702  -1.421  15.427  1.00  0.00     0.224 S 
HETATM   19  O1  UNL     1      -5.076  -0.012  15.055  1.00  0.00    -0.206 OA
HETATM   20  O2  UNL     1      -5.120  -2.348  14.320  1.00  0.00    -0.206 OA
BRANCH  18  21
HETATM   21  N2  UNL     1      -5.599  -1.880  16.828  1.00  0.00    -0.328 N 
ATOM     22  H22 UNL     1      -5.170  -2.311  17.647  1.00  0.00     0.168 HD
ATOM     23  H21 UNL     1      -6.593  -1.669  16.735  1.00  0.00     0.168 HD
ENDBRANCH  18  21
ENDBRANCH  17  18
ENDBRANCH   3  17
BRANCH   1  24
HETATM   24  N1  UNL     1       0.413  -3.791  15.042  1.00  0.00    -0.053 N 
ATOM     25  H13 UNL     1       0.415  -4.050  14.056  1.00  0.00     0.277 HD
ATOM     26  H12 UNL     1       0.370  -2.780  14.919  1.00  0.00     0.277 HD
ATOM     27  H11 UNL     1       1.257  -4.092  15.531  1.00  0.00     0.277 HD
ENDBRANCH   1  24
TORSDOF 11
ENDMDL
MODEL 2
REMARK VINA RESULT: -6.246390102      3.350      6.381
REMARK  11 active torsions:
REMARK  status: ('A' for Active; 'I' for Inactive)
REMARK    1  A    between atoms: N1_1  and  C1_5 
REMARK    2  A    between atoms: C3_7  and  C4_8 
REMARK    3  A    between atoms: C4_8  and  S1_9 
REMARK    4  A    between atoms: S1_9  and  N2_10 
REMARK    5  A    between atoms: C5_15  and  C6_16 
REMARK    6  A    between atoms: C7_17  and  C8_18 
REMARK    7  A    between atoms: C8_18  and  S2_19 
REMARK    8  A    between atoms: S2_19  and  C9_21 
REMARK    9  A    between atoms: C9_21  and  C10_22 
REMARK   10  A    between atoms: C11_23  and  C12_24 
REMARK   11  A    between atoms: C12_24  and  O4_25 
ROOT
HETATM    1  C1  UNL     1      -0.732  -2.035  17.816  1.00  0.00     0.319 C 
HETATM    2  C2  UNL     1      -2.105  -1.657  17.294  1.00  0.00     0.069 C 
HETATM    3  C3  UNL     1      -2.193  -2.447  16.035  1.00  0.00     0.038 C 
HETATM    4  C5  UNL     1      -1.144  -3.515  16.259  1.00  0.00     0.152 C 
HETATM    5  O5  UNL     1      -0.118  -2.819  16.851  1.00  0.00    -0.349 OA
ENDROOT
BRANCH   4   6
HETATM    6  C6  UNL     1      -0.766  -4.250  15.052  1.00  0.00     0.002 C 
HETATM    7  C7  UNL     1      -0.266  -5.466  15.028  1.00  0.00    -0.016 C 
BRANCH   7   8
HETATM    8  C8  UNL     1       0.025  -6.350  16.154  1.00  0.00     0.136 C 
BRANCH   8   9
HETATM    9  S2  UNL     1      -1.319  -7.484  16.483  1.00  0.00     0.029 S 
HETATM   10  O3  UNL     1      -2.022  -8.001  15.048  1.00  0.00    -0.257 OA
BRANCH   9  11
HETATM   11  C9  UNL     1      -2.533  -6.769  17.563  1.00  0.00     0.202 C 
BRANCH  11  12
HETATM   12  C10 UNL     1      -1.953  -6.490  18.874  1.00  0.00    -0.092 C 
HETATM   13  C11 UNL     1      -1.484  -6.270  19.962  1.00  0.00    -0.080 C 
BRANCH  13  14
HETATM   14  C12 UNL     1      -0.913  -5.988  21.302  1.00  0.00     0.257 C 
BRANCH  14  15
HETATM   15  O4  UNL     1      -0.101  -4.884  21.203  1.00  0.00    -0.389 OA
ATOM     16  H4  UNL     1       0.432  -4.973  20.421  1.00  0.00     0.210 HD
ENDBRANCH  14  15
ENDBRANCH  13  14
ENDBRANCH  11  12
ENDBRANCH   9  11
ENDBRANCH   8   9
ENDBRANCH   7   8
ENDBRANCH   4   6
BRANCH   3  17
HETATM   17  C4  UNL     1      -3.501  -3.104  15.769  1.00  0.00     0.170 C 
BRANCH  17  18
HETATM   18  S1  UNL     1      -4.766  -2.012  15.216  1.00  0.00     0.224 S 
HETATM   19  O1  UNL     1      -4.120  -0.778  14.650  1.00  0.00    -0.206 OA
HETATM   20  O2  UNL     1      -5.618  -2.650  14.155  1.00  0.00    -0.206 OA
BRANCH  18  21
HETATM   21  N2  UNL     1      -5.828  -1.544  16.493  1.00  0.00    -0.328 N 
ATOM     22  H22 UNL     1      -6.676  -2.060  16.729  1.00  0.00     0.168 HD
ATOM     23  H21 UNL     1      -5.507  -0.703  16.973  1.00  0.00     0.168 HD
ENDBRANCH  18  21
ENDBRANCH  17  18
ENDBRANCH   3  17
BRANCH   1  24
HETATM   24  N1  UNL     1      -0.906  -2.856  18.987  1.00  0.00    -0.053 N 
ATOM     25  H13 UNL     1      -1.344  -2.352  19.758  1.00  0.00     0.277 HD
ATOM     26  H12 UNL     1      -1.624  -3.570  18.864  1.00  0.00     0.277 HD
ATOM     27  H11 UNL     1       0.001  -3.249  19.238  1.00  0.00     0.277 HD
ENDBRANCH   1  24
TORSDOF 11
ENDMDL
MODEL 3
REMARK VINA RESULT: -6.235370343      1.994      3.606
REMARK  11 active torsions:
REMARK  status: ('A' for Active; 'I' for Inactive)
REMARK    1  A    between atoms: N1_1  and  C1_5 
REMARK    2  A    between atoms: C3_7  and  C4_8 
REMARK    3  A    between atoms: C4_8  and  S1_9 
REMARK    4  A    between atoms: S1_9  and  N2_10 
REMARK    5  A    between atoms: C5_15  and  C6_16 
REMARK    6  A    between atoms: C7_17  and  C8_18 
REMARK    7  A    between atoms: C8_18  and  S2_19 
REMARK    8  A    between atoms: S2_19  and  C9_21 
REMARK    9  A    between atoms: C9_21  and  C10_22 
REMARK   10  A    between atoms: C11_23  and  C12_24 
REMARK   11  A    between atoms: C12_24  and  O4_25 
ROOT
HETATM    1  C1  UNL     1      -3.616  -1.066  14.973  1.00  0.00     0.319 C 
HETATM    2  C2  UNL     1      -2.792  -2.123  14.263  1.00  0.00     0.069 C 
HETATM    3  C3  UNL     1      -1.971  -2.682  15.372  1.00  0.00     0.038 C 
HETATM    4  C5  UNL     1      -2.763  -2.264  16.592  1.00  0.00     0.152 C 
HETATM    5  O5  UNL     1      -3.159  -0.987  16.280  1.00  0.00    -0.349 OA
ENDROOT
BRANCH   4   6
HETATM    6  C6  UNL     1      -2.033  -2.386  17.855  1.00  0.00     0.002 C 
HETATM    7  C7  UNL     1      -1.256  -1.460  18.374  1.00  0.00    -0.016 C 
BRANCH   7   8
HETATM    8  C8  UNL     1      -0.941  -0.137  17.844  1.00  0.00     0.136 C 
BRANCH   8   9
HETATM    9  S2  UNL     1       0.727   0.369  18.247  1.00  0.00     0.029 S 
HETATM   10  O3  UNL     1       1.049   0.106  19.874  1.00  0.00    -0.257 OA
BRANCH   9  11
HETATM   11  C9  UNL     1       1.025   2.064  17.807  1.00  0.00     0.202 C 
BRANCH  11  12
HETATM   12  C10 UNL     1       0.346   2.396  16.558  1.00  0.00    -0.092 C 
HETATM   13  C11 UNL     1      -0.226   2.675  15.535  1.00  0.00    -0.080 C 
BRANCH  13  14
HETATM   14  C12 UNL     1      -0.933   3.006  14.273  1.00  0.00     0.257 C 
BRANCH  14  15
HETATM   15  O4  UNL     1      -1.487   1.852  13.772  1.00  0.00    -0.389 OA
ATOM     16  H4  UNL     1      -2.208   2.090  13.201  1.00  0.00     0.210 HD
ENDBRANCH  14  15
ENDBRANCH  13  14
ENDBRANCH  11  12
ENDBRANCH   9  11
ENDBRANCH   8   9
ENDBRANCH   7   8
ENDBRANCH   4   6
BRANCH   3  17
HETATM   17  C4  UNL     1      -1.813  -4.162  15.384  1.00  0.00     0.170 C 
BRANCH  17  18
HETATM   18  S1  UNL     1      -0.164  -4.720  15.120  1.00  0.00     0.224 S 
HETATM   19  O1  UNL     1      -0.203  -5.914  14.206  1.00  0.00    -0.206 OA
HETATM   20  O2  UNL     1       0.685  -3.650  14.493  1.00  0.00    -0.206 OA
BRANCH  18  21
HETATM   21  N2  UNL     1       0.614  -5.175  16.591  1.00  0.00    -0.328 N 
ATOM     22  H22 UNL     1       0.266  -4.904  17.512  1.00  0.00     0.168 HD
ATOM     23  H21 UNL     1       1.449  -5.737  16.428  1.00  0.00     0.168 HD
ENDBRANCH  18  21
ENDBRANCH  17  18
ENDBRANCH   3  17
BRANCH   1  24
HETATM   24  N1  UNL     1      -4.982  -1.520  15.025  1.00  0.00    -0.053 N 
ATOM     25  H13 UNL     1      -5.644  -0.813  14.705  1.00  0.00     0.277 HD
ATOM     26  H12 UNL     1      -5.188  -2.230  14.322  1.00  0.00     0.277 HD
ATOM     27  H11 UNL     1      -5.176  -1.840  15.974  1.00  0.00     0.277 HD
ENDBRANCH   1  24
TORSDOF 11
ENDMDL
MODEL 4
REMARK VINA RESULT: -6.209775728      4.028      6.104
REMARK  11 active torsions:
REMARK  status: ('A' for Active; 'I' for Inactive)
REMARK    1  A    between atoms: N1_1  and  C1_5 
REMARK    2  A    between atoms: C3_7  and  C4_8 
REMARK    3  A    between atoms: C4_8  and  S1_9 
REMARK    4  A    between atoms: S1_9  and  N2_10 
REMARK    5  A    between atoms: C5_15  and  C6_16 
REMARK    6  A    between atoms: C7_17  and  C8_18 
REMARK    7  A    between atoms: C8_18  and  S2_19 
REMARK    8  A    between atoms: S2_19  and  C9_21 
REMARK    9  A    between atoms: C9_21  and  C10_22 
REMARK   10  A    between atoms: C11_23  and  C12_24 
REMARK   11  A    between atoms: C12_24  and  O4_25 
ROOT
HETATM    1  C1  UNL     1      -5.094  -4.557  12.943  1.00  0.00     0.319 C 
HETATM    2  C2  UNL     1      -6.546  -4.996  12.946  1.00  0.00     0.069 C 
HETATM    3  C3  UNL     1      -7.053  -4.399  14.212  1.00  0.00     0.038 C 
HETATM    4  C5  UNL     1      -6.029  -3.319  14.485  1.00  0.00     0.152 C 
HETATM    5  O5  UNL     1      -4.843  -3.928  14.154  1.00  0.00    -0.349 OA
ENDROOT
BRANCH   4   6
HETATM    6  C6  UNL     1      -6.076  -2.773  15.841  1.00  0.00     0.002 C 
HETATM    7  C7  UNL     1      -5.718  -1.553  16.182  1.00  0.00    -0.016 C 
BRANCH   7   8
HETATM    8  C8  UNL     1      -5.206  -0.485  15.328  1.00  0.00     0.136 C 
BRANCH   8   9
HETATM    9  S2  UNL     1      -3.436  -0.598  15.099  1.00  0.00     0.029 S 
HETATM   10  O3  UNL     1      -3.073  -1.263  13.600  1.00  0.00    -0.257 OA
BRANCH   9  11
HETATM   11  C9  UNL     1      -2.661  -1.518  16.405  1.00  0.00     0.202 C 
BRANCH  11  12
HETATM   12  C10 UNL     1      -2.089  -2.759  15.889  1.00  0.00    -0.092 C 
HETATM   13  C11 UNL     1      -1.621  -3.790  15.476  1.00  0.00    -0.080 C 
BRANCH  13  14
HETATM   14  C12 UNL     1      -1.034  -5.054  14.970  1.00  0.00     0.257 C 
BRANCH  14  15
HETATM   15  O4  UNL     1       0.217  -4.781  14.470  1.00  0.00    -0.389 OA
ATOM     16  H4  UNL     1       0.260  -5.103  13.577  1.00  0.00     0.210 HD
ENDBRANCH  14  15
ENDBRANCH  13  14
ENDBRANCH  11  12
ENDBRANCH   9  11
ENDBRANCH   8   9
ENDBRANCH   7   8
ENDBRANCH   4   6
BRANCH   3  17
HETATM   17  C4  UNL     1      -8.403  -3.776  14.143  1.00  0.00     0.170 C 
BRANCH  17  18
HETATM   18  S1  UNL     1      -9.738  -4.912  14.306  1.00  0.00     0.224 S 
HETATM   19  O1  UNL     1     -11.025  -4.135  14.357  1.00  0.00    -0.206 OA
HETATM   20  O2  UNL     1      -9.790  -5.870  13.148  1.00  0.00    -0.206 OA
BRANCH  18  21
HETATM   21  N2  UNL     1      -9.612  -5.867  15.737  1.00  0.00    -0.328 N 
ATOM     22  H22 UNL     1      -8.757  -5.930  16.291  1.00  0.00     0.168 HD
ATOM     23  H21 UNL     1     -10.483  -6.352  15.956  1.00  0.00     0.168 HD
ENDBRANCH  18  21
ENDBRANCH  17  18
ENDBRANCH   3  17
BRANCH   1  24
HETATM   24  N1  UNL     1      -4.924  -3.571  11.906  1.00  0.00    -0.053 N 
ATOM     25  H13 UNL     1      -4.783  -3.989  10.986  1.00  0.00     0.277 HD
ATOM     26  H12 UNL     1      -5.786  -3.067  11.698  1.00  0.00     0.277 HD
ATOM     27  H11 UNL     1      -4.161  -2.951  12.178  1.00  0.00     0.277 HD
ENDBRANCH   1  24
TORSDOF 11
ENDMDL
MODEL 5
REMARK VINA RESULT: -6.131707391      4.031      6.971
REMARK  11 active torsions:
REMARK  status: ('A' for Active; 'I' for Inactive)
REMARK    1  A    between atoms: N1_1  and  C1_5 
REMARK    2  A    between atoms: C3_7  and  C4_8 
REMARK    3  A    between atoms: C4_8  and  S1_9 
REMARK    4  A    between atoms: S1_9  and  N2_10 
REMARK    5  A    between atoms: C5_15  and  C6_16 
REMARK    6  A    between atoms: C7_17  and  C8_18 
REMARK    7  A    between atoms: C8_18  and  S2_19 
REMARK    8  A    between atoms: S2_19  and  C9_21 
REMARK    9  A    between atoms: C9_21  and  C10_22 
REMARK   10  A    between atoms: C11_23  and  C12_24 
REMARK   11  A    between atoms: C12_24  and  O4_25 
ROOT
HETATM    1  C1  UNL     1      -4.812  -4.727  14.400  1.00  0.00     0.319 C 
HETATM    2  C2  UNL     1      -4.891  -3.236  14.136  1.00  0.00     0.069 C 
HETATM    3  C3  UNL     1      -3.668  -2.729  14.818  1.00  0.00     0.038 C 
HETATM    4  C5  UNL     1      -2.823  -3.980  14.922  1.00  0.00     0.152 C 
HETATM    5  O5  UNL     1      -3.742  -4.945  15.255  1.00  0.00    -0.349 OA
ENDROOT
BRANCH   4   6
HETATM    6  C6  UNL     1      -1.693  -3.869  15.844  1.00  0.00     0.002 C 
HETATM    7  C7  UNL     1      -0.657  -4.680  15.878  1.00  0.00    -0.016 C 
BRANCH   7   8
HETATM    8  C8  UNL     1      -0.388  -5.844  15.039  1.00  0.00     0.136 C 
BRANCH   8   9
HETATM    9  S2  UNL     1      -0.823  -7.375  15.855  1.00  0.00     0.029 S 
HETATM   10  O3  UNL     1      -2.032  -8.175  15.007  1.00  0.00    -0.257 OA
BRANCH   9  11
HETATM   11  C9  UNL     1      -1.303  -7.108  17.544  1.00  0.00     0.202 C 
BRANCH  11  12
HETATM   12  C10 UNL     1      -2.741  -7.301  17.705  1.00  0.00    -0.092 C 
HETATM   13  C11 UNL     1      -3.929  -7.449  17.847  1.00  0.00    -0.080 C 
BRANCH  13  14
HETATM   14  C12 UNL     1      -5.388  -7.639  18.030  1.00  0.00     0.257 C 
BRANCH  14  15
HETATM   15  O4  UNL     1      -5.862  -8.388  16.980  1.00  0.00    -0.389 OA
ATOM     16  H4  UNL     1      -6.654  -8.831  17.262  1.00  0.00     0.210 HD
ENDBRANCH  14  15
ENDBRANCH  13  14
ENDBRANCH  11  12
ENDBRANCH   9  11
ENDBRANCH   8   9
ENDBRANCH   7   8
ENDBRANCH   4   6
BRANCH   3  17
HETATM   17  C4  UNL     1      -2.898  -1.687  14.085  1.00  0.00     0.170 C 
BRANCH  17  18
HETATM   18  S1  UNL     1      -3.009  -0.074  14.782  1.00  0.00     0.224 S 
HETATM   19  O1  UNL     1      -4.460   0.319  14.850  1.00  0.00    -0.206 OA
HETATM   20  O2  UNL     1      -2.425  -0.032  16.166  1.00  0.00    -0.206 OA
BRANCH  18  21
HETATM   21  N2  UNL     1      -2.161   1.101  13.846  1.00  0.00    -0.328 N 
ATOM     22  H22 UNL     1      -1.146   1.105  13.746  1.00  0.00     0.168 HD
ATOM     23  H21 UNL     1      -2.791   1.777  13.413  1.00  0.00     0.168 HD
ENDBRANCH  18  21
ENDBRANCH  17  18
ENDBRANCH   3  17
BRANCH   1  24
HETATM   24  N1  UNL     1      -4.507  -5.389  13.157  1.00  0.00    -0.053 N 
ATOM     25  H13 UNL     1      -4.292  -4.734  12.406  1.00  0.00     0.277 HD
ATOM     26  H12 UNL     1      -3.609  -5.873  13.179  1.00  0.00     0.277 HD
ATOM     27  H11 UNL     1      -5.283  -6.010  12.928  1.00  0.00     0.277 HD
ENDBRANCH   1  24
TORSDOF 11
ENDMDL
