MODEL 1
REMARK VINA RESULT: -5.559531814      0.000      0.000
REMARK  11 active torsions:
REMARK  status: ('A' for Active; 'I' for Inactive)
REMARK    1  A    between atoms: C2_2  and  C3_3 
REMARK    2  A    between atoms: C2_2  and  O3_10 
REMARK    3  A    between atoms: C2_2  and  S2_19 
REMARK    4  A    between atoms: C3_3  and  S1_4 
REMARK    5  A    between atoms: S1_4  and  N1_5 
REMARK    6  A    between atoms: O3_10  and  C4_11 
REMARK    7  A    between atoms: C4_11  and  N3_15 
REMARK    8  A    between atoms: S2_19  and  C8_21 
REMARK    9  A    between atoms: C8_21  and  C9_22 
REMARK   10  A    between atoms: C9_22  and  C10_23 
REMARK   11  A    between atoms: C10_23  and  N4_24 
ROOT
HETATM    1  C1  UNL     1      -3.934  -3.310  16.793  1.00  0.00     0.063 C 
HETATM    2  C2  UNL     1      -4.241  -3.148  15.334  1.00  0.00     0.158 C 
ENDROOT
BRANCH   2   3
HETATM    3  C3  UNL     1      -5.698  -3.321  15.045  1.00  0.00     0.215 C 
BRANCH   3   4
HETATM    4  S1  UNL     1      -6.069  -4.116  13.527  1.00  0.00     0.228 S 
HETATM    5  O1  UNL     1      -7.495  -3.775  13.181  1.00  0.00    -0.206 OA
HETATM    6  O2  UNL     1      -6.000  -5.611  13.619  1.00  0.00    -0.206 OA
BRANCH   4   7
HETATM    7  N1  UNL     1      -5.106  -3.513  12.222  1.00  0.00    -0.328 N 
ATOM      8  H12 UNL     1      -5.407  -2.753  11.613  1.00  0.00     0.168 HD
ATOM      9  H11 UNL     1      -4.216  -4.006  12.142  1.00  0.00     0.168 HD
ENDBRANCH   4   7
ENDBRANCH   3   4
ENDBRANCH   2   3
BRANCH   2  10
HETATM   10  O3  UNL     1      -3.582  -4.070  14.502  1.00  0.00    -0.297 OA
BRANCH  10  11
HETATM   11  C4  UNL     1      -2.771  -5.074  14.918  1.00  0.00     0.216 C 
HETATM   12  N2  UNL     1      -3.332  -6.153  15.283  1.00  0.00    -0.365 N 
ATOM     13  H22 UNL     1      -4.346  -6.264  15.267  1.00  0.00     0.159 HD
ATOM     14  H21 UNL     1      -2.722  -6.908  15.596  1.00  0.00     0.159 HD
BRANCH  11  15
HETATM   15  N3  UNL     1      -1.368  -4.919  14.940  1.00  0.00    -0.348 N 
HETATM   16  C5  UNL     1      -0.408  -3.809  15.033  1.00  0.00     0.128 C 
HETATM   17  C6  UNL     1       0.509  -4.767  15.766  1.00  0.00     0.040 C 
HETATM   18  C7  UNL     1      -0.194  -5.802  14.879  1.00  0.00     0.128 C 
ENDBRANCH  11  15
ENDBRANCH  10  11
ENDBRANCH   2  10
BRANCH   2  19
HETATM   19  S2  UNL     1      -3.673  -1.527  14.853  1.00  0.00     0.051 S 
HETATM   20  O4  UNL     1      -2.900  -1.524  13.386  1.00  0.00    -0.255 OA
BRANCH  19  21
HETATM   21  C8  UNL     1      -2.765  -0.735  16.125  1.00  0.00     0.113 C 
BRANCH  21  22
HETATM   22  C9  UNL     1      -2.992   0.765  16.103  1.00  0.00     0.040 C 
BRANCH  22  23
HETATM   23  C10 UNL     1      -1.821   1.507  15.529  1.00  0.00     0.230 C 
BRANCH  23  24
HETATM   24  N4  UNL     1      -1.894   1.384  14.083  1.00  0.00    -0.079 N 
ATOM     25  H43 UNL     1      -1.391   0.571  13.727  1.00  0.00     0.274 HD
ATOM     26  H42 UNL     1      -2.822   1.122  13.752  1.00  0.00     0.274 HD
ATOM     27  H41 UNL     1      -1.562   2.263  13.685  1.00  0.00     0.274 HD
ENDBRANCH  23  24
ENDBRANCH  22  23
ENDBRANCH  21  22
ENDBRANCH  19  21
ENDBRANCH   2  19
TORSDOF 11
ENDMDL
MODEL 2
REMARK VINA RESULT: -5.386689320      2.481      5.308
REMARK  11 active torsions:
REMARK  status: ('A' for Active; 'I' for Inactive)
REMARK    1  A    between atoms: C2_2  and  C3_3 
REMARK    2  A    between atoms: C2_2  and  O3_10 
REMARK    3  A    between atoms: C2_2  and  S2_19 
REMARK    4  A    between atoms: C3_3  and  S1_4 
REMARK    5  A    between atoms: S1_4  and  N1_5 
REMARK    6  A    between atoms: O3_10  and  C4_11 
REMARK    7  A    between atoms: C4_11  and  N3_15 
REMARK    8  A    between atoms: S2_19  and  C8_21 
REMARK    9  A    between atoms: C8_21  and  C9_22 
REMARK   10  A    between atoms: C9_22  and  C10_23 
REMARK   11  A    between atoms: C10_23  and  N4_24 
ROOT
HETATM    1  C1  UNL     1      -4.538  -2.572  17.316  1.00  0.00     0.063 C 
HETATM    2  C2  UNL     1      -3.630  -2.225  16.175  1.00  0.00     0.158 C 
ENDROOT
BRANCH   2   3
HETATM    3  C3  UNL     1      -3.162  -0.806  16.242  1.00  0.00     0.215 C 
BRANCH   3   4
HETATM    4  S1  UNL     1      -3.070   0.024  14.700  1.00  0.00     0.228 S 
HETATM    5  O1  UNL     1      -2.141   1.197  14.880  1.00  0.00    -0.206 OA
HETATM    6  O2  UNL     1      -4.388   0.588  14.262  1.00  0.00    -0.206 OA
BRANCH   4   7
HETATM    7  N1  UNL     1      -2.359  -0.962  13.470  1.00  0.00    -0.328 N 
ATOM      8  H12 UNL     1      -1.807  -1.796  13.674  1.00  0.00     0.168 HD
ATOM      9  H11 UNL     1      -2.558  -0.612  12.533  1.00  0.00     0.168 HD
ENDBRANCH   4   7
ENDBRANCH   3   4
ENDBRANCH   2   3
BRANCH   2  10
HETATM   10  O3  UNL     1      -4.222  -2.364  14.907  1.00  0.00    -0.297 OA
BRANCH  10  11
HETATM   11  C4  UNL     1      -5.506  -2.733  14.668  1.00  0.00     0.216 C 
HETATM   12  N2  UNL     1      -6.371  -1.805  14.625  1.00  0.00    -0.365 N 
ATOM     13  H22 UNL     1      -6.119  -0.826  14.765  1.00  0.00     0.159 HD
ATOM     14  H21 UNL     1      -7.336  -2.082  14.445  1.00  0.00     0.159 HD
BRANCH  11  15
HETATM   15  N3  UNL     1      -5.853  -4.087  14.475  1.00  0.00    -0.348 N 
HETATM   16  C5  UNL     1      -6.369  -5.194  15.292  1.00  0.00     0.128 C 
HETATM   17  C6  UNL     1      -7.068  -5.688  14.043  1.00  0.00     0.040 C 
HETATM   18  C7  UNL     1      -5.862  -5.039  13.353  1.00  0.00     0.128 C 
ENDBRANCH  11  15
ENDBRANCH  10  11
ENDBRANCH   2  10
BRANCH   2  19
HETATM   19  S2  UNL     1      -2.259  -3.364  16.227  1.00  0.00     0.051 S 
HETATM   20  O4  UNL     1      -1.194  -3.150  14.974  1.00  0.00    -0.255 OA
BRANCH  19  21
HETATM   21  C8  UNL     1      -2.779  -5.025  16.427  1.00  0.00     0.113 C 
BRANCH  21  22
HETATM   22  C9  UNL     1      -2.628  -5.803  15.133  1.00  0.00     0.040 C 
BRANCH  22  23
HETATM   23  C10 UNL     1      -1.474  -6.760  15.179  1.00  0.00     0.230 C 
BRANCH  23  24
HETATM   24  N4  UNL     1      -0.352  -6.124  14.511  1.00  0.00    -0.079 N 
ATOM     25  H43 UNL     1      -0.120  -6.563  13.620  1.00  0.00     0.274 HD
ATOM     26  H42 UNL     1      -0.579  -5.198  14.148  1.00  0.00     0.274 HD
ATOM     27  H41 UNL     1       0.429  -6.115  15.166  1.00  0.00     0.274 HD
ENDBRANCH  23  24
ENDBRANCH  22  23
ENDBRANCH  21  22
ENDBRANCH  19  21
ENDBRANCH   2  19
TORSDOF 11
ENDMDL
MODEL 3
REMARK VINA RESULT: -5.377564727      2.280      5.386
REMARK  11 active torsions:
REMARK  status: ('A' for Active; 'I' for Inactive)
REMARK    1  A    between atoms: C2_2  and  C3_3 
REMARK    2  A    between atoms: C2_2  and  O3_10 
REMARK    3  A    between atoms: C2_2  and  S2_19 
REMARK    4  A    between atoms: C3_3  and  S1_4 
REMARK    5  A    between atoms: S1_4  and  N1_5 
REMARK    6  A    between atoms: O3_10  and  C4_11 
REMARK    7  A    between atoms: C4_11  and  N3_15 
REMARK    8  A    between atoms: S2_19  and  C8_21 
REMARK    9  A    between atoms: C8_21  and  C9_22 
REMARK   10  A    between atoms: C9_22  and  C10_23 
REMARK   11  A    between atoms: C10_23  and  N4_24 
ROOT
HETATM    1  C1  UNL     1      -4.832  -3.844  16.549  1.00  0.00     0.063 C 
HETATM    2  C2  UNL     1      -4.045  -3.046  15.552  1.00  0.00     0.158 C 
ENDROOT
BRANCH   2   3
HETATM    3  C3  UNL     1      -3.551  -1.758  16.129  1.00  0.00     0.215 C 
BRANCH   3   4
HETATM    4  S1  UNL     1      -3.291  -0.471  14.967  1.00  0.00     0.228 S 
HETATM    5  O1  UNL     1      -2.300   0.487  15.576  1.00  0.00    -0.206 OA
HETATM    6  O2  UNL     1      -4.533   0.323  14.689  1.00  0.00    -0.206 OA
BRANCH   4   7
HETATM    7  N1  UNL     1      -2.564  -1.046  13.507  1.00  0.00    -0.328 N 
ATOM      8  H12 UNL     1      -2.187  -1.989  13.407  1.00  0.00     0.168 HD
ATOM      9  H11 UNL     1      -2.560  -0.337  12.775  1.00  0.00     0.168 HD
ENDBRANCH   4   7
ENDBRANCH   3   4
ENDBRANCH   2   3
BRANCH   2  10
HETATM   10  O3  UNL     1      -4.770  -2.688  14.402  1.00  0.00    -0.297 OA
BRANCH  10  11
HETATM   11  C4  UNL     1      -6.111  -2.815  14.239  1.00  0.00     0.216 C 
HETATM   12  N2  UNL     1      -6.818  -1.788  14.476  1.00  0.00    -0.365 N 
ATOM     13  H22 UNL     1      -6.404  -0.906  14.777  1.00  0.00     0.159 HD
ATOM     14  H21 UNL     1      -7.827  -1.883  14.354  1.00  0.00     0.159 HD
BRANCH  11  15
HETATM   15  N3  UNL     1      -6.684  -4.036  13.824  1.00  0.00    -0.348 N 
HETATM   16  C5  UNL     1      -6.284  -5.193  13.010  1.00  0.00     0.128 C 
HETATM   17  C6  UNL     1      -7.159  -6.034  13.916  1.00  0.00     0.040 C 
HETATM   18  C7  UNL     1      -7.966  -4.734  14.011  1.00  0.00     0.128 C 
ENDBRANCH  11  15
ENDBRANCH  10  11
ENDBRANCH   2  10
BRANCH   2  19
HETATM   19  S2  UNL     1      -2.693  -4.073  15.005  1.00  0.00     0.051 S 
HETATM   20  O4  UNL     1      -3.099  -5.678  14.909  1.00  0.00    -0.255 OA
BRANCH  19  21
HETATM   21  C8  UNL     1      -1.223  -3.775  15.909  1.00  0.00     0.113 C 
BRANCH  21  22
HETATM   22  C9  UNL     1      -0.001  -4.203  15.117  1.00  0.00     0.040 C 
BRANCH  22  23
HETATM   23  C10 UNL     1       0.532  -5.530  15.571  1.00  0.00     0.230 C 
BRANCH  23  24
HETATM   24  N4  UNL     1       0.006  -6.541  14.671  1.00  0.00    -0.079 N 
ATOM     25  H43 UNL     1      -0.717  -7.118  15.101  1.00  0.00     0.274 HD
ATOM     26  H42 UNL     1      -0.564  -6.150  13.922  1.00  0.00     0.274 HD
ATOM     27  H41 UNL     1       0.797  -7.086  14.327  1.00  0.00     0.274 HD
ENDBRANCH  23  24
ENDBRANCH  22  23
ENDBRANCH  21  22
ENDBRANCH  19  21
ENDBRANCH   2  19
TORSDOF 11
ENDMDL
MODEL 4
REMARK VINA RESULT: -5.316495529      2.459      5.407
REMARK  11 active torsions:
REMARK  status: ('A' for Active; 'I' for Inactive)
REMARK    1  A    between atoms: C2_2  and  C3_3 
REMARK    2  A    between atoms: C2_2  and  O3_10 
REMARK    3  A    between atoms: C2_2  and  S2_19 
REMARK    4  A    between atoms: C3_3  and  S1_4 
REMARK    5  A    between atoms: S1_4  and  N1_5 
REMARK    6  A    between atoms: O3_10  and  C4_11 
REMARK    7  A    between atoms: C4_11  and  N3_15 
REMARK    8  A    between atoms: S2_19  and  C8_21 
REMARK    9  A    between atoms: C8_21  and  C9_22 
REMARK   10  A    between atoms: C9_22  and  C10_23 
REMARK   11  A    between atoms: C10_23  and  N4_24 
ROOT
HETATM    1  C1  UNL     1      -3.803  -3.343  17.348  1.00  0.00     0.063 C 
HETATM    2  C2  UNL     1      -3.025  -2.744  16.216  1.00  0.00     0.158 C 
ENDROOT
BRANCH   2   3
HETATM    3  C3  UNL     1      -2.878  -1.262  16.359  1.00  0.00     0.215 C 
BRANCH   3   4
HETATM    4  S1  UNL     1      -3.106  -0.343  14.883  1.00  0.00     0.228 S 
HETATM    5  O1  UNL     1      -2.349   0.949  15.040  1.00  0.00    -0.206 OA
HETATM    6  O2  UNL     1      -4.539   0.030  14.644  1.00  0.00    -0.206 OA
BRANCH   4   7
HETATM    7  N1  UNL     1      -2.418  -1.135  13.508  1.00  0.00    -0.328 N 
ATOM      8  H12 UNL     1      -2.971  -1.443  12.708  1.00  0.00     0.168 HD
ATOM      9  H11 UNL     1      -1.409  -1.252  13.597  1.00  0.00     0.168 HD
ENDBRANCH   4   7
ENDBRANCH   3   4
ENDBRANCH   2   3
BRANCH   2  10
HETATM   10  O3  UNL     1      -3.605  -2.942  14.950  1.00  0.00    -0.297 OA
BRANCH  10  11
HETATM   11  C4  UNL     1      -4.568  -3.850  14.655  1.00  0.00     0.216 C 
HETATM   12  N2  UNL     1      -4.181  -5.020  14.351  1.00  0.00    -0.365 N 
ATOM     13  H22 UNL     1      -3.193  -5.272  14.328  1.00  0.00     0.159 HD
ATOM     14  H21 UNL     1      -4.906  -5.703  14.129  1.00  0.00     0.159 HD
BRANCH  11  15
HETATM   15  N3  UNL     1      -5.936  -3.501  14.687  1.00  0.00    -0.348 N 
HETATM   16  C5  UNL     1      -7.164  -3.891  13.980  1.00  0.00     0.128 C 
HETATM   17  C6  UNL     1      -7.904  -3.606  15.271  1.00  0.00     0.040 C 
HETATM   18  C7  UNL     1      -6.784  -2.573  15.450  1.00  0.00     0.128 C 
ENDBRANCH  11  15
ENDBRANCH  10  11
ENDBRANCH   2  10
BRANCH   2  19
HETATM   19  S2  UNL     1      -1.436  -3.553  16.182  1.00  0.00     0.051 S 
HETATM   20  O4  UNL     1      -0.656  -3.383  14.729  1.00  0.00    -0.255 OA
BRANCH  19  21
HETATM   21  C8  UNL     1      -1.520  -5.210  16.742  1.00  0.00     0.113 C 
BRANCH  21  22
HETATM   22  C9  UNL     1      -0.134  -5.817  16.862  1.00  0.00     0.040 C 
BRANCH  22  23
HETATM   23  C10 UNL     1       0.064  -6.967  15.919  1.00  0.00     0.230 C 
BRANCH  23  24
HETATM   24  N4  UNL     1       0.099  -6.426  14.572  1.00  0.00    -0.079 N 
ATOM     25  H43 UNL     1      -0.099  -7.126  13.857  1.00  0.00     0.274 HD
ATOM     26  H42 UNL     1      -0.686  -5.806  14.371  1.00  0.00     0.274 HD
ATOM     27  H41 UNL     1       1.005  -5.975  14.447  1.00  0.00     0.274 HD
ENDBRANCH  23  24
ENDBRANCH  22  23
ENDBRANCH  21  22
ENDBRANCH  19  21
ENDBRANCH   2  19
TORSDOF 11
ENDMDL
MODEL 5
REMARK VINA RESULT: -5.249223142      2.444      5.511
REMARK  11 active torsions:
REMARK  status: ('A' for Active; 'I' for Inactive)
REMARK    1  A    between atoms: C2_2  and  C3_3 
REMARK    2  A    between atoms: C2_2  and  O3_10 
REMARK    3  A    between atoms: C2_2  and  S2_19 
REMARK    4  A    between atoms: C3_3  and  S1_4 
REMARK    5  A    between atoms: S1_4  and  N1_5 
REMARK    6  A    between atoms: O3_10  and  C4_11 
REMARK    7  A    between atoms: C4_11  and  N3_15 
REMARK    8  A    between atoms: S2_19  and  C8_21 
REMARK    9  A    between atoms: C8_21  and  C9_22 
REMARK   10  A    between atoms: C9_22  and  C10_23 
REMARK   11  A    between atoms: C10_23  and  N4_24 
ROOT
HETATM    1  C1  UNL     1      -4.062  -4.455  16.635  1.00  0.00     0.063 C 
HETATM    2  C2  UNL     1      -3.375  -3.599  15.615  1.00  0.00     0.158 C 
ENDROOT
BRANCH   2   3
HETATM    3  C3  UNL     1      -3.040  -2.245  16.154  1.00  0.00     0.215 C 
BRANCH   3   4
HETATM    4  S1  UNL     1      -3.225  -0.922  15.018  1.00  0.00     0.228 S 
HETATM    5  O1  UNL     1      -2.441   0.245  15.559  1.00  0.00    -0.206 OA
HETATM    6  O2  UNL     1      -4.645  -0.458  14.891  1.00  0.00    -0.206 OA
BRANCH   4   7
HETATM    7  N1  UNL     1      -2.534  -1.285  13.474  1.00  0.00    -0.328 N 
ATOM      8  H12 UNL     1      -1.992  -2.130  13.292  1.00  0.00     0.168 HD
ATOM      9  H11 UNL     1      -2.734  -0.562  12.784  1.00  0.00     0.168 HD
ENDBRANCH   4   7
ENDBRANCH   3   4
ENDBRANCH   2   3
BRANCH   2  10
HETATM   10  O3  UNL     1      -4.134  -3.363  14.456  1.00  0.00    -0.297 OA
BRANCH  10  11
HETATM   11  C4  UNL     1      -5.176  -4.118  14.024  1.00  0.00     0.216 C 
HETATM   12  N2  UNL     1      -4.898  -5.108  13.279  1.00  0.00    -0.365 N 
ATOM     13  H22 UNL     1      -3.939  -5.329  13.013  1.00  0.00     0.159 HD
ATOM     14  H21 UNL     1      -5.681  -5.676  12.955  1.00  0.00     0.159 HD
BRANCH  11  15
HETATM   15  N3  UNL     1      -6.503  -3.812  14.393  1.00  0.00    -0.348 N 
HETATM   16  C5  UNL     1      -7.856  -4.201  13.971  1.00  0.00     0.128 C 
HETATM   17  C6  UNL     1      -8.278  -4.002  15.412  1.00  0.00     0.040 C 
HETATM   18  C7  UNL     1      -7.165  -2.948  15.383  1.00  0.00     0.128 C 
ENDBRANCH  11  15
ENDBRANCH  10  11
ENDBRANCH   2  10
BRANCH   2  19
HETATM   19  S2  UNL     1      -1.908  -4.471  15.096  1.00  0.00     0.051 S 
HETATM   20  O4  UNL     1      -2.217  -6.032  14.628  1.00  0.00    -0.255 OA
BRANCH  19  21
HETATM   21  C8  UNL     1      -0.605  -4.335  16.259  1.00  0.00     0.113 C 
BRANCH  21  22
HETATM   22  C9  UNL     1      -0.217  -5.696  16.805  1.00  0.00     0.040 C 
BRANCH  22  23
HETATM   23  C10 UNL     1       1.056  -6.208  16.197  1.00  0.00     0.230 C 
BRANCH  23  24
HETATM   24  N4  UNL     1       0.693  -7.069  15.085  1.00  0.00    -0.079 N 
ATOM     25  H43 UNL     1       0.721  -8.061  15.325  1.00  0.00     0.274 HD
ATOM     26  H42 UNL     1      -0.298  -7.017  14.849  1.00  0.00     0.274 HD
ATOM     27  H41 UNL     1       1.303  -6.832  14.303  1.00  0.00     0.274 HD
ENDBRANCH  23  24
ENDBRANCH  22  23
ENDBRANCH  21  22
ENDBRANCH  19  21
ENDBRANCH   2  19
TORSDOF 11
ENDMDL
