MODEL 1
REMARK VINA RESULT: -5.947892350      0.000      0.000
REMARK  10 active torsions:
REMARK  status: ('A' for Active; 'I' for Inactive)
REMARK    1  A    between atoms: N1_2  and  C3_4 
REMARK    2  A    between atoms: C3_4  and  C4_5 
REMARK    3  A    between atoms: C5_6  and  C6_7 
REMARK    4  A    between atoms: C6_7  and  O1_8 
REMARK    5  A    between atoms: O1_8  and  C7_9 
REMARK    6  A    between atoms: C8_10  and  O2_11 
REMARK    7  A    between atoms: C10_14  and  C11_15 
REMARK    8  A    between atoms: C11_15  and  O3_16 
REMARK    9  A    between atoms: C12_18  and  N2_19 
REMARK   10  A    between atoms: N2_19  and  S1_21 
ROOT
HETATM    1  C7  UNL     1      -4.496  -2.087  15.745  1.00  0.00     0.175 C 
HETATM    2  C8  UNL     1      -5.625  -1.102  15.981  1.00  0.00     0.149 C 
HETATM    3  C9  UNL     1      -5.025   0.122  15.283  1.00  0.00     0.043 C 
HETATM    4  C10 UNL     1      -3.636   0.125  15.886  1.00  0.00     0.038 C 
HETATM    5  C12 UNL     1      -3.341  -1.271  16.322  1.00  0.00     0.130 C 
ENDROOT
BRANCH   1   6
HETATM    6  O1  UNL     1      -4.218  -2.283  14.415  1.00  0.00    -0.369 OA
BRANCH   6   7
HETATM    7  C6  UNL     1      -4.568  -3.546  13.956  1.00  0.00     0.262 C 
BRANCH   7   8
HETATM    8  C5  UNL     1      -3.680  -4.554  14.535  1.00  0.00    -0.079 C 
HETATM    9  C4  UNL     1      -2.943  -5.392  14.993  1.00  0.00    -0.074 C 
BRANCH   9  10
HETATM   10  C3  UNL     1      -2.042  -6.410  15.531  1.00  0.00     0.364 C 
BRANCH  10  11
HETATM   11  N1  UNL     1      -0.806  -5.850  16.017  1.00  0.00     0.090 N 
HETATM   12  C1  UNL     1      -0.651  -6.187  17.400  1.00  0.00     0.310 C 
HETATM   13  C2  UNL     1       0.344  -6.271  15.255  1.00  0.00     0.310 C 
ENDBRANCH  10  11
ENDBRANCH   9  10
ENDBRANCH   7   8
ENDBRANCH   6   7
ENDBRANCH   1   6
BRANCH   2  14
HETATM   14  O2  UNL     1      -6.816  -1.490  15.452  1.00  0.00    -0.393 OA
ATOM     15  H2  UNL     1      -7.089  -0.979  14.699  1.00  0.00     0.210 HD
ENDBRANCH   2  14
BRANCH   5  16
HETATM   16  N2  UNL     1      -2.066  -1.772  15.953  1.00  0.00    -0.312 N 
ATOM     17  H2  UNL     1      -1.826  -2.006  14.990  1.00  0.00     0.172 HD
BRANCH  16  18
HETATM   18  S1  UNL     1      -0.964  -1.955  17.243  1.00  0.00     0.223 S 
HETATM   19  C13 UNL     1      -1.694  -2.714  18.665  1.00  0.00     0.185 C 
HETATM   20  O4  UNL     1      -0.502  -0.570  17.651  1.00  0.00    -0.206 OA
HETATM   21  O5  UNL     1       0.233  -2.748  16.824  1.00  0.00    -0.206 OA
ENDBRANCH  16  18
ENDBRANCH   5  16
BRANCH   4  22
HETATM   22  C11 UNL     1      -2.607   0.707  14.956  1.00  0.00     0.170 C 
BRANCH  22  23
HETATM   23  O3  UNL     1      -2.999   0.426  13.647  1.00  0.00    -0.400 OA
ATOM     24  H3  UNL     1      -2.977   1.237  13.153  1.00  0.00     0.209 HD
ENDBRANCH  22  23
ENDBRANCH   4  22
TORSDOF 10
ENDMDL
MODEL 2
REMARK VINA RESULT: -5.932725176      0.983      1.227
REMARK  10 active torsions:
REMARK  status: ('A' for Active; 'I' for Inactive)
REMARK    1  A    between atoms: N1_2  and  C3_4 
REMARK    2  A    between atoms: C3_4  and  C4_5 
REMARK    3  A    between atoms: C5_6  and  C6_7 
REMARK    4  A    between atoms: C6_7  and  O1_8 
REMARK    5  A    between atoms: O1_8  and  C7_9 
REMARK    6  A    between atoms: C8_10  and  O2_11 
REMARK    7  A    between atoms: C10_14  and  C11_15 
REMARK    8  A    between atoms: C11_15  and  O3_16 
REMARK    9  A    between atoms: C12_18  and  N2_19 
REMARK   10  A    between atoms: N2_19  and  S1_21 
ROOT
HETATM    1  C7  UNL     1      -4.514  -2.099  15.685  1.00  0.00     0.175 C 
HETATM    2  C8  UNL     1      -5.637  -1.110  15.937  1.00  0.00     0.149 C 
HETATM    3  C9  UNL     1      -5.018   0.127  15.281  1.00  0.00     0.043 C 
HETATM    4  C10 UNL     1      -3.637   0.101  15.900  1.00  0.00     0.038 C 
HETATM    5  C12 UNL     1      -3.359  -1.310  16.299  1.00  0.00     0.130 C 
ENDROOT
BRANCH   1   6
HETATM    6  O1  UNL     1      -4.222  -2.259  14.353  1.00  0.00    -0.369 OA
BRANCH   6   7
HETATM    7  C6  UNL     1      -4.579  -3.504  13.854  1.00  0.00     0.262 C 
BRANCH   7   8
HETATM    8  C5  UNL     1      -3.930  -4.561  14.630  1.00  0.00    -0.079 C 
HETATM    9  C4  UNL     1      -3.383  -5.419  15.280  1.00  0.00    -0.074 C 
BRANCH   9  10
HETATM   10  C3  UNL     1      -2.715  -6.443  16.080  1.00  0.00     0.364 C 
BRANCH  10  11
HETATM   11  N1  UNL     1      -1.626  -7.069  15.375  1.00  0.00     0.090 N 
HETATM   12  C1  UNL     1      -0.613  -6.092  15.113  1.00  0.00     0.310 C 
HETATM   13  C2  UNL     1      -1.075  -8.202  16.076  1.00  0.00     0.310 C 
ENDBRANCH  10  11
ENDBRANCH   9  10
ENDBRANCH   7   8
ENDBRANCH   6   7
ENDBRANCH   1   6
BRANCH   2  14
HETATM   14  O2  UNL     1      -6.825  -1.473  15.383  1.00  0.00    -0.393 OA
ATOM     15  H2  UNL     1      -7.573  -1.003  15.732  1.00  0.00     0.210 HD
ENDBRANCH   2  14
BRANCH   5  16
HETATM   16  N2  UNL     1      -2.084  -1.812  15.931  1.00  0.00    -0.312 N 
ATOM     17  H2  UNL     1      -1.757  -1.823  14.965  1.00  0.00     0.172 HD
BRANCH  16  18
HETATM   18  S1  UNL     1      -1.140  -2.398  17.226  1.00  0.00     0.223 S 
HETATM   19  C13 UNL     1      -0.783  -1.153  18.432  1.00  0.00     0.185 C 
HETATM   20  O4  UNL     1       0.181  -2.871  16.654  1.00  0.00    -0.206 OA
HETATM   21  O5  UNL     1      -1.805  -3.557  17.899  1.00  0.00    -0.206 OA
ENDBRANCH  16  18
ENDBRANCH   5  16
BRANCH   4  22
HETATM   22  C11 UNL     1      -2.591   0.700  15.000  1.00  0.00     0.170 C 
BRANCH  22  23
HETATM   23  O3  UNL     1      -2.981   0.479  13.679  1.00  0.00    -0.400 OA
ATOM     24  H3  UNL     1      -2.489   1.073  13.124  1.00  0.00     0.209 HD
ENDBRANCH  22  23
ENDBRANCH   4  22
TORSDOF 10
ENDMDL
MODEL 3
REMARK VINA RESULT: -5.846718494      2.665      3.982
REMARK  10 active torsions:
REMARK  status: ('A' for Active; 'I' for Inactive)
REMARK    1  A    between atoms: N1_2  and  C3_4 
REMARK    2  A    between atoms: C3_4  and  C4_5 
REMARK    3  A    between atoms: C5_6  and  C6_7 
REMARK    4  A    between atoms: C6_7  and  O1_8 
REMARK    5  A    between atoms: O1_8  and  C7_9 
REMARK    6  A    between atoms: C8_10  and  O2_11 
REMARK    7  A    between atoms: C10_14  and  C11_15 
REMARK    8  A    between atoms: C11_15  and  O3_16 
REMARK    9  A    between atoms: C12_18  and  N2_19 
REMARK   10  A    between atoms: N2_19  and  S1_21 
ROOT
HETATM    1  C7  UNL     1      -4.532  -2.167  15.610  1.00  0.00     0.175 C 
HETATM    2  C8  UNL     1      -5.635  -1.193  15.980  1.00  0.00     0.149 C 
HETATM    3  C9  UNL     1      -5.053   0.077  15.352  1.00  0.00     0.043 C 
HETATM    4  C10 UNL     1      -3.637   0.018  15.884  1.00  0.00     0.038 C 
HETATM    5  C12 UNL     1      -3.339  -1.411  16.192  1.00  0.00     0.130 C 
ENDROOT
BRANCH   1   6
HETATM    6  O1  UNL     1      -4.322  -2.259  14.257  1.00  0.00    -0.369 OA
BRANCH   6   7
HETATM    7  C6  UNL     1      -4.224  -3.566  13.798  1.00  0.00     0.262 C 
BRANCH   7   8
HETATM    8  C5  UNL     1      -5.540  -4.204  13.820  1.00  0.00    -0.079 C 
HETATM    9  C4  UNL     1      -6.617  -4.749  13.844  1.00  0.00    -0.074 C 
BRANCH   9  10
HETATM   10  C3  UNL     1      -7.914  -5.423  13.884  1.00  0.00     0.364 C 
BRANCH  10  11
HETATM   11  N1  UNL     1      -8.786  -4.880  14.893  1.00  0.00     0.090 N 
HETATM   12  C1  UNL     1      -9.897  -4.238  14.257  1.00  0.00     0.310 C 
HETATM   13  C2  UNL     1      -9.240  -5.868  15.840  1.00  0.00     0.310 C 
ENDBRANCH  10  11
ENDBRANCH   9  10
ENDBRANCH   7   8
ENDBRANCH   6   7
ENDBRANCH   1   6
BRANCH   2  14
HETATM   14  O2  UNL     1      -6.855  -1.526  15.481  1.00  0.00    -0.393 OA
ATOM     15  H2  UNL     1      -6.869  -2.356  15.019  1.00  0.00     0.210 HD
ENDBRANCH   2  14
BRANCH   5  16
HETATM   16  N2  UNL     1      -2.091  -1.893  15.722  1.00  0.00    -0.312 N 
ATOM     17  H2  UNL     1      -1.693  -1.605  14.828  1.00  0.00     0.172 HD
BRANCH  16  18
HETATM   18  S1  UNL     1      -1.306  -2.994  16.764  1.00  0.00     0.223 S 
HETATM   19  C13 UNL     1      -1.611  -4.682  16.333  1.00  0.00     0.185 C 
HETATM   20  O4  UNL     1      -1.853  -2.773  18.160  1.00  0.00    -0.206 OA
HETATM   21  O5  UNL     1       0.170  -2.753  16.792  1.00  0.00    -0.206 OA
ENDBRANCH  16  18
ENDBRANCH   5  16
BRANCH   4  22
HETATM   22  C11 UNL     1      -2.646   0.663  14.954  1.00  0.00     0.170 C 
BRANCH  22  23
HETATM   23  O3  UNL     1      -3.083   0.454  13.645  1.00  0.00    -0.400 OA
ATOM     24  H3  UNL     1      -2.338   0.564  13.065  1.00  0.00     0.209 HD
ENDBRANCH  22  23
ENDBRANCH   4  22
TORSDOF 10
ENDMDL
MODEL 4
REMARK VINA RESULT: -5.814539451      3.736      6.646
REMARK  10 active torsions:
REMARK  status: ('A' for Active; 'I' for Inactive)
REMARK    1  A    between atoms: N1_2  and  C3_4 
REMARK    2  A    between atoms: C3_4  and  C4_5 
REMARK    3  A    between atoms: C5_6  and  C6_7 
REMARK    4  A    between atoms: C6_7  and  O1_8 
REMARK    5  A    between atoms: O1_8  and  C7_9 
REMARK    6  A    between atoms: C8_10  and  O2_11 
REMARK    7  A    between atoms: C10_14  and  C11_15 
REMARK    8  A    between atoms: C11_15  and  O3_16 
REMARK    9  A    between atoms: C12_18  and  N2_19 
REMARK   10  A    between atoms: N2_19  and  S1_21 
ROOT
HETATM    1  C7  UNL     1      -6.235  -3.747  15.227  1.00  0.00     0.175 C 
HETATM    2  C8  UNL     1      -4.912  -4.453  15.457  1.00  0.00     0.149 C 
HETATM    3  C9  UNL     1      -4.490  -4.651  13.998  1.00  0.00     0.043 C 
HETATM    4  C10 UNL     1      -5.768  -5.220  13.420  1.00  0.00     0.038 C 
HETATM    5  C12 UNL     1      -6.889  -4.762  14.292  1.00  0.00     0.130 C 
ENDROOT
BRANCH   1   6
HETATM    6  O1  UNL     1      -6.109  -2.578  14.519  1.00  0.00    -0.369 OA
BRANCH   6   7
HETATM    7  C6  UNL     1      -6.359  -1.442  15.276  1.00  0.00     0.262 C 
BRANCH   7   8
HETATM    8  C5  UNL     1      -5.123  -0.680  15.460  1.00  0.00    -0.079 C 
HETATM    9  C4  UNL     1      -4.094  -0.069  15.617  1.00  0.00    -0.074 C 
BRANCH   9  10
HETATM   10  C3  UNL     1      -2.838   0.654  15.807  1.00  0.00     0.364 C 
BRANCH  10  11
HETATM   11  N1  UNL     1      -2.233   0.381  17.085  1.00  0.00     0.090 N 
HETATM   12  C1  UNL     1      -1.921  -1.014  17.168  1.00  0.00     0.310 C 
HETATM   13  C2  UNL     1      -1.061   1.183  17.339  1.00  0.00     0.310 C 
ENDBRANCH  10  11
ENDBRANCH   9  10
ENDBRANCH   7   8
ENDBRANCH   6   7
ENDBRANCH   1   6
BRANCH   2  14
HETATM   14  O2  UNL     1      -4.018  -3.727  16.180  1.00  0.00    -0.393 OA
ATOM     15  H2  UNL     1      -3.666  -4.188  16.933  1.00  0.00     0.210 HD
ENDBRANCH   2  14
BRANCH   5  16
HETATM   16  N2  UNL     1      -8.022  -4.245  13.614  1.00  0.00    -0.312 N 
ATOM     17  H2  UNL     1      -7.952  -3.508  12.911  1.00  0.00     0.172 HD
BRANCH  16  18
HETATM   18  S1  UNL     1      -9.512  -4.946  14.062  1.00  0.00     0.223 S 
HETATM   19  C13 UNL     1      -9.444  -5.750  15.637  1.00  0.00     0.185 C 
HETATM   20  O4  UNL     1      -9.855  -5.998  13.027  1.00  0.00    -0.206 OA
HETATM   21  O5  UNL     1     -10.606  -3.926  14.079  1.00  0.00    -0.206 OA
ENDBRANCH  16  18
ENDBRANCH   5  16
BRANCH   4  22
HETATM   22  C11 UNL     1      -5.944  -4.878  11.967  1.00  0.00     0.170 C 
BRANCH  22  23
HETATM   23  O3  UNL     1      -5.431  -3.597  11.759  1.00  0.00    -0.400 OA
ATOM     24  H3  UNL     1      -5.484  -3.123  12.581  1.00  0.00     0.209 HD
ENDBRANCH  22  23
ENDBRANCH   4  22
TORSDOF 10
ENDMDL
MODEL 5
REMARK VINA RESULT: -5.746073438      3.545      6.147
REMARK  10 active torsions:
REMARK  status: ('A' for Active; 'I' for Inactive)
REMARK    1  A    between atoms: N1_2  and  C3_4 
REMARK    2  A    between atoms: C3_4  and  C4_5 
REMARK    3  A    between atoms: C5_6  and  C6_7 
REMARK    4  A    between atoms: C6_7  and  O1_8 
REMARK    5  A    between atoms: O1_8  and  C7_9 
REMARK    6  A    between atoms: C8_10  and  O2_11 
REMARK    7  A    between atoms: C10_14  and  C11_15 
REMARK    8  A    between atoms: C11_15  and  O3_16 
REMARK    9  A    between atoms: C12_18  and  N2_19 
REMARK   10  A    between atoms: N2_19  and  S1_21 
ROOT
HETATM    1  C7  UNL     1      -0.743  -4.860  16.556  1.00  0.00     0.175 C 
HETATM    2  C8  UNL     1       0.378  -4.877  15.533  1.00  0.00     0.149 C 
HETATM    3  C9  UNL     1       0.156  -6.280  14.959  1.00  0.00     0.043 C 
HETATM    4  C10 UNL     1       0.041  -7.082  16.237  1.00  0.00     0.038 C 
HETATM    5  C12 UNL     1      -0.399  -6.143  17.310  1.00  0.00     0.130 C 
ENDROOT
BRANCH   1   6
HETATM    6  O1  UNL     1      -1.985  -5.047  16.001  1.00  0.00    -0.369 OA
BRANCH   6   7
HETATM    7  C6  UNL     1      -2.778  -3.908  16.023  1.00  0.00     0.262 C 
BRANCH   7   8
HETATM    8  C5  UNL     1      -3.666  -3.893  14.860  1.00  0.00    -0.079 C 
HETATM    9  C4  UNL     1      -4.391  -3.898  13.895  1.00  0.00    -0.074 C 
BRANCH   9  10
HETATM   10  C3  UNL     1      -5.265  -3.924  12.724  1.00  0.00     0.364 C 
BRANCH  10  11
HETATM   11  N1  UNL     1      -6.640  -4.186  13.068  1.00  0.00     0.090 N 
HETATM   12  C1  UNL     1      -6.763  -5.545  13.503  1.00  0.00     0.310 C 
HETATM   13  C2  UNL     1      -7.156  -3.281  14.065  1.00  0.00     0.310 C 
ENDBRANCH  10  11
ENDBRANCH   9  10
ENDBRANCH   7   8
ENDBRANCH   6   7
ENDBRANCH   1   6
BRANCH   2  14
HETATM   14  O2  UNL     1       0.286  -3.894  14.598  1.00  0.00    -0.393 OA
ATOM     15  H2  UNL     1       0.988  -3.905  13.958  1.00  0.00     0.210 HD
ENDBRANCH   2  14
BRANCH   5  16
HETATM   16  N2  UNL     1      -1.457  -6.605  18.134  1.00  0.00    -0.312 N 
ATOM     17  H2  UNL     1      -2.167  -7.259  17.801  1.00  0.00     0.172 HD
BRANCH  16  18
HETATM   18  S1  UNL     1      -1.455  -5.985  19.724  1.00  0.00     0.223 S 
HETATM   19  C13 UNL     1      -2.353  -7.004  20.858  1.00  0.00     0.185 C 
HETATM   20  O4  UNL     1      -2.135  -4.632  19.690  1.00  0.00    -0.206 OA
HETATM   21  O5  UNL     1      -0.059  -5.800  20.230  1.00  0.00    -0.206 OA
ENDBRANCH  16  18
ENDBRANCH   5  16
BRANCH   4  22
HETATM   22  C11 UNL     1      -0.842  -8.290  16.081  1.00  0.00     0.170 C 
BRANCH  22  23
HETATM   23  O3  UNL     1      -1.881  -7.955  15.212  1.00  0.00    -0.400 OA
ATOM     24  H3  UNL     1      -2.142  -8.743  14.748  1.00  0.00     0.209 HD
ENDBRANCH  22  23
ENDBRANCH   4  22
TORSDOF 10
ENDMDL
