MODEL 1
REMARK VINA RESULT: -7.899151446      0.000      0.000
REMARK  6 active torsions:
REMARK  status: ('A' for Active; 'I' for Inactive)
REMARK    1  A    between atoms: N1_2  and  C2_3 
REMARK    2  A    between atoms: N1_2  and  S1_20 
REMARK    3  A    between atoms: C5_9  and  C6_10 
REMARK    4  A    between atoms: C6_10  and  C7_11 
REMARK    5  A    between atoms: S1_20  and  N7_23 
REMARK    6  A    between atoms: N7_23  and  C8_25 
ROOT
HETATM    1  C2  UNL     1      -3.464  -2.846  15.106  1.00  0.00     0.128 C 
HETATM    2  C3  UNL     1      -2.168  -3.635  15.325  1.00  0.00     0.149 C 
HETATM    3  N2  UNL     1      -1.290  -2.638  15.901  1.00  0.00    -0.359 N 
ATOM      4  H2  UNL     1      -0.299  -2.512  15.692  1.00  0.00     0.162 HD
HETATM    5  C4  UNL     1      -2.057  -1.873  16.805  1.00  0.00     0.224 C 
HETATM    6  O1  UNL     1      -1.738  -1.250  17.844  1.00  0.00    -0.273 OA
HETATM    7  C5  UNL     1      -3.452  -1.920  16.283  1.00  0.00     0.110 C 
ENDROOT
BRANCH   1   8
HETATM    8  N1  UNL     1      -4.609  -3.707  15.077  1.00  0.00    -0.291 N 
HETATM    9  C1  UNL     1      -4.354  -5.092  15.101  1.00  0.00     0.165 C 
BRANCH   8  10
HETATM   10  S1  UNL     1      -5.825  -3.328  13.959  1.00  0.00     0.317 S 
HETATM   11  O2  UNL     1      -6.486  -1.995  14.176  1.00  0.00    -0.183 OA
HETATM   12  O3  UNL     1      -5.250  -3.397  12.556  1.00  0.00    -0.183 OA
BRANCH  10  13
HETATM   13  N7  UNL     1      -7.137  -4.484  13.985  1.00  0.00    -0.298 N 
ATOM     14  H7  UNL     1      -7.166  -5.355  13.455  1.00  0.00     0.174 HD
BRANCH  13  15
HETATM   15  C8  UNL     1      -8.178  -4.012  14.875  1.00  0.00     0.094 C 
HETATM   16  C9  UNL     1      -8.377  -5.012  16.009  1.00  0.00     0.026 C 
HETATM   17  C10 UNL     1      -9.454  -5.658  15.157  1.00  0.00     0.004 C 
HETATM   18  C11 UNL     1      -9.587  -4.325  14.434  1.00  0.00     0.026 C 
ENDBRANCH  13  15
ENDBRANCH  10  13
ENDBRANCH   8  10
ENDBRANCH   1   8
BRANCH   7  19
HETATM   19  C6  UNL     1      -3.963  -0.533  16.011  1.00  0.00     0.095 C 
BRANCH  19  20
HETATM   20  C7  UNL     1      -2.985   0.341  15.312  1.00  0.00     0.113 A 
HETATM   21  N3  UNL     1      -2.832   0.467  13.984  1.00  0.00    -0.272 N 
HETATM   22  N4  UNL     1      -1.871   1.329  13.762  1.00  0.00    -0.227 N 
ATOM     23  H3  UNL     1      -3.371  -0.024  13.270  1.00  0.00     0.190 HD
HETATM   24  N5  UNL     1      -1.387   1.775  14.908  1.00  0.00    -0.227 N 
ATOM     25  H4  UNL     1      -1.544   1.615  12.839  1.00  0.00     0.210 HD
HETATM   26  N6  UNL     1      -2.074   1.166  15.855  1.00  0.00    -0.272 N 
ATOM     27  H5  UNL     1      -0.636   2.454  15.035  1.00  0.00     0.210 HD
ATOM     28  H6  UNL     1      -1.932   1.301  16.856  1.00  0.00     0.190 HD
ENDBRANCH  19  20
ENDBRANCH   7  19
TORSDOF 6
ENDMDL
MODEL 2
REMARK VINA RESULT: -7.720172988      2.995      5.595
REMARK  6 active torsions:
REMARK  status: ('A' for Active; 'I' for Inactive)
REMARK    1  A    between atoms: N1_2  and  C2_3 
REMARK    2  A    between atoms: N1_2  and  S1_20 
REMARK    3  A    between atoms: C5_9  and  C6_10 
REMARK    4  A    between atoms: C6_10  and  C7_11 
REMARK    5  A    between atoms: S1_20  and  N7_23 
REMARK    6  A    between atoms: N7_23  and  C8_25 
ROOT
HETATM    1  C2  UNL     1      -3.480  -2.376  16.815  1.00  0.00     0.128 C 
HETATM    2  C3  UNL     1      -4.914  -2.878  16.607  1.00  0.00     0.149 C 
HETATM    3  N2  UNL     1      -5.671  -1.646  16.548  1.00  0.00    -0.359 N 
ATOM      4  H2  UNL     1      -6.586  -1.478  16.969  1.00  0.00     0.162 HD
HETATM    5  C4  UNL     1      -4.912  -0.720  15.803  1.00  0.00     0.224 C 
HETATM    6  O1  UNL     1      -5.254   0.253  15.091  1.00  0.00    -0.273 OA
HETATM    7  C5  UNL     1      -3.489  -1.111  16.011  1.00  0.00     0.110 C 
ENDROOT
BRANCH   1   8
HETATM    8  N1  UNL     1      -2.514  -3.330  16.356  1.00  0.00    -0.291 N 
HETATM    9  C1  UNL     1      -3.012  -4.582  15.947  1.00  0.00     0.165 C 
BRANCH   8  10
HETATM   10  S1  UNL     1      -1.109  -3.504  17.287  1.00  0.00     0.317 S 
HETATM   11  O2  UNL     1       0.006  -2.560  16.926  1.00  0.00    -0.183 OA
HETATM   12  O3  UNL     1      -1.462  -3.350  18.754  1.00  0.00    -0.183 OA
BRANCH  10  13
HETATM   13  N7  UNL     1      -0.406  -5.099  17.139  1.00  0.00    -0.298 N 
ATOM     14  H7  UNL     1      -0.678  -5.915  17.687  1.00  0.00     0.174 HD
BRANCH  13  15
HETATM   15  C8  UNL     1       0.622  -5.080  16.119  1.00  0.00     0.094 C 
HETATM   16  C9  UNL     1       0.208  -5.973  14.955  1.00  0.00     0.026 C 
HETATM   17  C10 UNL     1       0.963  -7.098  15.639  1.00  0.00     0.004 C 
HETATM   18  C11 UNL     1       1.774  -6.026  16.354  1.00  0.00     0.026 C 
ENDBRANCH  13  15
ENDBRANCH  10  13
ENDBRANCH   8  10
ENDBRANCH   1   8
BRANCH   7  19
HETATM   19  C6  UNL     1      -2.707   0.028  16.604  1.00  0.00     0.095 C 
BRANCH  19  20
HETATM   20  C7  UNL     1      -2.100   0.930  15.592  1.00  0.00     0.113 A 
HETATM   21  N3  UNL     1      -1.216   1.914  15.825  1.00  0.00    -0.272 N 
HETATM   22  N4  UNL     1      -0.920   2.479  14.681  1.00  0.00    -0.227 N 
ATOM     23  H3  UNL     1      -0.841   2.178  16.736  1.00  0.00     0.190 HD
HETATM   24  N5  UNL     1      -1.583   1.892  13.699  1.00  0.00    -0.227 N 
ATOM     25  H4  UNL     1      -0.272   3.257  14.564  1.00  0.00     0.210 HD
HETATM   26  N6  UNL     1      -2.305   0.943  14.263  1.00  0.00    -0.272 N 
ATOM     27  H5  UNL     1      -1.545   2.126  12.707  1.00  0.00     0.210 HD
ATOM     28  H6  UNL     1      -2.930   0.311  13.763  1.00  0.00     0.190 HD
ENDBRANCH  19  20
ENDBRANCH   7  19
TORSDOF 6
ENDMDL
MODEL 3
REMARK VINA RESULT: -7.665551811      2.769      6.561
REMARK  6 active torsions:
REMARK  status: ('A' for Active; 'I' for Inactive)
REMARK    1  A    between atoms: N1_2  and  C2_3 
REMARK    2  A    between atoms: N1_2  and  S1_20 
REMARK    3  A    between atoms: C5_9  and  C6_10 
REMARK    4  A    between atoms: C6_10  and  C7_11 
REMARK    5  A    between atoms: S1_20  and  N7_23 
REMARK    6  A    between atoms: N7_23  and  C8_25 
ROOT
HETATM    1  C2  UNL     1      -2.772  -2.968  16.329  1.00  0.00     0.128 C 
HETATM    2  C3  UNL     1      -3.163  -4.432  16.096  1.00  0.00     0.149 C 
HETATM    3  N2  UNL     1      -4.416  -4.310  15.380  1.00  0.00    -0.359 N 
ATOM      4  H2  UNL     1      -5.246  -4.887  15.513  1.00  0.00     0.162 HD
HETATM    5  C4  UNL     1      -4.275  -3.245  14.465  1.00  0.00     0.224 C 
HETATM    6  O1  UNL     1      -4.818  -3.026  13.357  1.00  0.00    -0.273 OA
HETATM    7  C5  UNL     1      -3.280  -2.321  15.077  1.00  0.00     0.110 C 
ENDROOT
BRANCH   1   8
HETATM    8  N1  UNL     1      -1.357  -2.820  16.507  1.00  0.00    -0.291 N 
HETATM    9  C1  UNL     1      -0.578  -3.982  16.342  1.00  0.00     0.165 C 
BRANCH   8  10
HETATM   10  S1  UNL     1      -0.843  -1.924  17.850  1.00  0.00     0.317 S 
HETATM   11  O2  UNL     1      -1.667  -0.700  18.142  1.00  0.00    -0.183 OA
HETATM   12  O3  UNL     1      -0.810  -2.828  19.068  1.00  0.00    -0.183 OA
BRANCH  10  13
HETATM   13  N7  UNL     1       0.790  -1.326  17.666  1.00  0.00    -0.298 N 
ATOM     14  H7  UNL     1       1.507  -1.744  17.073  1.00  0.00     0.174 HD
BRANCH  13  15
HETATM   15  C8  UNL     1       0.966  -0.145  18.486  1.00  0.00     0.094 C 
HETATM   16  C9  UNL     1       1.150   1.078  17.594  1.00  0.00     0.026 C 
HETATM   17  C10 UNL     1       2.645   0.837  17.689  1.00  0.00     0.004 C 
HETATM   18  C11 UNL     1       2.372   0.084  18.984  1.00  0.00     0.026 C 
ENDBRANCH  13  15
ENDBRANCH  10  13
ENDBRANCH   8  10
ENDBRANCH   1   8
BRANCH   7  19
HETATM   19  C6  UNL     1      -3.872  -0.951  15.261  1.00  0.00     0.095 C 
BRANCH  19  20
HETATM   20  C7  UNL     1      -2.933   0.155  14.943  1.00  0.00     0.113 A 
HETATM   21  N3  UNL     1      -2.646   0.635  13.721  1.00  0.00    -0.272 N 
HETATM   22  N4  UNL     1      -1.777   1.605  13.856  1.00  0.00    -0.227 N 
ATOM     23  H3  UNL     1      -3.037   0.300  12.840  1.00  0.00     0.190 HD
HETATM   24  N5  UNL     1      -1.484   1.780  15.132  1.00  0.00    -0.227 N 
ATOM     25  H4  UNL     1      -1.384   2.148  13.087  1.00  0.00     0.210 HD
HETATM   26  N6  UNL     1      -2.196   0.888  15.795  1.00  0.00    -0.272 N 
ATOM     27  H5  UNL     1      -0.840   2.465  15.526  1.00  0.00     0.210 HD
ATOM     28  H6  UNL     1      -2.187   0.772  16.808  1.00  0.00     0.190 HD
ENDBRANCH  19  20
ENDBRANCH   7  19
TORSDOF 6
ENDMDL
MODEL 4
REMARK VINA RESULT: -7.622057583      1.757      2.354
REMARK  6 active torsions:
REMARK  status: ('A' for Active; 'I' for Inactive)
REMARK    1  A    between atoms: N1_2  and  C2_3 
REMARK    2  A    between atoms: N1_2  and  S1_20 
REMARK    3  A    between atoms: C5_9  and  C6_10 
REMARK    4  A    between atoms: C6_10  and  C7_11 
REMARK    5  A    between atoms: S1_20  and  N7_23 
REMARK    6  A    between atoms: N7_23  and  C8_25 
ROOT
HETATM    1  C2  UNL     1      -4.004  -4.138  15.940  1.00  0.00     0.128 C 
HETATM    2  C3  UNL     1      -4.027  -5.374  16.848  1.00  0.00     0.149 C 
HETATM    3  N2  UNL     1      -2.660  -5.843  16.772  1.00  0.00    -0.359 N 
ATOM      4  H2  UNL     1      -2.357  -6.816  16.711  1.00  0.00     0.162 HD
HETATM    5  C4  UNL     1      -1.823  -4.707  16.796  1.00  0.00     0.224 C 
HETATM    6  O1  UNL     1      -0.649  -4.549  17.205  1.00  0.00    -0.273 OA
HETATM    7  C5  UNL     1      -2.628  -3.606  16.198  1.00  0.00     0.110 C 
ENDROOT
BRANCH   1   8
HETATM    8  N1  UNL     1      -5.042  -3.211  16.283  1.00  0.00    -0.291 N 
HETATM    9  C1  UNL     1      -5.938  -3.615  17.292  1.00  0.00     0.165 C 
BRANCH   8  10
HETATM   10  S1  UNL     1      -5.861  -2.470  14.998  1.00  0.00     0.317 S 
HETATM   11  O2  UNL     1      -5.722  -0.974  14.943  1.00  0.00    -0.183 OA
HETATM   12  O3  UNL     1      -5.392  -3.081  13.691  1.00  0.00    -0.183 OA
BRANCH  10  13
HETATM   13  N7  UNL     1      -7.586  -2.754  15.055  1.00  0.00    -0.298 N 
ATOM     14  H7  UNL     1      -8.250  -2.230  15.625  1.00  0.00     0.174 HD
BRANCH  13  15
HETATM   15  C8  UNL     1      -7.925  -3.847  14.167  1.00  0.00     0.094 C 
HETATM   16  C9  UNL     1      -9.433  -4.071  14.181  1.00  0.00     0.026 C 
HETATM   17  C10 UNL     1      -9.202  -5.090  15.282  1.00  0.00     0.004 C 
HETATM   18  C11 UNL     1      -7.777  -5.225  14.765  1.00  0.00     0.026 C 
ENDBRANCH  13  15
ENDBRANCH  10  13
ENDBRANCH   8  10
ENDBRANCH   1   8
BRANCH   7  19
HETATM   19  C6  UNL     1      -1.931  -3.031  14.997  1.00  0.00     0.095 C 
BRANCH  19  20
HETATM   20  C7  UNL     1      -2.362  -1.651  14.656  1.00  0.00     0.113 A 
HETATM   21  N3  UNL     1      -2.464  -0.612  15.502  1.00  0.00    -0.272 N 
HETATM   22  N4  UNL     1      -2.875   0.430  14.823  1.00  0.00    -0.227 N 
ATOM     23  H3  UNL     1      -2.257  -0.632  16.500  1.00  0.00     0.190 HD
HETATM   24  N5  UNL     1      -3.046   0.107  13.553  1.00  0.00    -0.227 N 
ATOM     25  H4  UNL     1      -3.039   1.356  15.218  1.00  0.00     0.210 HD
HETATM   26  N6  UNL     1      -2.731  -1.169  13.456  1.00  0.00    -0.272 N 
ATOM     27  H5  UNL     1      -3.358   0.721  12.801  1.00  0.00     0.210 HD
ATOM     28  H6  UNL     1      -2.762  -1.713  12.594  1.00  0.00     0.190 HD
ENDBRANCH  19  20
ENDBRANCH   7  19
TORSDOF 6
ENDMDL
MODEL 5
REMARK VINA RESULT: -7.539313115      1.973      2.398
REMARK  6 active torsions:
REMARK  status: ('A' for Active; 'I' for Inactive)
REMARK    1  A    between atoms: N1_2  and  C2_3 
REMARK    2  A    between atoms: N1_2  and  S1_20 
REMARK    3  A    between atoms: C5_9  and  C6_10 
REMARK    4  A    between atoms: C6_10  and  C7_11 
REMARK    5  A    between atoms: S1_20  and  N7_23 
REMARK    6  A    between atoms: N7_23  and  C8_25 
ROOT
HETATM    1  C2  UNL     1      -2.139  -2.548  16.083  1.00  0.00     0.128 C 
HETATM    2  C3  UNL     1      -1.041  -3.606  16.247  1.00  0.00     0.149 C 
HETATM    3  N2  UNL     1       0.034  -2.848  16.853  1.00  0.00    -0.359 N 
ATOM      4  H2  UNL     1       1.027  -2.927  16.634  1.00  0.00     0.162 HD
HETATM    5  C4  UNL     1      -0.546  -1.979  17.801  1.00  0.00     0.224 C 
HETATM    6  O1  UNL     1      -0.096  -1.488  18.862  1.00  0.00    -0.273 OA
HETATM    7  C5  UNL     1      -1.922  -1.703  17.300  1.00  0.00     0.110 C 
ENDROOT
BRANCH   1   8
HETATM    8  N1  UNL     1      -3.442  -3.143  16.033  1.00  0.00    -0.291 N 
HETATM    9  C1  UNL     1      -3.552  -4.459  16.522  1.00  0.00     0.165 C 
BRANCH   8  10
HETATM   10  S1  UNL     1      -4.318  -2.949  14.596  1.00  0.00     0.317 S 
HETATM   11  O2  UNL     1      -5.588  -2.154  14.736  1.00  0.00    -0.183 OA
HETATM   12  O3  UNL     1      -3.423  -2.313  13.549  1.00  0.00    -0.183 OA
BRANCH  10  13
HETATM   13  N7  UNL     1      -4.825  -4.477  13.913  1.00  0.00    -0.298 N 
ATOM     14  H7  UNL     1      -4.337  -5.365  14.030  1.00  0.00     0.174 HD
BRANCH  13  15
HETATM   15  C8  UNL     1      -6.044  -4.286  13.155  1.00  0.00     0.094 C 
HETATM   16  C9  UNL     1      -6.806  -5.604  13.065  1.00  0.00     0.026 C 
HETATM   17  C10 UNL     1      -6.079  -5.855  11.757  1.00  0.00     0.004 C 
HETATM   18  C11 UNL     1      -5.882  -4.349  11.656  1.00  0.00     0.026 C 
ENDBRANCH  13  15
ENDBRANCH  10  13
ENDBRANCH   8  10
ENDBRANCH   1   8
BRANCH   7  19
HETATM   19  C6  UNL     1      -2.125  -0.227  17.097  1.00  0.00     0.095 C 
BRANCH  19  20
HETATM   20  C7  UNL     1      -2.798   0.116  15.817  1.00  0.00     0.113 A 
HETATM   21  N3  UNL     1      -4.119   0.257  15.621  1.00  0.00    -0.272 N 
HETATM   22  N4  UNL     1      -4.316   0.560  14.362  1.00  0.00    -0.227 N 
ATOM     23  H3  UNL     1      -4.844   0.146  16.330  1.00  0.00     0.190 HD
HETATM   24  N5  UNL     1      -3.161   0.624  13.723  1.00  0.00    -0.227 N 
ATOM     25  H4  UNL     1      -5.229   0.724  13.936  1.00  0.00     0.210 HD
HETATM   26  N6  UNL     1      -2.233   0.350  14.620  1.00  0.00    -0.272 N 
ATOM     27  H5  UNL     1      -3.016   0.841  12.737  1.00  0.00     0.210 HD
ATOM     28  H6  UNL     1      -1.232   0.321  14.432  1.00  0.00     0.190 HD
ENDBRANCH  19  20
ENDBRANCH   7  19
TORSDOF 6
ENDMDL
