MODEL 1
REMARK VINA RESULT: -7.313308001      0.000      0.000
REMARK  6 active torsions:
REMARK  status: ('A' for Active; 'I' for Inactive)
REMARK    1  A    between atoms: C2_7  and  C3_8 
REMARK    2  A    between atoms: C3_8  and  N3_9 
REMARK    3  A    between atoms: N3_9  and  C4_10 
REMARK    4  A    between atoms: N3_9  and  C10_20 
REMARK    5  A    between atoms: C4_10  and  C5_11 
REMARK       I    between atoms: C5_11  and  N4_13 
REMARK    6  A    between atoms: C10_20  and  C11_21 
ROOT
HETATM    1  N3  UNL     1      -4.624  -4.001  14.663  1.00  0.00    -0.341 N 
ENDROOT
BRANCH   1   2
HETATM    2  C3  UNL     1      -4.250  -2.817  14.038  1.00  0.00     0.096 C 
BRANCH   2   3
HETATM    3  C2  UNL     1      -3.476  -1.797  14.836  1.00  0.00     0.148 C 
HETATM    4  N2  UNL     1      -2.696  -0.989  13.881  1.00  0.00    -0.345 N 
HETATM    5  C1  UNL     1      -2.754   0.349  14.337  1.00  0.00     0.213 C 
ATOM      6  H2  UNL     1      -2.208  -1.330  13.052  1.00  0.00     0.163 HD
HETATM    7  N1  UNL     1      -2.034   1.354  13.937  1.00  0.00    -0.365 N 
HETATM    8  O3  UNL     1      -3.722   0.457  15.311  1.00  0.00    -0.320 OA
ATOM      9  H12 UNL     1      -1.318   1.274  13.216  1.00  0.00     0.159 HD
ATOM     10  H11 UNL     1      -2.076   2.319  14.265  1.00  0.00     0.159 HD
HETATM   11  C15 UNL     1      -4.396  -0.770  15.456  1.00  0.00     0.209 C 
ENDBRANCH   2   3
ENDBRANCH   1   2
BRANCH   1  12
HETATM   12  C4  UNL     1      -3.857  -4.445  15.751  1.00  0.00     0.169 C 
BRANCH  12  13
HETATM   13  C5  UNL     1      -2.978  -5.589  15.615  1.00  0.00     0.259 C 
HETATM   14  O1  UNL     1      -3.399  -6.757  15.707  1.00  0.00    -0.267 OA
HETATM   15  N4  UNL     1      -1.601  -5.371  15.372  1.00  0.00    -0.344 N 
HETATM   16  C6  UNL     1      -0.974  -4.068  15.250  1.00  0.00     0.145 C 
HETATM   17  C9  UNL     1      -0.660  -6.487  15.207  1.00  0.00     0.145 C 
HETATM   18  C7  UNL     1       0.503  -4.223  15.530  1.00  0.00     0.133 C 
HETATM   19  N5  UNL     1       0.814  -5.138  16.578  1.00  0.00    -0.418 N 
HETATM   20  C8  UNL     1       0.202  -6.436  16.468  1.00  0.00     0.133 C 
ATOM     21  H5  UNL     1       1.428  -4.890  17.353  1.00  0.00     0.153 HD
ENDBRANCH  12  13
ENDBRANCH   1  12
BRANCH   1  22
HETATM   22  C10 UNL     1      -5.808  -4.677  14.333  1.00  0.00     0.100 C 
BRANCH  22  23
HETATM   23  C11 UNL     1      -7.127  -3.987  14.550  1.00  0.00     0.160 C 
HETATM   24  C12 UNL     1      -7.738  -4.610  15.796  1.00  0.00     0.039 C 
HETATM   25  C13 UNL     1      -9.146  -4.981  15.407  1.00  0.00     0.029 C 
HETATM   26  C14 UNL     1      -9.276  -4.272  14.072  1.00  0.00     0.168 C 
HETATM   27  O2  UNL     1      -8.000  -4.358  13.514  1.00  0.00    -0.381 OA
ENDBRANCH  22  23
ENDBRANCH   1  22
TORSDOF 6
ENDMDL
MODEL 2
REMARK VINA RESULT: -7.197754272      2.146      3.005
REMARK  6 active torsions:
REMARK  status: ('A' for Active; 'I' for Inactive)
REMARK    1  A    between atoms: C2_7  and  C3_8 
REMARK    2  A    between atoms: C3_8  and  N3_9 
REMARK    3  A    between atoms: N3_9  and  C4_10 
REMARK    4  A    between atoms: N3_9  and  C10_20 
REMARK    5  A    between atoms: C4_10  and  C5_11 
REMARK       I    between atoms: C5_11  and  N4_13 
REMARK    6  A    between atoms: C10_20  and  C11_21 
ROOT
HETATM    1  N3  UNL     1      -2.890  -1.517  16.382  1.00  0.00    -0.341 N 
ENDROOT
BRANCH   1   2
HETATM    2  C3  UNL     1      -2.366  -0.290  16.771  1.00  0.00     0.096 C 
BRANCH   2   3
HETATM    3  C2  UNL     1      -2.623   0.912  15.896  1.00  0.00     0.148 C 
HETATM    4  N2  UNL     1      -1.430   1.774  15.966  1.00  0.00    -0.345 N 
HETATM    5  C1  UNL     1      -1.209   2.271  14.660  1.00  0.00     0.213 C 
ATOM      6  H2  UNL     1      -0.871   1.973  16.796  1.00  0.00     0.163 HD
HETATM    7  N1  UNL     1      -0.411   3.233  14.303  1.00  0.00    -0.365 N 
HETATM    8  O3  UNL     1      -1.987   1.569  13.767  1.00  0.00    -0.320 OA
ATOM      9  H12 UNL     1       0.165   3.753  14.965  1.00  0.00     0.159 HD
ATOM     10  H11 UNL     1      -0.251   3.592  13.362  1.00  0.00     0.159 HD
HETATM   11  C15 UNL     1      -2.664   0.529  14.433  1.00  0.00     0.209 C 
ENDBRANCH   2   3
ENDBRANCH   1   2
BRANCH   1  12
HETATM   12  C4  UNL     1      -2.005  -2.483  15.878  1.00  0.00     0.169 C 
BRANCH  12  13
HETATM   13  C5  UNL     1      -1.364  -3.430  16.768  1.00  0.00     0.259 C 
HETATM   14  O1  UNL     1      -0.720  -3.062  17.768  1.00  0.00    -0.267 OA
HETATM   15  N4  UNL     1      -1.471  -4.813  16.490  1.00  0.00    -0.344 N 
HETATM   16  C6  UNL     1      -2.181  -5.382  15.359  1.00  0.00     0.145 C 
HETATM   17  C9  UNL     1      -0.860  -5.826  17.362  1.00  0.00     0.145 C 
HETATM   18  C7  UNL     1      -1.639  -6.769  15.106  1.00  0.00     0.133 C 
HETATM   19  N5  UNL     1      -0.230  -6.895  15.281  1.00  0.00    -0.418 N 
HETATM   20  C8  UNL     1       0.287  -6.391  16.526  1.00  0.00     0.133 C 
ATOM     21  H5  UNL     1       0.372  -7.314  14.571  1.00  0.00     0.153 HD
ENDBRANCH  12  13
ENDBRANCH   1  12
BRANCH   1  22
HETATM   22  C10 UNL     1      -4.231  -1.860  16.605  1.00  0.00     0.100 C 
BRANCH  22  23
HETATM   23  C11 UNL     1      -4.988  -2.583  15.524  1.00  0.00     0.160 C 
HETATM   24  C12 UNL     1      -6.370  -1.949  15.470  1.00  0.00     0.039 C 
HETATM   25  C13 UNL     1      -7.340  -3.101  15.517  1.00  0.00     0.029 C 
HETATM   26  C14 UNL     1      -6.405  -4.278  15.305  1.00  0.00     0.168 C 
HETATM   27  O2  UNL     1      -5.228  -3.898  15.953  1.00  0.00    -0.381 OA
ENDBRANCH  22  23
ENDBRANCH   1  22
TORSDOF 6
ENDMDL
MODEL 3
REMARK VINA RESULT: -7.132705869      1.863      5.658
REMARK  6 active torsions:
REMARK  status: ('A' for Active; 'I' for Inactive)
REMARK    1  A    between atoms: C2_7  and  C3_8 
REMARK    2  A    between atoms: C3_8  and  N3_9 
REMARK    3  A    between atoms: N3_9  and  C4_10 
REMARK    4  A    between atoms: N3_9  and  C10_20 
REMARK    5  A    between atoms: C4_10  and  C5_11 
REMARK       I    between atoms: C5_11  and  N4_13 
REMARK    6  A    between atoms: C10_20  and  C11_21 
ROOT
HETATM    1  N3  UNL     1      -3.637  -4.773  15.260  1.00  0.00    -0.341 N 
ENDROOT
BRANCH   1   2
HETATM    2  C3  UNL     1      -3.879  -3.597  14.561  1.00  0.00     0.096 C 
BRANCH   2   3
HETATM    3  C2  UNL     1      -3.549  -2.284  15.227  1.00  0.00     0.148 C 
HETATM    4  N2  UNL     1      -2.628  -1.555  14.337  1.00  0.00    -0.345 N 
HETATM    5  C1  UNL     1      -3.016  -0.195  14.375  1.00  0.00     0.213 C 
ATOM      6  H2  UNL     1      -1.860  -1.955  13.797  1.00  0.00     0.163 HD
HETATM    7  N1  UNL     1      -2.355   0.830  13.925  1.00  0.00    -0.365 N 
HETATM    8  O3  UNL     1      -4.247  -0.089  14.982  1.00  0.00    -0.320 OA
ATOM      9  H12 UNL     1      -1.443   0.751  13.476  1.00  0.00     0.159 HD
ATOM     10  H11 UNL     1      -2.634   1.811  13.952  1.00  0.00     0.159 HD
HETATM   11  C15 UNL     1      -4.754  -1.371  15.269  1.00  0.00     0.209 C 
ENDBRANCH   2   3
ENDBRANCH   1   2
BRANCH   1  12
HETATM   12  C4  UNL     1      -4.543  -5.140  16.268  1.00  0.00     0.169 C 
BRANCH  12  13
HETATM   13  C5  UNL     1      -5.628  -6.057  15.985  1.00  0.00     0.259 C 
HETATM   14  O1  UNL     1      -5.457  -7.290  15.954  1.00  0.00    -0.267 OA
HETATM   15  N4  UNL     1      -6.920  -5.536  15.735  1.00  0.00    -0.344 N 
HETATM   16  C6  UNL     1      -7.260  -4.125  15.730  1.00  0.00     0.145 C 
HETATM   17  C9  UNL     1      -8.067  -6.412  15.459  1.00  0.00     0.145 C 
HETATM   18  C7  UNL     1      -8.527  -3.944  14.927  1.00  0.00     0.133 C 
HETATM   19  N5  UNL     1      -8.615  -4.768  13.766  1.00  0.00    -0.418 N 
HETATM   20  C8  UNL     1      -8.373  -6.170  13.982  1.00  0.00     0.133 C 
ATOM     21  H5  UNL     1      -8.834  -4.389  12.845  1.00  0.00     0.153 HD
ENDBRANCH  12  13
ENDBRANCH   1  12
BRANCH   1  22
HETATM   22  C10 UNL     1      -2.611  -5.659  14.900  1.00  0.00     0.100 C 
BRANCH  22  23
HETATM   23  C11 UNL     1      -2.045  -6.582  15.943  1.00  0.00     0.160 C 
HETATM   24  C12 UNL     1      -0.562  -6.256  16.048  1.00  0.00     0.039 C 
HETATM   25  C13 UNL     1       0.147  -7.581  15.943  1.00  0.00     0.029 C 
HETATM   26  C14 UNL     1      -1.017  -8.546  16.077  1.00  0.00     0.168 C 
HETATM   27  O2  UNL     1      -2.075  -7.893  15.442  1.00  0.00    -0.381 OA
ENDBRANCH  22  23
ENDBRANCH   1  22
TORSDOF 6
ENDMDL
MODEL 4
REMARK VINA RESULT: -7.119760287      1.890      6.027
REMARK  6 active torsions:
REMARK  status: ('A' for Active; 'I' for Inactive)
REMARK    1  A    between atoms: C2_7  and  C3_8 
REMARK    2  A    between atoms: C3_8  and  N3_9 
REMARK    3  A    between atoms: N3_9  and  C4_10 
REMARK    4  A    between atoms: N3_9  and  C10_20 
REMARK    5  A    between atoms: C4_10  and  C5_11 
REMARK       I    between atoms: C5_11  and  N4_13 
REMARK    6  A    between atoms: C10_20  and  C11_21 
ROOT
HETATM    1  N3  UNL     1      -3.141  -4.284  14.899  1.00  0.00    -0.341 N 
ENDROOT
BRANCH   1   2
HETATM    2  C3  UNL     1      -4.467  -4.163  15.298  1.00  0.00     0.096 C 
BRANCH   2   3
HETATM    3  C2  UNL     1      -5.541  -4.738  14.407  1.00  0.00     0.148 C 
HETATM    4  N2  UNL     1      -6.836  -4.235  14.897  1.00  0.00    -0.345 N 
HETATM    5  C1  UNL     1      -7.616  -3.938  13.755  1.00  0.00     0.213 C 
ATOM      6  H2  UNL     1      -7.117  -4.124  15.872  1.00  0.00     0.163 HD
HETATM    7  N1  UNL     1      -8.890  -3.685  13.709  1.00  0.00    -0.365 N 
HETATM    8  O3  UNL     1      -6.811  -3.951  12.638  1.00  0.00    -0.320 OA
ATOM      9  H12 UNL     1      -9.486  -3.675  14.536  1.00  0.00     0.159 HD
ATOM     10  H11 UNL     1      -9.453  -3.470  12.886  1.00  0.00     0.159 HD
HETATM   11  C15 UNL     1      -5.470  -4.155  13.014  1.00  0.00     0.209 C 
ENDBRANCH   2   3
ENDBRANCH   1   2
BRANCH   1  12
HETATM   12  C4  UNL     1      -2.326  -3.143  14.960  1.00  0.00     0.169 C 
BRANCH  12  13
HETATM   13  C5  UNL     1      -2.748  -1.901  14.343  1.00  0.00     0.259 C 
HETATM   14  O1  UNL     1      -3.051  -1.835  13.137  1.00  0.00    -0.267 OA
HETATM   15  N4  UNL     1      -2.817  -0.730  15.134  1.00  0.00    -0.344 N 
HETATM   16  C6  UNL     1      -2.486  -0.660  16.546  1.00  0.00     0.145 C 
HETATM   17  C9  UNL     1      -3.254   0.556  14.575  1.00  0.00     0.145 C 
HETATM   18  C7  UNL     1      -2.167   0.777  16.888  1.00  0.00     0.133 C 
HETATM   19  N5  UNL     1      -1.435   1.476  15.884  1.00  0.00    -0.418 N 
HETATM   20  C8  UNL     1      -1.983   1.404  14.556  1.00  0.00     0.133 C 
ATOM     21  H5  UNL     1      -0.580   1.992  16.093  1.00  0.00     0.153 HD
ENDBRANCH  12  13
ENDBRANCH   1  12
BRANCH   1  22
HETATM   22  C10 UNL     1      -2.569  -5.522  14.577  1.00  0.00     0.100 C 
BRANCH  22  23
HETATM   23  C11 UNL     1      -2.203  -6.468  15.688  1.00  0.00     0.160 C 
HETATM   24  C12 UNL     1      -0.781  -6.116  16.101  1.00  0.00     0.039 C 
HETATM   25  C13 UNL     1      -0.031  -7.424  16.107  1.00  0.00     0.029 C 
HETATM   26  C14 UNL     1      -1.173  -8.414  15.974  1.00  0.00     0.168 C 
HETATM   27  O2  UNL     1      -2.096  -7.763  15.154  1.00  0.00    -0.381 OA
ENDBRANCH  22  23
ENDBRANCH   1  22
TORSDOF 6
ENDMDL
MODEL 5
REMARK VINA RESULT: -7.108131441      2.216      5.611
REMARK  6 active torsions:
REMARK  status: ('A' for Active; 'I' for Inactive)
REMARK    1  A    between atoms: C2_7  and  C3_8 
REMARK    2  A    between atoms: C3_8  and  N3_9 
REMARK    3  A    between atoms: N3_9  and  C4_10 
REMARK    4  A    between atoms: N3_9  and  C10_20 
REMARK    5  A    between atoms: C4_10  and  C5_11 
REMARK       I    between atoms: C5_11  and  N4_13 
REMARK    6  A    between atoms: C10_20  and  C11_21 
ROOT
HETATM    1  N3  UNL     1      -3.168  -1.753  16.124  1.00  0.00    -0.341 N 
ENDROOT
BRANCH   1   2
HETATM    2  C3  UNL     1      -2.507  -0.616  16.573  1.00  0.00     0.096 C 
BRANCH   2   3
HETATM    3  C2  UNL     1      -2.733   0.684  15.839  1.00  0.00     0.148 C 
HETATM    4  N2  UNL     1      -1.574   1.552  16.112  1.00  0.00    -0.345 N 
HETATM    5  C1  UNL     1      -1.270   2.217  14.901  1.00  0.00     0.213 C 
ATOM      6  H2  UNL     1      -1.086   1.654  17.002  1.00  0.00     0.163 HD
HETATM    7  N1  UNL     1      -0.476   3.233  14.732  1.00  0.00    -0.365 N 
HETATM    8  O3  UNL     1      -1.958   1.620  13.867  1.00  0.00    -0.320 OA
ATOM      9  H12 UNL     1       0.033   3.674  15.497  1.00  0.00     0.159 HD
ATOM     10  H11 UNL     1      -0.256   3.712  13.859  1.00  0.00     0.159 HD
HETATM   11  C15 UNL     1      -2.652   0.491  14.341  1.00  0.00     0.209 C 
ENDBRANCH   2   3
ENDBRANCH   1   2
BRANCH   1  12
HETATM   12  C4  UNL     1      -4.521  -1.908  16.464  1.00  0.00     0.169 C 
BRANCH  12  13
HETATM   13  C5  UNL     1      -5.520  -2.115  15.436  1.00  0.00     0.259 C 
HETATM   14  O1  UNL     1      -5.870  -1.202  14.665  1.00  0.00    -0.267 OA
HETATM   15  N4  UNL     1      -6.117  -3.391  15.305  1.00  0.00    -0.344 N 
HETATM   16  C6  UNL     1      -5.812  -4.540  16.137  1.00  0.00     0.145 C 
HETATM   17  C9  UNL     1      -7.124  -3.672  14.272  1.00  0.00     0.145 C 
HETATM   18  C7  UNL     1      -6.975  -5.502  16.063  1.00  0.00     0.133 C 
HETATM   19  N5  UNL     1      -8.258  -4.880  16.039  1.00  0.00    -0.418 N 
HETATM   20  C8  UNL     1      -8.423  -3.842  15.056  1.00  0.00     0.133 C 
ATOM     21  H5  UNL     1      -9.007  -5.152  16.675  1.00  0.00     0.153 HD
ENDBRANCH  12  13
ENDBRANCH   1  12
BRANCH   1  22
HETATM   22  C10 UNL     1      -2.571  -2.663  15.241  1.00  0.00     0.100 C 
BRANCH  22  23
HETATM   23  C11 UNL     1      -2.047  -3.966  15.779  1.00  0.00     0.160 C 
HETATM   24  C12 UNL     1      -0.557  -3.990  15.472  1.00  0.00     0.039 C 
HETATM   25  C13 UNL     1      -0.305  -5.324  14.818  1.00  0.00     0.029 C 
HETATM   26  C14 UNL     1      -1.622  -6.030  15.080  1.00  0.00     0.168 C 
HETATM   27  O2  UNL     1      -2.575  -5.013  15.007  1.00  0.00    -0.381 OA
ENDBRANCH  22  23
ENDBRANCH   1  22
TORSDOF 6
ENDMDL
