MODEL 1
REMARK VINA RESULT: -7.525179640      0.000      0.000
REMARK  4 active torsions:
REMARK  status: ('A' for Active; 'I' for Inactive)
REMARK    1  A    between atoms: C5_6  and  C6_7 
REMARK    2  A    between atoms: C13_20  and  C14_21 
REMARK    3  A    between atoms: C15_24  and  N6_25 
REMARK    4  A    between atoms: C16_30  and  N8_31 
ROOT
HETATM    1  C1  UNL     1     -11.224  48.188  55.282  1.00  0.00     0.104 C 
HETATM    2  C2  UNL     1     -11.555  47.009  55.182  1.00  0.00    -0.138 C 
HETATM    3  C3  UNL     1     -11.939  45.653  55.108  1.00  0.00     0.086 C 
HETATM    4  C4  UNL     1     -12.973  45.210  56.019  1.00  0.00     0.107 C 
HETATM    5  N1  UNL     1     -13.798  44.839  56.741  1.00  0.00    -0.191 NA
HETATM    6  C5  UNL     1     -11.401  44.813  54.260  1.00  0.00     0.044 C 
ENDROOT
BRANCH   6   7
HETATM    7  C6  UNL     1     -10.373  45.195  53.327  1.00  0.00    -0.002 A 
HETATM    8  C7  UNL     1      -9.028  45.269  53.675  1.00  0.00     0.102 A 
HETATM    9  N2  UNL     1      -8.334  45.698  52.636  1.00  0.00    -0.351 N 
HETATM   10  C8  UNL     1      -9.176  45.908  51.623  1.00  0.00     0.119 A 
ATOM     11  H2  UNL     1      -7.325  45.844  52.612  1.00  0.00     0.166 HD
HETATM   12  N3  UNL     1      -8.992  46.373  50.389  1.00  0.00    -0.338 N 
HETATM   13  C18 UNL     1     -10.492  45.593  52.030  1.00  0.00     0.048 A 
HETATM   14  C9  UNL     1      -9.971  46.558  49.519  1.00  0.00     0.182 A 
ATOM     15  H3  UNL     1      -8.042  46.601  50.098  1.00  0.00     0.168 HD
HETATM   16  N4  UNL     1     -11.202  46.256  49.910  1.00  0.00    -0.350 N 
HETATM   17  C10 UNL     1     -11.517  45.764  51.163  1.00  0.00     0.065 A 
ATOM     18  H4  UNL     1     -11.963  46.394  49.245  1.00  0.00     0.166 HD
HETATM   19  C11 UNL     1     -12.886  45.333  51.342  1.00  0.00     0.033 A 
HETATM   20  C12 UNL     1     -13.956  46.023  50.754  1.00  0.00     0.037 A 
HETATM   21  S1  UNL     1     -13.700  44.134  52.183  1.00  0.00    -0.099 SA
HETATM   22  C13 UNL     1     -15.190  45.589  50.995  1.00  0.00     0.017 A 
HETATM   23  C17 UNL     1     -15.321  44.489  51.810  1.00  0.00     0.065 A 
BRANCH  22  24
HETATM   24  C14 UNL     1     -16.419  46.241  50.438  1.00  0.00     0.147 A 
HETATM   25  N5  UNL     1     -16.878  47.368  51.012  1.00  0.00    -0.175 N 
HETATM   26  C15 UNL     1     -17.973  47.992  50.563  1.00  0.00     0.692 A 
ATOM     27  H5  UNL     1     -16.378  47.757  51.811  1.00  0.00     0.186 HD
HETATM   28  N7  UNL     1     -18.595  47.437  49.509  1.00  0.00    -0.023 N 
HETATM   29  C16 UNL     1     -18.154  46.321  48.927  1.00  0.00     0.692 A 
ATOM     30  H7  UNL     1     -19.434  47.885  49.140  1.00  0.00     0.203 HD
HETATM   31  N9  UNL     1     -17.045  45.714  49.404  1.00  0.00    -0.175 N 
ATOM     32  H9  UNL     1     -16.696  44.859  48.970  1.00  0.00     0.186 HD
BRANCH  26  33
HETATM   33  N6  UNL     1     -18.439  49.074  51.094  1.00  0.00    -0.234 N 
ATOM     34  H62 UNL     1     -18.666  49.099  52.088  1.00  0.00     0.174 HD
ATOM     35  H61 UNL     1     -18.598  49.932  50.566  1.00  0.00     0.174 HD
ENDBRANCH  26  33
BRANCH  29  36
HETATM   36  N8  UNL     1     -18.744  45.785  47.916  1.00  0.00    -0.234 N 
ATOM     37  H82 UNL     1     -19.521  45.150  48.100  1.00  0.00     0.174 HD
ATOM     38  H81 UNL     1     -18.464  45.972  46.953  1.00  0.00     0.174 HD
ENDBRANCH  29  36
ENDBRANCH  22  24
ENDBRANCH   6   7
TORSDOF 4
ENDMDL
MODEL 2
REMARK VINA RESULT: -7.480438462      0.266      1.531
REMARK  4 active torsions:
REMARK  status: ('A' for Active; 'I' for Inactive)
REMARK    1  A    between atoms: C5_6  and  C6_7 
REMARK    2  A    between atoms: C13_20  and  C14_21 
REMARK    3  A    between atoms: C15_24  and  N6_25 
REMARK    4  A    between atoms: C16_30  and  N8_31 
ROOT
HETATM    1  C1  UNL     1     -11.700  48.080  55.168  1.00  0.00     0.104 C 
HETATM    2  C2  UNL     1     -11.926  46.873  55.136  1.00  0.00    -0.138 C 
HETATM    3  C3  UNL     1     -12.194  45.487  55.139  1.00  0.00     0.086 C 
HETATM    4  C4  UNL     1     -13.255  45.023  56.007  1.00  0.00     0.107 C 
HETATM    5  N1  UNL     1     -14.100  44.635  56.695  1.00  0.00    -0.191 NA
HETATM    6  C5  UNL     1     -11.527  44.638  54.399  1.00  0.00     0.044 C 
ENDROOT
BRANCH   6   7
HETATM    7  C6  UNL     1     -10.465  45.040  53.513  1.00  0.00    -0.002 A 
HETATM    8  C7  UNL     1      -9.134  45.110  53.914  1.00  0.00     0.102 A 
HETATM    9  N2  UNL     1      -8.402  45.560  52.911  1.00  0.00    -0.351 N 
HETATM   10  C8  UNL     1      -9.204  45.786  51.870  1.00  0.00     0.119 A 
ATOM     11  H2  UNL     1      -7.393  45.709  52.929  1.00  0.00     0.166 HD
HETATM   12  N3  UNL     1      -8.975  46.275  50.653  1.00  0.00    -0.338 N 
HETATM   13  C18 UNL     1     -10.534  45.461  52.220  1.00  0.00     0.048 A 
HETATM   14  C9  UNL     1      -9.919  46.473  49.749  1.00  0.00     0.182 A 
ATOM     15  H3  UNL     1      -8.014  46.510  50.403  1.00  0.00     0.168 HD
HETATM   16  N4  UNL     1     -11.164  46.162  50.087  1.00  0.00    -0.350 N 
HETATM   17  C10 UNL     1     -11.525  45.646  51.317  1.00  0.00     0.065 A 
ATOM     18  H4  UNL     1     -11.899  46.311  49.395  1.00  0.00     0.166 HD
HETATM   19  C11 UNL     1     -12.899  45.208  51.435  1.00  0.00     0.033 A 
HETATM   20  C12 UNL     1     -13.947  45.907  50.818  1.00  0.00     0.037 A 
HETATM   21  S1  UNL     1     -13.742  43.993  52.222  1.00  0.00    -0.099 SA
HETATM   22  C13 UNL     1     -15.189  45.466  51.004  1.00  0.00     0.017 A 
HETATM   23  C17 UNL     1     -15.348  44.351  51.792  1.00  0.00     0.065 A 
BRANCH  22  24
HETATM   24  C14 UNL     1     -16.397  46.126  50.412  1.00  0.00     0.147 A 
HETATM   25  N5  UNL     1     -17.013  45.544  49.367  1.00  0.00    -0.175 N 
HETATM   26  C15 UNL     1     -18.092  46.088  48.793  1.00  0.00     0.692 A 
ATOM     27  H5  UNL     1     -16.647  44.664  49.003  1.00  0.00     0.186 HD
HETATM   28  N7  UNL     1     -18.532  47.248  49.311  1.00  0.00    -0.023 N 
HETATM   29  C16 UNL     1     -17.935  47.838  50.346  1.00  0.00     0.692 A 
ATOM     30  H7  UNL     1     -19.352  47.691  48.897  1.00  0.00     0.203 HD
HETATM   31  N9  UNL     1     -16.846  47.264  50.904  1.00  0.00    -0.175 N 
ATOM     32  H9  UNL     1     -16.378  47.705  51.696  1.00  0.00     0.186 HD
BRANCH  26  33
HETATM   33  N6  UNL     1     -18.704  45.555  47.788  1.00  0.00    -0.234 N 
ATOM     34  H62 UNL     1     -19.210  46.144  47.125  1.00  0.00     0.174 HD
ATOM     35  H61 UNL     1     -18.713  44.551  47.607  1.00  0.00     0.174 HD
ENDBRANCH  26  33
BRANCH  29  36
HETATM   36  N8  UNL     1     -18.352  48.948  50.848  1.00  0.00    -0.234 N 
ATOM     37  H82 UNL     1     -17.700  49.732  50.874  1.00  0.00     0.174 HD
ATOM     38  H81 UNL     1     -19.297  49.066  51.213  1.00  0.00     0.174 HD
ENDBRANCH  29  36
ENDBRANCH  22  24
ENDBRANCH   6   7
TORSDOF 4
ENDMDL
MODEL 3
REMARK VINA RESULT: -6.900680698      5.514     10.974
REMARK  4 active torsions:
REMARK  status: ('A' for Active; 'I' for Inactive)
REMARK    1  A    between atoms: C5_6  and  C6_7 
REMARK    2  A    between atoms: C13_20  and  C14_21 
REMARK    3  A    between atoms: C15_24  and  N6_25 
REMARK    4  A    between atoms: C16_30  and  N8_31 
ROOT
HETATM    1  C1  UNL     1     -24.136  48.503  48.189  1.00  0.00     0.104 C 
HETATM    2  C2  UNL     1     -23.048  48.268  47.669  1.00  0.00    -0.138 C 
HETATM    3  C3  UNL     1     -21.795  48.038  47.062  1.00  0.00     0.086 C 
HETATM    4  C4  UNL     1     -20.796  49.077  47.196  1.00  0.00     0.107 C 
HETATM    5  N1  UNL     1     -19.987  49.898  47.293  1.00  0.00    -0.191 NA
HETATM    6  C5  UNL     1     -21.522  46.941  46.402  1.00  0.00     0.044 C 
ENDROOT
BRANCH   6   7
HETATM    7  C6  UNL     1     -22.472  45.871  46.239  1.00  0.00    -0.002 A 
HETATM    8  C7  UNL     1     -23.494  45.906  45.295  1.00  0.00     0.102 A 
HETATM    9  N2  UNL     1     -24.235  44.819  45.417  1.00  0.00    -0.351 N 
HETATM   10  C8  UNL     1     -23.735  44.075  46.405  1.00  0.00     0.119 A 
ATOM     11  H2  UNL     1     -25.051  44.588  44.851  1.00  0.00     0.166 HD
HETATM   12  N3  UNL     1     -24.130  42.925  46.946  1.00  0.00    -0.338 N 
HETATM   13  C18 UNL     1     -22.602  44.718  46.952  1.00  0.00     0.048 A 
HETATM   14  C9  UNL     1     -23.522  42.345  47.968  1.00  0.00     0.182 A 
ATOM     15  H3  UNL     1     -24.948  42.463  46.550  1.00  0.00     0.168 HD
HETATM   16  N4  UNL     1     -22.458  42.955  48.472  1.00  0.00    -0.350 N 
HETATM   17  C10 UNL     1     -21.953  44.150  47.995  1.00  0.00     0.065 A 
ATOM     18  H4  UNL     1     -21.983  42.515  49.261  1.00  0.00     0.166 HD
HETATM   19  C11 UNL     1     -20.688  44.568  48.561  1.00  0.00     0.033 A 
HETATM   20  C12 UNL     1     -20.387  44.362  49.915  1.00  0.00     0.037 A 
HETATM   21  S1  UNL     1     -19.310  45.367  48.043  1.00  0.00    -0.099 SA
HETATM   22  C13 UNL     1     -19.220  44.807  50.373  1.00  0.00     0.017 A 
HETATM   23  C17 UNL     1     -18.393  45.440  49.474  1.00  0.00     0.065 A 
BRANCH  22  24
HETATM   24  C14 UNL     1     -18.780  44.662  51.798  1.00  0.00     0.147 A 
HETATM   25  N5  UNL     1     -17.474  44.777  52.093  1.00  0.00    -0.175 N 
HETATM   26  C15 UNL     1     -17.020  44.651  53.346  1.00  0.00     0.692 A 
ATOM     27  H5  UNL     1     -16.809  44.965  51.342  1.00  0.00     0.186 HD
HETATM   28  N7  UNL     1     -17.936  44.403  54.298  1.00  0.00    -0.023 N 
HETATM   29  C16 UNL     1     -19.236  44.287  54.024  1.00  0.00     0.692 A 
ATOM     30  H7  UNL     1     -17.627  44.300  55.264  1.00  0.00     0.203 HD
HETATM   31  N9  UNL     1     -19.662  44.418  52.747  1.00  0.00    -0.175 N 
ATOM     32  H9  UNL     1     -20.653  44.330  52.522  1.00  0.00     0.186 HD
BRANCH  26  33
HETATM   33  N6  UNL     1     -15.771  44.755  53.661  1.00  0.00    -0.234 N 
ATOM     34  H62 UNL     1     -15.052  44.449  53.006  1.00  0.00     0.174 HD
ATOM     35  H61 UNL     1     -15.449  45.136  54.551  1.00  0.00     0.174 HD
ENDBRANCH  26  33
BRANCH  29  36
HETATM   36  N8  UNL     1     -20.118  44.050  54.930  1.00  0.00    -0.234 N 
ATOM     37  H82 UNL     1     -20.209  44.723  55.692  1.00  0.00     0.174 HD
ATOM     38  H81 UNL     1     -20.721  43.227  54.911  1.00  0.00     0.174 HD
ENDBRANCH  29  36
ENDBRANCH  22  24
ENDBRANCH   6   7
TORSDOF 4
ENDMDL
MODEL 4
REMARK VINA RESULT: -6.879243902      1.229      1.386
REMARK  4 active torsions:
REMARK  status: ('A' for Active; 'I' for Inactive)
REMARK    1  A    between atoms: C5_6  and  C6_7 
REMARK    2  A    between atoms: C13_20  and  C14_21 
REMARK    3  A    between atoms: C15_24  and  N6_25 
REMARK    4  A    between atoms: C16_30  and  N8_31 
ROOT
HETATM    1  C1  UNL     1     -10.087  47.603  55.052  1.00  0.00     0.104 C 
HETATM    2  C2  UNL     1     -10.667  46.566  54.742  1.00  0.00    -0.138 C 
HETATM    3  C3  UNL     1     -11.327  45.359  54.422  1.00  0.00     0.086 C 
HETATM    4  C4  UNL     1     -12.111  44.739  55.470  1.00  0.00     0.107 C 
HETATM    5  N1  UNL     1     -12.741  44.230  56.296  1.00  0.00    -0.191 NA
HETATM    6  C5  UNL     1     -11.251  44.806  53.239  1.00  0.00     0.044 C 
ENDROOT
BRANCH   6   7
HETATM    7  C6  UNL     1     -10.492  45.377  52.157  1.00  0.00    -0.002 A 
HETATM    8  C7  UNL     1      -9.106  45.498  52.188  1.00  0.00     0.102 A 
HETATM    9  N2  UNL     1      -8.699  46.106  51.089  1.00  0.00    -0.351 N 
HETATM   10  C8  UNL     1      -9.766  46.388  50.340  1.00  0.00     0.119 A 
ATOM     11  H2  UNL     1      -7.731  46.324  50.852  1.00  0.00     0.166 HD
HETATM   12  N3  UNL     1      -9.902  47.022  49.178  1.00  0.00    -0.338 N 
HETATM   13  C18 UNL     1     -10.933  45.931  50.994  1.00  0.00     0.048 A 
HETATM   14  C9  UNL     1     -11.066  47.250  48.595  1.00  0.00     0.182 A 
ATOM     15  H3  UNL     1      -9.058  47.351  48.709  1.00  0.00     0.168 HD
HETATM   16  N4  UNL     1     -12.155  46.815  49.215  1.00  0.00    -0.350 N 
HETATM   17  C10 UNL     1     -12.142  46.143  50.423  1.00  0.00     0.065 A 
ATOM     18  H4  UNL     1     -13.059  46.986  48.772  1.00  0.00     0.166 HD
HETATM   19  C11 UNL     1     -13.411  45.598  50.852  1.00  0.00     0.033 A 
HETATM   20  C12 UNL     1     -14.616  46.283  50.634  1.00  0.00     0.037 A 
HETATM   21  S1  UNL     1     -13.955  44.246  51.679  1.00  0.00    -0.099 SA
HETATM   22  C13 UNL     1     -15.739  45.737  51.092  1.00  0.00     0.017 A 
HETATM   23  C17 UNL     1     -15.630  44.533  51.748  1.00  0.00     0.065 A 
BRANCH  22  24
HETATM   24  C14 UNL     1     -17.088  46.369  50.936  1.00  0.00     0.147 A 
HETATM   25  N5  UNL     1     -17.167  47.690  50.696  1.00  0.00    -0.175 N 
HETATM   26  C15 UNL     1     -18.344  48.312  50.553  1.00  0.00     0.692 A 
ATOM     27  H5  UNL     1     -16.307  48.233  50.620  1.00  0.00     0.186 HD
HETATM   28  N7  UNL     1     -19.446  47.551  50.662  1.00  0.00    -0.023 N 
HETATM   29  C16 UNL     1     -19.387  46.240  50.900  1.00  0.00     0.692 A 
ATOM     30  H7  UNL     1     -20.360  47.991  50.560  1.00  0.00     0.203 HD
HETATM   31  N9  UNL     1     -18.183  45.641  51.040  1.00  0.00    -0.175 N 
ATOM     32  H9  UNL     1     -18.122  44.639  51.223  1.00  0.00     0.186 HD
BRANCH  26  33
HETATM   33  N6  UNL     1     -18.452  49.578  50.323  1.00  0.00    -0.234 N 
ATOM     34  H62 UNL     1     -17.901  50.013  49.582  1.00  0.00     0.174 HD
ATOM     35  H61 UNL     1     -19.073  50.192  50.851  1.00  0.00     0.174 HD
ENDBRANCH  26  33
BRANCH  29  36
HETATM   36  N8  UNL     1     -20.439  45.505  51.005  1.00  0.00    -0.234 N 
ATOM     37  H82 UNL     1     -20.447  44.614  50.508  1.00  0.00     0.174 HD
ATOM     38  H81 UNL     1     -21.250  45.780  51.560  1.00  0.00     0.174 HD
ENDBRANCH  29  36
ENDBRANCH  22  24
ENDBRANCH   6   7
TORSDOF 4
ENDMDL
MODEL 5
REMARK VINA RESULT: -6.790015363      2.793      6.545
REMARK  4 active torsions:
REMARK  status: ('A' for Active; 'I' for Inactive)
REMARK    1  A    between atoms: C5_6  and  C6_7 
REMARK    2  A    between atoms: C13_20  and  C14_21 
REMARK    3  A    between atoms: C15_24  and  N6_25 
REMARK    4  A    between atoms: C16_30  and  N8_31 
ROOT
HETATM    1  C1  UNL     1     -14.477  47.714  55.573  1.00  0.00     0.104 C 
HETATM    2  C2  UNL     1     -15.322  47.474  54.715  1.00  0.00    -0.138 C 
HETATM    3  C3  UNL     1     -16.309  47.234  53.734  1.00  0.00     0.086 C 
HETATM    4  C4  UNL     1     -16.698  48.354  52.904  1.00  0.00     0.107 C 
HETATM    5  N1  UNL     1     -17.022  49.239  52.232  1.00  0.00    -0.191 NA
HETATM    6  C5  UNL     1     -16.862  46.061  53.563  1.00  0.00     0.044 C 
ENDROOT
BRANCH   6   7
HETATM    7  C6  UNL     1     -16.513  44.909  54.353  1.00  0.00    -0.002 A 
HETATM    8  C7  UNL     1     -17.265  44.487  55.446  1.00  0.00     0.102 A 
HETATM    9  N2  UNL     1     -16.673  43.447  56.004  1.00  0.00    -0.351 N 
HETATM   10  C8  UNL     1     -15.564  43.172  55.318  1.00  0.00     0.119 A 
ATOM     11  H2  UNL     1     -17.009  42.938  56.822  1.00  0.00     0.166 HD
HETATM   12  N3  UNL     1     -14.606  42.263  55.490  1.00  0.00    -0.338 N 
HETATM   13  C18 UNL     1     -15.431  44.089  54.250  1.00  0.00     0.048 A 
HETATM   14  C9  UNL     1     -13.537  42.165  54.720  1.00  0.00     0.182 A 
ATOM     15  H3  UNL     1     -14.704  41.604  56.262  1.00  0.00     0.168 HD
HETATM   16  N4  UNL     1     -13.423  43.028  53.718  1.00  0.00    -0.350 N 
HETATM   17  C10 UNL     1     -14.351  44.014  53.438  1.00  0.00     0.065 A 
ATOM     18  H4  UNL     1     -12.601  42.959  53.118  1.00  0.00     0.166 HD
HETATM   19  C11 UNL     1     -14.140  44.742  52.206  1.00  0.00     0.033 A 
HETATM   20  C12 UNL     1     -12.852  45.078  51.764  1.00  0.00     0.037 A 
HETATM   21  S1  UNL     1     -15.082  45.442  51.011  1.00  0.00    -0.099 SA
HETATM   22  C13 UNL     1     -12.738  45.783  50.641  1.00  0.00     0.017 A 
HETATM   23  C17 UNL     1     -13.903  46.130  49.997  1.00  0.00     0.065 A 
BRANCH  22  24
HETATM   24  C14 UNL     1     -11.424  46.215  50.066  1.00  0.00     0.147 A 
HETATM   25  N5  UNL     1     -11.405  47.190  49.140  1.00  0.00    -0.175 N 
HETATM   26  C15 UNL     1     -10.263  47.615  48.586  1.00  0.00     0.692 A 
ATOM     27  H5  UNL     1     -12.285  47.618  48.852  1.00  0.00     0.186 HD
HETATM   28  N7  UNL     1      -9.133  47.018  49.000  1.00  0.00    -0.023 N 
HETATM   29  C16 UNL     1      -9.132  46.050  49.917  1.00  0.00     0.692 A 
ATOM     30  H7  UNL     1      -8.244  47.315  48.598  1.00  0.00     0.203 HD
HETATM   31  N9  UNL     1     -10.302  45.643  50.458  1.00  0.00    -0.175 N 
ATOM     32  H9  UNL     1     -10.318  44.902  51.159  1.00  0.00     0.186 HD
BRANCH  26  33
HETATM   33  N6  UNL     1     -10.213  48.548  47.694  1.00  0.00    -0.234 N 
ATOM     34  H62 UNL     1     -11.030  49.135  47.522  1.00  0.00     0.174 HD
ATOM     35  H61 UNL     1      -9.384  48.742  47.133  1.00  0.00     0.174 HD
ENDBRANCH  26  33
BRANCH  29  36
HETATM   36  N8  UNL     1      -8.053  45.475  50.319  1.00  0.00    -0.234 N 
ATOM     37  H82 UNL     1      -7.697  45.723  51.242  1.00  0.00     0.174 HD
ATOM     38  H81 UNL     1      -7.551  44.790  49.753  1.00  0.00     0.174 HD
ENDBRANCH  29  36
ENDBRANCH  22  24
ENDBRANCH   6   7
TORSDOF 4
ENDMDL
