MODEL 1
REMARK VINA RESULT: -8.464833651      0.000      0.000
REMARK  5 active torsions:
REMARK  status: ('A' for Active; 'I' for Inactive)
REMARK    1  A    between atoms: N1_1  and  C1_4 
REMARK    2  A    between atoms: C3_8  and  N3_9 
REMARK    3  A    between atoms: N3_9  and  C4_11 
REMARK    4  A    between atoms: C6_13  and  N4_14 
REMARK    5  A    between atoms: C13_28  and  C14_29 
ROOT
HETATM    1  C1  UNL     1      -9.992  45.693  52.215  1.00  0.00     0.110 A 
HETATM    2  N2  UNL     1     -10.249  45.060  53.383  1.00  0.00    -0.338 N 
ATOM      3  H2  UNL     1      -9.562  45.086  54.137  1.00  0.00     0.167 HD
HETATM    4  C2  UNL     1     -11.414  44.395  53.556  1.00  0.00     0.089 A 
HETATM    5  C3  UNL     1     -11.641  43.750  54.792  1.00  0.00     0.089 A 
HETATM    6  C9  UNL     1     -12.823  43.081  54.951  1.00  0.00     0.090 A 
HETATM    7  N6  UNL     1     -13.127  42.408  56.154  1.00  0.00    -0.099 NA
HETATM    8  C10 UNL     1     -13.723  43.076  53.900  1.00  0.00     0.117 A 
HETATM    9  N7  UNL     1     -13.494  43.692  52.737  1.00  0.00    -0.362 N 
ATOM     10  H7  UNL     1     -14.194  43.655  51.996  1.00  0.00     0.165 HD
HETATM   11  C11 UNL     1     -12.335  44.364  52.537  1.00  0.00     0.062 A 
HETATM   12  C12 UNL     1     -12.068  45.010  51.352  1.00  0.00     0.048 A 
HETATM   13  C13 UNL     1     -10.882  45.692  51.164  1.00  0.00     0.020 A 
ENDROOT
BRANCH   5  14
HETATM   14  N3  UNL     1     -10.717  43.854  55.636  1.00  0.00    -0.339 N 
ATOM     15  H3  UNL     1     -10.728  44.724  56.168  1.00  0.00     0.167 HD
BRANCH  14  16
HETATM   16  C4  UNL     1      -9.678  42.985  55.973  1.00  0.00     0.107 A 
HETATM   17  C5  UNL     1      -8.358  43.311  55.672  1.00  0.00     0.084 A 
HETATM   18  C6  UNL     1      -7.287  42.495  55.966  1.00  0.00     0.107 A 
HETATM   19  C7  UNL     1      -7.589  41.303  56.591  1.00  0.00     0.053 A 
HETATM   20  C8  UNL     1      -8.891  40.944  56.906  1.00  0.00     0.092 A 
HETATM   21  N5  UNL     1      -9.886  41.790  56.590  1.00  0.00    -0.352 N 
ATOM     22  H5  UNL     1     -10.842  41.524  56.822  1.00  0.00     0.166 HD
BRANCH  18  23
HETATM   23  N4  UNL     1      -5.944  42.842  55.654  1.00  0.00    -0.116 N 
HETATM   24  O1  UNL     1      -5.114  41.989  55.260  1.00  0.00    -0.532 OA
HETATM   25  O2  UNL     1      -5.566  44.155  55.794  1.00  0.00    -0.532 OA
ENDBRANCH  18  23
ENDBRANCH  14  16
ENDBRANCH   5  14
BRANCH   1  26
HETATM   26  N1  UNL     1      -8.865  46.312  52.121  1.00  0.00    -0.385 N 
ATOM     27  H12 UNL     1      -7.999  45.866  52.425  1.00  0.00     0.157 HD
ATOM     28  H11 UNL     1      -8.886  47.253  51.730  1.00  0.00     0.157 HD
ENDBRANCH   1  26
BRANCH  13  29
HETATM   29  C14 UNL     1     -10.614  46.362  49.904  1.00  0.00    -0.020 A 
HETATM   30  C15 UNL     1     -11.600  47.084  49.287  1.00  0.00     0.012 A 
HETATM   31  C16 UNL     1     -11.367  47.733  48.070  1.00  0.00     0.003 A 
HETATM   32  C17 UNL     1     -10.141  47.657  47.473  1.00  0.00     0.026 A 
HETATM   33  C18 UNL     1      -9.145  46.922  48.106  1.00  0.00     0.047 A 
HETATM   34  N8  UNL     1      -7.865  46.826  47.510  1.00  0.00    -0.102 NA
HETATM   35  C19 UNL     1      -9.361  46.284  49.293  1.00  0.00     0.039 A 
ENDBRANCH  13  29
TORSDOF 5
ENDMDL
MODEL 2
REMARK VINA RESULT: -8.147371511      3.129      4.430
REMARK  5 active torsions:
REMARK  status: ('A' for Active; 'I' for Inactive)
REMARK    1  A    between atoms: N1_1  and  C1_4 
REMARK    2  A    between atoms: C3_8  and  N3_9 
REMARK    3  A    between atoms: N3_9  and  C4_11 
REMARK    4  A    between atoms: C6_13  and  N4_14 
REMARK    5  A    between atoms: C13_28  and  C14_29 
ROOT
HETATM    1  C1  UNL     1     -11.174  45.224  52.106  1.00  0.00     0.110 A 
HETATM    2  N2  UNL     1     -11.110  44.717  53.359  1.00  0.00    -0.338 N 
ATOM      3  H2  UNL     1     -11.934  44.281  53.774  1.00  0.00     0.167 HD
HETATM    4  C2  UNL     1      -9.958  44.788  54.064  1.00  0.00     0.089 A 
HETATM    5  C3  UNL     1      -9.936  44.247  55.369  1.00  0.00     0.089 A 
HETATM    6  C9  UNL     1      -8.764  44.326  56.070  1.00  0.00     0.090 A 
HETATM    7  N6  UNL     1      -8.658  43.812  57.380  1.00  0.00    -0.099 NA
HETATM    8  C10 UNL     1      -7.675  44.927  55.464  1.00  0.00     0.117 A 
HETATM    9  N7  UNL     1      -7.711  45.434  54.228  1.00  0.00    -0.362 N 
ATOM     10  H7  UNL     1      -6.877  45.865  53.831  1.00  0.00     0.165 HD
HETATM   11  C11 UNL     1      -8.853  45.377  53.500  1.00  0.00     0.062 A 
HETATM   12  C12 UNL     1      -8.924  45.889  52.225  1.00  0.00     0.048 A 
HETATM   13  C13 UNL     1     -10.095  45.823  51.497  1.00  0.00     0.020 A 
ENDROOT
BRANCH   5  14
HETATM   14  N3  UNL     1     -11.015  43.740  55.764  1.00  0.00    -0.339 N 
ATOM     15  H3  UNL     1     -11.676  44.409  56.158  1.00  0.00     0.167 HD
BRANCH  14  16
HETATM   16  C4  UNL     1     -11.465  42.418  55.759  1.00  0.00     0.107 A 
HETATM   17  C5  UNL     1     -12.782  42.122  55.416  1.00  0.00     0.084 A 
HETATM   18  C6  UNL     1     -13.294  40.843  55.401  1.00  0.00     0.107 A 
HETATM   19  C7  UNL     1     -12.417  39.836  55.751  1.00  0.00     0.053 A 
HETATM   20  C8  UNL     1     -11.100  40.093  56.099  1.00  0.00     0.092 A 
HETATM   21  N5  UNL     1     -10.669  41.366  56.091  1.00  0.00    -0.352 N 
ATOM     22  H5  UNL     1      -9.700  41.552  56.346  1.00  0.00     0.166 HD
BRANCH  18  23
HETATM   23  N4  UNL     1     -14.641  40.555  55.048  1.00  0.00    -0.116 N 
HETATM   24  O1  UNL     1     -15.052  40.655  53.868  1.00  0.00    -0.532 OA
HETATM   25  O2  UNL     1     -15.499  40.156  56.043  1.00  0.00    -0.532 OA
ENDBRANCH  18  23
ENDBRANCH  14  16
ENDBRANCH   5  14
BRANCH   1  26
HETATM   26  N1  UNL     1     -12.302  45.117  51.489  1.00  0.00    -0.385 N 
ATOM     27  H12 UNL     1     -12.916  44.320  51.662  1.00  0.00     0.157 HD
ATOM     28  H11 UNL     1     -12.543  45.861  50.835  1.00  0.00     0.157 HD
ENDBRANCH   1  26
BRANCH  13  29
HETATM   29  C14 UNL     1     -10.154  46.374  50.154  1.00  0.00    -0.020 A 
HETATM   30  C15 UNL     1     -11.322  46.906  49.681  1.00  0.00     0.012 A 
HETATM   31  C16 UNL     1     -11.404  47.436  48.389  1.00  0.00     0.003 A 
HETATM   32  C17 UNL     1     -10.309  47.433  47.573  1.00  0.00     0.026 A 
HETATM   33  C18 UNL     1      -9.126  46.892  48.061  1.00  0.00     0.047 A 
HETATM   34  N8  UNL     1      -7.975  46.876  47.238  1.00  0.00    -0.102 NA
HETATM   35  C19 UNL     1      -9.034  46.371  49.319  1.00  0.00     0.039 A 
ENDBRANCH  13  29
TORSDOF 5
ENDMDL
MODEL 3
REMARK VINA RESULT: -8.107248891      1.075      1.229
REMARK  5 active torsions:
REMARK  status: ('A' for Active; 'I' for Inactive)
REMARK    1  A    between atoms: N1_1  and  C1_4 
REMARK    2  A    between atoms: C3_8  and  N3_9 
REMARK    3  A    between atoms: N3_9  and  C4_11 
REMARK    4  A    between atoms: C6_13  and  N4_14 
REMARK    5  A    between atoms: C13_28  and  C14_29 
ROOT
HETATM    1  C1  UNL     1      -9.888  45.790  52.350  1.00  0.00     0.110 A 
HETATM    2  N2  UNL     1     -10.101  45.183  53.540  1.00  0.00    -0.338 N 
ATOM      3  H2  UNL     1      -9.419  45.285  54.292  1.00  0.00     0.167 HD
HETATM    4  C2  UNL     1     -11.216  44.443  53.736  1.00  0.00     0.089 A 
HETATM    5  C3  UNL     1     -11.399  43.827  54.994  1.00  0.00     0.089 A 
HETATM    6  C9  UNL     1     -12.531  43.081  55.177  1.00  0.00     0.090 A 
HETATM    7  N6  UNL     1     -12.789  42.431  56.404  1.00  0.00    -0.099 NA
HETATM    8  C10 UNL     1     -13.426  42.975  54.128  1.00  0.00     0.117 A 
HETATM    9  N7  UNL     1     -13.239  43.564  52.943  1.00  0.00    -0.362 N 
ATOM     10  H7  UNL     1     -13.933  43.452  52.204  1.00  0.00     0.165 HD
HETATM   11  C11 UNL     1     -12.130  44.311  52.719  1.00  0.00     0.062 A 
HETATM   12  C12 UNL     1     -11.907  44.932  51.512  1.00  0.00     0.048 A 
HETATM   13  C13 UNL     1     -10.772  45.689  51.300  1.00  0.00     0.020 A 
ENDROOT
BRANCH   5  14
HETATM   14  N3  UNL     1     -10.487  44.026  55.834  1.00  0.00    -0.339 N 
ATOM     15  H3  UNL     1     -10.779  44.553  56.657  1.00  0.00     0.167 HD
BRANCH  14  16
HETATM   16  C4  UNL     1      -9.142  43.652  55.837  1.00  0.00     0.107 A 
HETATM   17  C5  UNL     1      -8.140  44.618  55.850  1.00  0.00     0.084 A 
HETATM   18  C6  UNL     1      -6.795  44.318  55.842  1.00  0.00     0.107 A 
HETATM   19  C7  UNL     1      -6.475  42.976  55.819  1.00  0.00     0.053 A 
HETATM   20  C8  UNL     1      -7.445  41.986  55.805  1.00  0.00     0.092 A 
HETATM   21  N5  UNL     1      -8.738  42.353  55.815  1.00  0.00    -0.352 N 
ATOM     22  H5  UNL     1      -9.450  41.623  55.805  1.00  0.00     0.166 HD
BRANCH  18  23
HETATM   23  N4  UNL     1      -5.781  45.315  55.857  1.00  0.00    -0.116 N 
HETATM   24  O1  UNL     1      -4.913  45.364  56.759  1.00  0.00    -0.532 OA
HETATM   25  O2  UNL     1      -5.772  46.242  54.843  1.00  0.00    -0.532 OA
ENDBRANCH  18  23
ENDBRANCH  14  16
ENDBRANCH   5  14
BRANCH   1  26
HETATM   26  N1  UNL     1      -8.807  46.485  52.234  1.00  0.00    -0.385 N 
ATOM     27  H12 UNL     1      -8.845  47.504  52.193  1.00  0.00     0.157 HD
ATOM     28  H11 UNL     1      -7.928  45.969  52.192  1.00  0.00     0.157 HD
ENDBRANCH   1  26
BRANCH  13  29
HETATM   29  C14 UNL     1     -10.550  46.332  50.017  1.00  0.00    -0.020 A 
HETATM   30  C15 UNL     1     -11.569  47.010  49.403  1.00  0.00     0.012 A 
HETATM   31  C16 UNL     1     -11.380  47.631  48.164  1.00  0.00     0.003 A 
HETATM   32  C17 UNL     1     -10.165  47.573  47.543  1.00  0.00     0.026 A 
HETATM   33  C18 UNL     1      -9.136  46.883  48.173  1.00  0.00     0.047 A 
HETATM   34  N8  UNL     1      -7.866  46.806  47.553  1.00  0.00    -0.102 NA
HETATM   35  C19 UNL     1      -9.308  46.272  49.381  1.00  0.00     0.039 A 
ENDBRANCH  13  29
TORSDOF 5
ENDMDL
MODEL 4
REMARK VINA RESULT: -8.072641557      7.162     10.020
REMARK  5 active torsions:
REMARK  status: ('A' for Active; 'I' for Inactive)
REMARK    1  A    between atoms: N1_1  and  C1_4 
REMARK    2  A    between atoms: C3_8  and  N3_9 
REMARK    3  A    between atoms: N3_9  and  C4_11 
REMARK    4  A    between atoms: C6_13  and  N4_14 
REMARK    5  A    between atoms: C13_28  and  C14_29 
ROOT
HETATM    1  C1  UNL     1     -13.667  46.209  50.278  1.00  0.00     0.110 A 
HETATM    2  N2  UNL     1     -14.984  46.200  49.968  1.00  0.00    -0.338 N 
ATOM      3  H2  UNL     1     -15.297  46.564  49.068  1.00  0.00     0.167 HD
HETATM    4  C2  UNL     1     -15.887  45.708  50.846  1.00  0.00     0.089 A 
HETATM    5  C3  UNL     1     -17.252  45.717  50.481  1.00  0.00     0.089 A 
HETATM    6  C9  UNL     1     -18.153  45.217  51.380  1.00  0.00     0.090 A 
HETATM    7  N6  UNL     1     -19.535  45.191  51.094  1.00  0.00    -0.099 NA
HETATM    8  C10 UNL     1     -17.679  44.732  52.587  1.00  0.00     0.117 A 
HETATM    9  N7  UNL     1     -16.385  44.730  52.918  1.00  0.00    -0.362 N 
ATOM     10  H7  UNL     1     -16.092  44.360  53.822  1.00  0.00     0.165 HD
HETATM   11  C11 UNL     1     -15.459  45.218  52.057  1.00  0.00     0.062 A 
HETATM   12  C12 UNL     1     -14.119  45.230  52.365  1.00  0.00     0.048 A 
HETATM   13  C13 UNL     1     -13.188  45.730  51.477  1.00  0.00     0.020 A 
ENDROOT
BRANCH   5  14
HETATM   14  N3  UNL     1     -17.507  46.194  49.348  1.00  0.00    -0.339 N 
ATOM     15  H3  UNL     1     -16.696  46.569  48.856  1.00  0.00     0.167 HD
BRANCH  14  16
HETATM   16  C4  UNL     1     -18.709  46.301  48.645  1.00  0.00     0.107 A 
HETATM   17  C5  UNL     1     -19.259  47.551  48.372  1.00  0.00     0.084 A 
HETATM   18  C6  UNL     1     -20.446  47.727  47.694  1.00  0.00     0.107 A 
HETATM   19  C7  UNL     1     -21.085  46.575  47.284  1.00  0.00     0.053 A 
HETATM   20  C8  UNL     1     -20.568  45.314  47.539  1.00  0.00     0.092 A 
HETATM   21  N5  UNL     1     -19.405  45.218  48.205  1.00  0.00    -0.352 N 
ATOM     22  H5  UNL     1     -19.026  44.290  48.390  1.00  0.00     0.166 HD
BRANCH  18  23
HETATM   23  N4  UNL     1     -20.996  49.009  47.422  1.00  0.00    -0.116 N 
HETATM   24  O1  UNL     1     -22.233  49.209  47.404  1.00  0.00    -0.532 OA
HETATM   25  O2  UNL     1     -20.129  50.045  47.174  1.00  0.00    -0.532 OA
ENDBRANCH  18  23
ENDBRANCH  14  16
ENDBRANCH   5  14
BRANCH   1  26
HETATM   26  N1  UNL     1     -12.861  46.687  49.392  1.00  0.00    -0.385 N 
ATOM     27  H12 UNL     1     -13.222  47.148  48.556  1.00  0.00     0.157 HD
ATOM     28  H11 UNL     1     -11.863  46.585  49.572  1.00  0.00     0.157 HD
ENDBRANCH   1  26
BRANCH  13  29
HETATM   29  C14 UNL     1     -11.777  45.740  51.823  1.00  0.00    -0.020 A 
HETATM   30  C15 UNL     1     -11.392  45.836  53.132  1.00  0.00     0.012 A 
HETATM   31  C16 UNL     1     -10.039  45.854  53.488  1.00  0.00     0.003 A 
HETATM   32  C17 UNL     1      -9.073  45.775  52.526  1.00  0.00     0.026 A 
HETATM   33  C18 UNL     1      -9.472  45.677  51.198  1.00  0.00     0.047 A 
HETATM   34  N8  UNL     1      -8.493  45.593  50.180  1.00  0.00    -0.102 NA
HETATM   35  C19 UNL     1     -10.789  45.659  50.839  1.00  0.00     0.039 A 
ENDBRANCH  13  29
TORSDOF 5
ENDMDL
MODEL 5
REMARK VINA RESULT: -7.893946941      6.505      8.692
REMARK  5 active torsions:
REMARK  status: ('A' for Active; 'I' for Inactive)
REMARK    1  A    between atoms: N1_1  and  C1_4 
REMARK    2  A    between atoms: C3_8  and  N3_9 
REMARK    3  A    between atoms: N3_9  and  C4_11 
REMARK    4  A    between atoms: C6_13  and  N4_14 
REMARK    5  A    between atoms: C13_28  and  C14_29 
ROOT
HETATM    1  C1  UNL     1     -17.449  46.048  49.169  1.00  0.00     0.110 A 
HETATM    2  N2  UNL     1     -16.209  45.925  49.698  1.00  0.00    -0.338 N 
ATOM      3  H2  UNL     1     -15.473  45.461  49.164  1.00  0.00     0.167 HD
HETATM    4  C2  UNL     1     -15.942  46.415  50.929  1.00  0.00     0.089 A 
HETATM    5  C3  UNL     1     -14.635  46.265  51.442  1.00  0.00     0.089 A 
HETATM    6  C9  UNL     1     -14.380  46.764  52.689  1.00  0.00     0.090 A 
HETATM    7  N6  UNL     1     -13.101  46.655  53.275  1.00  0.00    -0.099 NA
HETATM    8  C10 UNL     1     -15.411  47.385  53.372  1.00  0.00     0.117 A 
HETATM    9  N7  UNL     1     -16.644  47.520  52.874  1.00  0.00    -0.362 N 
ATOM     10  H7  UNL     1     -17.365  47.987  53.422  1.00  0.00     0.165 HD
HETATM   11  C11 UNL     1     -16.938  47.037  51.642  1.00  0.00     0.062 A 
HETATM   12  C12 UNL     1     -18.196  47.160  51.099  1.00  0.00     0.048 A 
HETATM   13  C13 UNL     1     -18.480  46.663  49.842  1.00  0.00     0.020 A 
ENDROOT
BRANCH   5  14
HETATM   14  N3  UNL     1     -13.821  45.674  50.689  1.00  0.00    -0.339 N 
ATOM     15  H3  UNL     1     -14.197  44.845  50.231  1.00  0.00     0.167 HD
BRANCH  14  16
HETATM   16  C4  UNL     1     -12.491  45.958  50.371  1.00  0.00     0.107 A 
HETATM   17  C5  UNL     1     -12.184  46.826  49.327  1.00  0.00     0.084 A 
HETATM   18  C6  UNL     1     -10.895  47.140  48.954  1.00  0.00     0.107 A 
HETATM   19  C7  UNL     1      -9.891  46.537  49.683  1.00  0.00     0.053 A 
HETATM   20  C8  UNL     1     -10.159  45.666  50.728  1.00  0.00     0.092 A 
HETATM   21  N5  UNL     1     -11.440  45.407  51.037  1.00  0.00    -0.352 N 
ATOM     22  H5  UNL     1     -11.635  44.767  51.807  1.00  0.00     0.166 HD
BRANCH  18  23
HETATM   23  N4  UNL     1     -10.596  48.029  47.886  1.00  0.00    -0.116 N 
HETATM   24  O1  UNL     1     -10.629  49.274  48.032  1.00  0.00    -0.532 OA
HETATM   25  O2  UNL     1     -10.263  47.489  46.668  1.00  0.00    -0.532 OA
ENDBRANCH  18  23
ENDBRANCH  14  16
ENDBRANCH   5  14
BRANCH   1  26
HETATM   26  N1  UNL     1     -17.631  45.563  47.988  1.00  0.00    -0.385 N 
ATOM     27  H12 UNL     1     -18.472  45.027  47.769  1.00  0.00     0.157 HD
ATOM     28  H11 UNL     1     -16.904  45.746  47.297  1.00  0.00     0.157 HD
ENDBRANCH   1  26
BRANCH  13  29
HETATM   29  C14 UNL     1     -19.816  46.796  49.287  1.00  0.00    -0.020 A 
HETATM   30  C15 UNL     1     -20.741  45.806  49.480  1.00  0.00     0.012 A 
HETATM   31  C16 UNL     1     -22.031  45.909  48.949  1.00  0.00     0.003 A 
HETATM   32  C17 UNL     1     -22.392  47.010  48.225  1.00  0.00     0.026 A 
HETATM   33  C18 UNL     1     -21.447  48.011  48.035  1.00  0.00     0.047 A 
HETATM   34  N8  UNL     1     -21.792  49.163  47.289  1.00  0.00    -0.102 NA
HETATM   35  C19 UNL     1     -20.185  47.921  48.547  1.00  0.00     0.039 A 
ENDBRANCH  13  29
TORSDOF 5
ENDMDL
