MODEL 1
REMARK VINA RESULT: -6.848227973      0.000      0.000
REMARK  5 active torsions:
REMARK  status: ('A' for Active; 'I' for Inactive)
REMARK    1  A    between atoms: N1_2  and  C2_4 
REMARK    2  A    between atoms: C3_7  and  C4_8 
REMARK    3  A    between atoms: C5_10  and  N3_11 
REMARK    4  A    between atoms: N3_11  and  C6_13 
REMARK    5  A    between atoms: C7_16  and  C8_17 
ROOT
HETATM    1  C6  UNL     1     -15.160  45.454  51.143  1.00  0.00     0.684 A 
HETATM    2  N4  UNL     1     -14.387  46.172  50.275  1.00  0.00    -0.186 N 
ATOM      3  H4  UNL     1     -14.741  46.820  49.571  1.00  0.00     0.184 HD
HETATM    4  C7  UNL     1     -13.093  45.894  50.490  1.00  0.00     0.109 A 
HETATM    5  C12 UNL     1     -13.066  44.978  51.521  1.00  0.00     0.140 A 
HETATM    6  N8  UNL     1     -14.337  44.712  51.918  1.00  0.00    -0.199 N 
ATOM      7  H8  UNL     1     -14.618  44.072  52.661  1.00  0.00     0.183 HD
ENDROOT
BRANCH   1   8
HETATM    8  N3  UNL     1     -16.557  45.442  51.262  1.00  0.00    -0.170 N 
ATOM      9  H3  UNL     1     -17.063  44.567  51.402  1.00  0.00     0.186 HD
BRANCH   8  10
HETATM   10  C5  UNL     1     -17.199  46.589  51.188  1.00  0.00     0.164 A 
HETATM   11  S1  UNL     1     -17.347  47.802  52.368  1.00  0.00    -0.049 SA
HETATM   12  C4  UNL     1     -18.320  48.921  51.466  1.00  0.00     0.058 A 
HETATM   13  C13 UNL     1     -18.468  48.257  50.289  1.00  0.00     0.027 A 
HETATM   14  N9  UNL     1     -17.892  47.083  50.170  1.00  0.00    -0.339 N 
HETATM   15  C14 UNL     1     -19.310  48.824  49.153  1.00  0.00     0.070 C 
ATOM     16  H9  UNL     1     -17.978  46.554  49.302  1.00  0.00     0.168 HD
BRANCH  12  17
HETATM   17  C3  UNL     1     -18.755  50.277  51.936  1.00  0.00     0.060 A 
HETATM   18  N2  UNL     1     -18.580  51.412  51.336  1.00  0.00    -0.335 N 
HETATM   19  C2  UNL     1     -19.072  52.532  51.870  1.00  0.00     0.144 A 
ATOM     20  H2  UNL     1     -18.066  51.450  50.455  1.00  0.00     0.168 HD
HETATM   21  S2  UNL     1     -19.822  51.982  53.291  1.00  0.00    -0.064 SA
HETATM   22  C15 UNL     1     -19.472  50.328  53.140  1.00  0.00     0.084 A 
BRANCH  19  23
HETATM   23  N1  UNL     1     -18.981  53.756  51.387  1.00  0.00    -0.375 N 
HETATM   24  C1  UNL     1     -17.869  54.569  51.753  1.00  0.00     0.148 C 
ATOM     25  H1  UNL     1     -19.699  54.116  50.758  1.00  0.00     0.161 HD
ENDBRANCH  19  23
ENDBRANCH  12  17
ENDBRANCH   8  10
ENDBRANCH   1   8
BRANCH   4  26
HETATM   26  C8  UNL     1     -11.938  46.441  49.786  1.00  0.00     0.135 A 
HETATM   27  N5  UNL     1     -10.695  46.091  50.111  1.00  0.00    -0.327 N 
HETATM   28  C9  UNL     1      -9.603  46.586  49.470  1.00  0.00     0.101 A 
ATOM     29  H5  UNL     1     -10.556  45.425  50.872  1.00  0.00     0.169 HD
HETATM   30  N6  UNL     1      -8.402  46.238  49.796  1.00  0.00    -0.385 N 
HETATM   31  C10 UNL     1      -9.779  47.489  48.441  1.00  0.00     0.065 A 
ATOM     32  H62 UNL     1      -8.272  45.572  50.557  1.00  0.00     0.157 HD
ATOM     33  H61 UNL     1      -7.583  46.609  49.315  1.00  0.00     0.157 HD
HETATM   34  C11 UNL     1     -11.068  47.852  48.102  1.00  0.00     0.093 A 
HETATM   35  N7  UNL     1     -12.101  47.319  48.783  1.00  0.00    -0.350 N 
ATOM     36  H7  UNL     1     -13.049  47.594  48.526  1.00  0.00     0.166 HD
ENDBRANCH   4  26
TORSDOF 5
ENDMDL
MODEL 2
REMARK VINA RESULT: -6.843231931      0.975      1.016
REMARK  5 active torsions:
REMARK  status: ('A' for Active; 'I' for Inactive)
REMARK    1  A    between atoms: N1_2  and  C2_4 
REMARK    2  A    between atoms: C3_7  and  C4_8 
REMARK    3  A    between atoms: C5_10  and  N3_11 
REMARK    4  A    between atoms: N3_11  and  C6_13 
REMARK    5  A    between atoms: C7_16  and  C8_17 
ROOT
HETATM    1  C6  UNL     1     -15.041  45.869  51.671  1.00  0.00     0.684 A 
HETATM    2  N4  UNL     1     -14.253  46.633  50.857  1.00  0.00    -0.186 N 
ATOM      3  H4  UNL     1     -14.524  47.527  50.449  1.00  0.00     0.184 HD
HETATM    4  C7  UNL     1     -13.070  46.027  50.679  1.00  0.00     0.109 A 
HETATM    5  C12 UNL     1     -13.130  44.855  51.405  1.00  0.00     0.140 A 
HETATM    6  N8  UNL     1     -14.341  44.763  52.011  1.00  0.00    -0.199 N 
ATOM      7  H8  UNL     1     -14.662  44.003  52.610  1.00  0.00     0.183 HD
ENDROOT
BRANCH   1   8
HETATM    8  N3  UNL     1     -16.348  46.126  52.112  1.00  0.00    -0.170 N 
ATOM      9  H3  UNL     1     -16.868  45.426  52.641  1.00  0.00     0.186 HD
BRANCH   8  10
HETATM   10  C5  UNL     1     -16.884  47.293  51.825  1.00  0.00     0.164 A 
HETATM   11  S1  UNL     1     -16.823  48.739  52.715  1.00  0.00    -0.049 SA
HETATM   12  C4  UNL     1     -17.758  49.738  51.648  1.00  0.00     0.058 A 
HETATM   13  C13 UNL     1     -18.061  48.859  50.657  1.00  0.00     0.027 A 
HETATM   14  N9  UNL     1     -17.608  47.631  50.766  1.00  0.00    -0.339 N 
HETATM   15  C14 UNL     1     -18.936  49.259  49.475  1.00  0.00     0.070 C 
ATOM     16  H9  UNL     1     -17.812  46.942  50.042  1.00  0.00     0.168 HD
BRANCH  12  17
HETATM   17  C3  UNL     1     -18.026  51.202  51.833  1.00  0.00     0.060 A 
HETATM   18  N2  UNL     1     -17.291  52.193  51.437  1.00  0.00    -0.335 N 
HETATM   19  C2  UNL     1     -17.698  53.448  51.642  1.00  0.00     0.144 A 
ATOM     20  H2  UNL     1     -16.402  52.015  50.970  1.00  0.00     0.168 HD
HETATM   21  S2  UNL     1     -19.188  53.245  52.431  1.00  0.00    -0.064 SA
HETATM   22  C15 UNL     1     -19.229  51.549  52.466  1.00  0.00     0.084 A 
BRANCH  19  23
HETATM   23  N1  UNL     1     -17.071  54.557  51.301  1.00  0.00    -0.375 N 
HETATM   24  C1  UNL     1     -16.022  55.048  52.132  1.00  0.00     0.148 C 
ATOM     25  H1  UNL     1     -17.334  55.058  50.453  1.00  0.00     0.161 HD
ENDBRANCH  19  23
ENDBRANCH  12  17
ENDBRANCH   8  10
ENDBRANCH   1   8
BRANCH   4  26
HETATM   26  C8  UNL     1     -11.941  46.499  49.885  1.00  0.00     0.135 A 
HETATM   27  N5  UNL     1     -10.689  46.153  50.181  1.00  0.00    -0.327 N 
HETATM   28  C9  UNL     1      -9.621  46.579  49.456  1.00  0.00     0.101 A 
ATOM     29  H5  UNL     1     -10.526  45.545  50.984  1.00  0.00     0.169 HD
HETATM   30  N6  UNL     1      -8.412  46.236  49.755  1.00  0.00    -0.385 N 
HETATM   31  C10 UNL     1      -9.831  47.403  48.369  1.00  0.00     0.065 A 
ATOM     32  H62 UNL     1      -8.257  45.627  50.558  1.00  0.00     0.157 HD
ATOM     33  H61 UNL     1      -7.610  46.555  49.211  1.00  0.00     0.157 HD
HETATM   34  C11 UNL     1     -11.130  47.762  48.061  1.00  0.00     0.093 A 
HETATM   35  N7  UNL     1     -12.138  47.301  48.826  1.00  0.00    -0.350 N 
ATOM     36  H7  UNL     1     -13.092  47.572  48.591  1.00  0.00     0.166 HD
ENDBRANCH   4  26
TORSDOF 5
ENDMDL
MODEL 3
REMARK VINA RESULT: -6.842770445      3.010      4.704
REMARK  5 active torsions:
REMARK  status: ('A' for Active; 'I' for Inactive)
REMARK    1  A    between atoms: N1_2  and  C2_4 
REMARK    2  A    between atoms: C3_7  and  C4_8 
REMARK    3  A    between atoms: C5_10  and  N3_11 
REMARK    4  A    between atoms: N3_11  and  C6_13 
REMARK    5  A    between atoms: C7_16  and  C8_17 
ROOT
HETATM    1  C6  UNL     1     -15.212  45.841  51.604  1.00  0.00     0.684 A 
HETATM    2  N4  UNL     1     -14.402  46.617  50.825  1.00  0.00    -0.186 N 
ATOM      3  H4  UNL     1     -14.658  47.522  50.431  1.00  0.00     0.184 HD
HETATM    4  C7  UNL     1     -13.219  46.007  50.658  1.00  0.00     0.109 A 
HETATM    5  C12 UNL     1     -13.302  44.820  51.356  1.00  0.00     0.140 A 
HETATM    6  N8  UNL     1     -14.526  44.723  51.933  1.00  0.00    -0.199 N 
ATOM      7  H8  UNL     1     -14.865  43.951  52.508  1.00  0.00     0.183 HD
ENDROOT
BRANCH   1   8
HETATM    8  N3  UNL     1     -16.525  46.097  52.023  1.00  0.00    -0.170 N 
ATOM      9  H3  UNL     1     -16.761  46.129  53.015  1.00  0.00     0.186 HD
BRANCH   8  10
HETATM   10  C5  UNL     1     -17.446  46.294  51.104  1.00  0.00     0.164 A 
HETATM   11  S1  UNL     1     -18.401  45.146  50.293  1.00  0.00    -0.049 SA
HETATM   12  C4  UNL     1     -19.312  46.231  49.291  1.00  0.00     0.058 A 
HETATM   13  C13 UNL     1     -18.797  47.432  49.662  1.00  0.00     0.027 A 
HETATM   14  N9  UNL     1     -17.857  47.441  50.579  1.00  0.00    -0.339 N 
HETATM   15  C14 UNL     1     -19.252  48.732  49.009  1.00  0.00     0.070 C 
ATOM     16  H9  UNL     1     -17.447  48.323  50.886  1.00  0.00     0.168 HD
BRANCH  12  17
HETATM   17  C3  UNL     1     -20.417  45.837  48.357  1.00  0.00     0.060 A 
HETATM   18  N2  UNL     1     -20.782  46.440  47.269  1.00  0.00    -0.335 N 
HETATM   19  C2  UNL     1     -21.763  45.931  46.521  1.00  0.00     0.144 A 
ATOM     20  H2  UNL     1     -20.320  47.304  46.985  1.00  0.00     0.168 HD
HETATM   21  S2  UNL     1     -22.210  44.532  47.375  1.00  0.00    -0.064 SA
HETATM   22  C15 UNL     1     -21.114  44.659  48.663  1.00  0.00     0.084 A 
BRANCH  19  23
HETATM   23  N1  UNL     1     -22.246  46.419  45.395  1.00  0.00    -0.375 N 
HETATM   24  C1  UNL     1     -23.606  46.843  45.346  1.00  0.00     0.148 C 
ATOM     25  H1  UNL     1     -21.653  46.493  44.569  1.00  0.00     0.161 HD
ENDBRANCH  19  23
ENDBRANCH  12  17
ENDBRANCH   8  10
ENDBRANCH   1   8
BRANCH   4  26
HETATM   26  C8  UNL     1     -12.070  46.489  49.899  1.00  0.00     0.135 A 
HETATM   27  N5  UNL     1     -10.827  46.139  50.221  1.00  0.00    -0.327 N 
HETATM   28  C9  UNL     1      -9.740  46.574  49.529  1.00  0.00     0.101 A 
ATOM     29  H5  UNL     1     -10.683  45.520  51.020  1.00  0.00     0.169 HD
HETATM   30  N6  UNL     1      -8.539  46.226  49.853  1.00  0.00    -0.385 N 
HETATM   31  C10 UNL     1      -9.923  47.412  48.448  1.00  0.00     0.065 A 
ATOM     32  H62 UNL     1      -8.404  45.606  50.652  1.00  0.00     0.157 HD
ATOM     33  H61 UNL     1      -7.724  46.551  49.334  1.00  0.00     0.157 HD
HETATM   34  C11 UNL     1     -11.213  47.776  48.112  1.00  0.00     0.093 A 
HETATM   35  N7  UNL     1     -12.240  47.305  48.846  1.00  0.00    -0.350 N 
ATOM     36  H7  UNL     1     -13.189  47.579  48.590  1.00  0.00     0.166 HD
ENDBRANCH   4  26
TORSDOF 5
ENDMDL
MODEL 4
REMARK VINA RESULT: -6.778980399      2.983      4.091
REMARK  5 active torsions:
REMARK  status: ('A' for Active; 'I' for Inactive)
REMARK    1  A    between atoms: N1_2  and  C2_4 
REMARK    2  A    between atoms: C3_7  and  C4_8 
REMARK    3  A    between atoms: C5_10  and  N3_11 
REMARK    4  A    between atoms: N3_11  and  C6_13 
REMARK    5  A    between atoms: C7_16  and  C8_17 
ROOT
HETATM    1  C6  UNL     1     -15.379  45.349  51.346  1.00  0.00     0.684 A 
HETATM    2  N4  UNL     1     -14.532  45.658  50.319  1.00  0.00    -0.186 N 
ATOM      3  H4  UNL     1     -14.768  45.610  49.329  1.00  0.00     0.184 HD
HETATM    4  C7  UNL     1     -13.343  46.032  50.814  1.00  0.00     0.109 A 
HETATM    5  C12 UNL     1     -13.461  45.954  52.186  1.00  0.00     0.140 A 
HETATM    6  N8  UNL     1     -14.711  45.534  52.507  1.00  0.00    -0.199 N 
ATOM      7  H8  UNL     1     -15.077  45.386  53.448  1.00  0.00     0.183 HD
ENDROOT
BRANCH   1   8
HETATM    8  N3  UNL     1     -16.711  44.914  51.278  1.00  0.00    -0.170 N 
ATOM      9  H3  UNL     1     -17.005  44.055  51.743  1.00  0.00     0.186 HD
BRANCH   8  10
HETATM   10  C5  UNL     1     -17.570  45.643  50.599  1.00  0.00     0.164 A 
HETATM   11  S1  UNL     1     -18.757  45.133  49.495  1.00  0.00    -0.049 SA
HETATM   12  C4  UNL     1     -19.414  46.686  49.087  1.00  0.00     0.058 A 
HETATM   13  C13 UNL     1     -18.648  47.508  49.850  1.00  0.00     0.027 A 
HETATM   14  N9  UNL     1     -17.724  46.961  50.606  1.00  0.00    -0.339 N 
HETATM   15  C14 UNL     1     -18.811  49.023  49.804  1.00  0.00     0.070 C 
ATOM     16  H9  UNL     1     -17.129  47.544  51.195  1.00  0.00     0.168 HD
BRANCH  12  17
HETATM   17  C3  UNL     1     -20.583  46.929  48.179  1.00  0.00     0.060 A 
HETATM   18  N2  UNL     1     -21.445  47.895  48.246  1.00  0.00    -0.335 N 
HETATM   19  C2  UNL     1     -22.407  47.994  47.326  1.00  0.00     0.144 A 
ATOM     20  H2  UNL     1     -21.388  48.578  49.002  1.00  0.00     0.168 HD
HETATM   21  S2  UNL     1     -22.102  46.671  46.307  1.00  0.00    -0.064 SA
HETATM   22  C15 UNL     1     -20.745  46.041  47.106  1.00  0.00     0.084 A 
BRANCH  19  23
HETATM   23  N1  UNL     1     -23.352  48.912  47.254  1.00  0.00    -0.375 N 
HETATM   24  C1  UNL     1     -24.453  48.851  48.158  1.00  0.00     0.148 C 
ATOM     25  H1  UNL     1     -23.296  49.656  46.559  1.00  0.00     0.161 HD
ENDBRANCH  19  23
ENDBRANCH  12  17
ENDBRANCH   8  10
ENDBRANCH   1   8
BRANCH   4  26
HETATM   26  C8  UNL     1     -12.160  46.444  50.067  1.00  0.00     0.135 A 
HETATM   27  N5  UNL     1     -10.939  46.048  50.424  1.00  0.00    -0.327 N 
HETATM   28  C9  UNL     1      -9.821  46.418  49.743  1.00  0.00     0.101 A 
ATOM     29  H5  UNL     1     -10.839  45.445  51.240  1.00  0.00     0.169 HD
HETATM   30  N6  UNL     1      -8.643  46.026  50.101  1.00  0.00    -0.385 N 
HETATM   31  C10 UNL     1      -9.946  47.235  48.639  1.00  0.00     0.065 A 
ATOM     32  H62 UNL     1      -8.552  45.422  50.918  1.00  0.00     0.157 HD
ATOM     33  H61 UNL     1      -7.805  46.303  49.590  1.00  0.00     0.157 HD
HETATM   34  C11 UNL     1     -11.212  47.646  48.267  1.00  0.00     0.093 A 
HETATM   35  N7  UNL     1     -12.273  47.239  48.990  1.00  0.00    -0.350 N 
ATOM     36  H7  UNL     1     -13.203  47.548  48.709  1.00  0.00     0.166 HD
ENDBRANCH   4  26
TORSDOF 5
ENDMDL
MODEL 5
REMARK VINA RESULT: -6.760619195      3.748      4.644
REMARK  5 active torsions:
REMARK  status: ('A' for Active; 'I' for Inactive)
REMARK    1  A    between atoms: N1_2  and  C2_4 
REMARK    2  A    between atoms: C3_7  and  C4_8 
REMARK    3  A    between atoms: C5_10  and  N3_11 
REMARK    4  A    between atoms: N3_11  and  C6_13 
REMARK    5  A    between atoms: C7_16  and  C8_17 
ROOT
HETATM    1  C6  UNL     1     -15.353  45.201  51.412  1.00  0.00     0.684 A 
HETATM    2  N4  UNL     1     -14.311  45.163  50.529  1.00  0.00    -0.186 N 
ATOM      3  H4  UNL     1     -14.204  44.485  49.776  1.00  0.00     0.184 HD
HETATM    4  C7  UNL     1     -13.451  46.155  50.806  1.00  0.00     0.109 A 
HETATM    5  C12 UNL     1     -13.979  46.824  51.890  1.00  0.00     0.140 A 
HETATM    6  N8  UNL     1     -15.145  46.235  52.258  1.00  0.00    -0.199 N 
ATOM      7  H8  UNL     1     -15.751  46.519  53.028  1.00  0.00     0.183 HD
ENDROOT
BRANCH   1   8
HETATM    8  N3  UNL     1     -16.468  44.352  51.483  1.00  0.00    -0.170 N 
ATOM      9  H3  UNL     1     -16.454  43.520  52.072  1.00  0.00     0.186 HD
BRANCH   8  10
HETATM   10  C5  UNL     1     -17.530  44.658  50.769  1.00  0.00     0.164 A 
HETATM   11  S1  UNL     1     -17.804  46.029  49.804  1.00  0.00    -0.049 SA
HETATM   12  C4  UNL     1     -19.400  45.636  49.245  1.00  0.00     0.058 A 
HETATM   13  C13 UNL     1     -19.613  44.445  49.864  1.00  0.00     0.027 A 
HETATM   14  N9  UNL     1     -18.656  43.969  50.628  1.00  0.00    -0.339 N 
HETATM   15  C14 UNL     1     -20.933  43.697  49.724  1.00  0.00     0.070 C 
ATOM     16  H9  UNL     1     -18.776  43.077  51.108  1.00  0.00     0.168 HD
BRANCH  12  17
HETATM   17  C3  UNL     1     -20.205  46.437  48.266  1.00  0.00     0.060 A 
HETATM   18  N2  UNL     1     -20.855  45.998  47.235  1.00  0.00    -0.335 N 
HETATM   19  C2  UNL     1     -21.565  46.844  46.485  1.00  0.00     0.144 A 
ATOM     20  H2  UNL     1     -20.823  45.007  46.995  1.00  0.00     0.168 HD
HETATM   21  S2  UNL     1     -21.318  48.339  47.253  1.00  0.00    -0.064 SA
HETATM   22  C15 UNL     1     -20.309  47.815  48.512  1.00  0.00     0.084 A 
BRANCH  19  23
HETATM   23  N1  UNL     1     -22.277  46.557  45.412  1.00  0.00    -0.375 N 
HETATM   24  C1  UNL     1     -23.680  46.807  45.419  1.00  0.00     0.148 C 
ATOM     25  H1  UNL     1     -21.827  46.160  44.587  1.00  0.00     0.161 HD
ENDBRANCH  19  23
ENDBRANCH  12  17
ENDBRANCH   8  10
ENDBRANCH   1   8
BRANCH   4  26
HETATM   26  C8  UNL     1     -12.209  46.474  50.110  1.00  0.00     0.135 A 
HETATM   27  N5  UNL     1     -11.038  45.994  50.523  1.00  0.00    -0.327 N 
HETATM   28  C9  UNL     1      -9.867  46.277  49.891  1.00  0.00     0.101 A 
ATOM     29  H5  UNL     1     -11.017  45.391  51.345  1.00  0.00     0.169 HD
HETATM   30  N6  UNL     1      -8.738  45.804  50.302  1.00  0.00    -0.385 N 
HETATM   31  C10 UNL     1      -9.883  47.093  48.778  1.00  0.00     0.065 A 
ATOM     32  H62 UNL     1      -8.726  45.201  51.125  1.00  0.00     0.157 HD
ATOM     33  H61 UNL     1      -7.860  46.015  49.828  1.00  0.00     0.157 HD
HETATM   34  C11 UNL     1     -11.099  47.591  48.349  1.00  0.00     0.093 A 
HETATM   35  N7  UNL     1     -12.217  47.267  49.026  1.00  0.00    -0.350 N 
ATOM     36  H7  UNL     1     -13.109  47.641  48.702  1.00  0.00     0.166 HD
ENDBRANCH   4  26
TORSDOF 5
ENDMDL
