MODEL 1
REMARK VINA RESULT: -6.989428598      0.000      0.000
REMARK  1 active torsions:
REMARK  status: ('A' for Active; 'I' for Inactive)
REMARK    1  A    between atoms: C2_2  and  C3_3 
ROOT
HETATM    1  C3  UNL     1      21.311  83.666  24.480  1.00  0.00    -0.005 C 
HETATM    2  C4  UNL     1      22.549  84.457  24.498  1.00  0.00     0.016 C 
HETATM    3  C5  UNL     1      22.665  85.142  23.120  1.00  0.00     0.059 C 
HETATM    4  C6  UNL     1      22.204  86.565  23.362  1.00  0.00     0.060 C 
HETATM    5  C7  UNL     1      22.214  87.411  22.132  1.00  0.00     0.046 C 
HETATM    6  C8  UNL     1      23.244  87.164  24.326  1.00  0.00     0.046 C 
HETATM    7  O1  UNL     1      21.019  86.524  24.028  1.00  0.00    -0.380 OA
HETATM    8  C9  UNL     1      20.078  85.655  23.574  1.00  0.00     0.176 C 
HETATM    9  C10 UNL     1      20.551  84.260  23.312  1.00  0.00     0.053 C 
HETATM   10  C11 UNL     1      21.693  84.345  22.301  1.00  0.00     0.125 C 
HETATM   11 CL1  UNL     1      21.234  85.047  20.786  1.00  0.00    -0.101 Cl
HETATM   12 CL2  UNL     1      22.403  82.749  21.997  1.00  0.00    -0.101 Cl
ENDROOT
BRANCH   1  13
HETATM   13  C2  UNL     1      20.487  83.592  25.696  1.00  0.00     0.001 C 
HETATM   14  C1  UNL     1      21.044  84.099  26.954  1.00  0.00     0.005 C 
ENDBRANCH   1  13
TORSDOF 1
ENDMDL
MODEL 2
REMARK VINA RESULT: -6.984943064      1.633      3.310
REMARK  1 active torsions:
REMARK  status: ('A' for Active; 'I' for Inactive)
REMARK    1  A    between atoms: C2_2  and  C3_3 
ROOT
HETATM    1  C3  UNL     1      21.924  86.611  24.484  1.00  0.00    -0.005 C 
HETATM    2  C4  UNL     1      20.686  85.820  24.501  1.00  0.00     0.016 C 
HETATM    3  C5  UNL     1      20.570  85.136  23.122  1.00  0.00     0.059 C 
HETATM    4  C6  UNL     1      21.031  83.713  23.364  1.00  0.00     0.060 C 
HETATM    5  C7  UNL     1      21.022  82.868  22.132  1.00  0.00     0.046 C 
HETATM    6  C8  UNL     1      19.991  83.113  24.326  1.00  0.00     0.046 C 
HETATM    7  O1  UNL     1      22.216  83.753  24.030  1.00  0.00    -0.380 OA
HETATM    8  C9  UNL     1      23.157  84.623  23.577  1.00  0.00     0.176 C 
HETATM    9  C10 UNL     1      22.684  86.018  23.316  1.00  0.00     0.053 C 
HETATM   10  C11 UNL     1      21.542  85.934  22.305  1.00  0.00     0.125 C 
HETATM   11 CL1  UNL     1      22.002  85.233  20.789  1.00  0.00    -0.101 Cl
HETATM   12 CL2  UNL     1      20.833  87.530  22.001  1.00  0.00    -0.101 Cl
ENDROOT
BRANCH   1  13
HETATM   13  C2  UNL     1      22.747  86.683  25.701  1.00  0.00     0.001 C 
HETATM   14  C1  UNL     1      22.189  86.176  26.958  1.00  0.00     0.005 C 
ENDBRANCH   1  13
TORSDOF 1
ENDMDL
MODEL 3
REMARK VINA RESULT: -6.362585629      2.265      3.962
REMARK  1 active torsions:
REMARK  status: ('A' for Active; 'I' for Inactive)
REMARK    1  A    between atoms: C2_2  and  C3_3 
ROOT
HETATM    1  C3  UNL     1      22.036  86.813  24.079  1.00  0.00    -0.005 C 
HETATM    2  C4  UNL     1      22.852  85.702  23.571  1.00  0.00     0.016 C 
HETATM    3  C5  UNL     1      22.316  84.413  24.229  1.00  0.00     0.059 C 
HETATM    4  C6  UNL     1      21.458  83.768  23.159  1.00  0.00     0.060 C 
HETATM    5  C7  UNL     1      20.811  82.497  23.601  1.00  0.00     0.046 C 
HETATM    6  C8  UNL     1      22.436  83.402  22.028  1.00  0.00     0.046 C 
HETATM    7  O1  UNL     1      20.610  84.709  22.665  1.00  0.00    -0.380 OA
HETATM    8  C9  UNL     1      19.962  85.498  23.563  1.00  0.00     0.176 C 
HETATM    9  C10 UNL     1      20.815  86.107  24.631  1.00  0.00     0.053 C 
HETATM   10  C11 UNL     1      21.512  84.964  25.368  1.00  0.00     0.125 C 
HETATM   11 CL1  UNL     1      20.420  83.853  26.125  1.00  0.00    -0.101 Cl
HETATM   12 CL2  UNL     1      22.636  85.581  26.593  1.00  0.00    -0.101 Cl
ENDROOT
BRANCH   1  13
HETATM   13  C2  UNL     1      21.676  87.914  23.172  1.00  0.00     0.001 C 
HETATM   14  C1  UNL     1      21.929  87.753  21.737  1.00  0.00     0.005 C 
ENDBRANCH   1  13
TORSDOF 1
ENDMDL
MODEL 4
REMARK VINA RESULT: -6.347734846      2.445      3.343
REMARK  1 active torsions:
REMARK  status: ('A' for Active; 'I' for Inactive)
REMARK    1  A    between atoms: C2_2  and  C3_3 
ROOT
HETATM    1  C3  UNL     1      21.210  83.458  24.077  1.00  0.00    -0.005 C 
HETATM    2  C4  UNL     1      20.391  84.568  23.572  1.00  0.00     0.016 C 
HETATM    3  C5  UNL     1      20.920  85.856  24.236  1.00  0.00     0.059 C 
HETATM    4  C6  UNL     1      21.778  86.509  23.171  1.00  0.00     0.060 C 
HETATM    5  C7  UNL     1      22.420  87.780  23.620  1.00  0.00     0.046 C 
HETATM    6  C8  UNL     1      20.801  86.875  22.039  1.00  0.00     0.046 C 
HETATM    7  O1  UNL     1      22.631  85.573  22.676  1.00  0.00    -0.380 OA
HETATM    8  C9  UNL     1      23.280  84.783  23.572  1.00  0.00     0.176 C 
HETATM    9  C10 UNL     1      22.427  84.167  24.635  1.00  0.00     0.053 C 
HETATM   10  C11 UNL     1      21.724  85.303  25.375  1.00  0.00     0.125 C 
HETATM   11 CL1  UNL     1      22.809  86.416  26.140  1.00  0.00    -0.101 Cl
HETATM   12 CL2  UNL     1      20.600  84.678  26.595  1.00  0.00    -0.101 Cl
ENDROOT
BRANCH   1  13
HETATM   13  C2  UNL     1      21.577  82.362  23.167  1.00  0.00     0.001 C 
HETATM   14  C1  UNL     1      21.307  82.519  21.734  1.00  0.00     0.005 C 
ENDBRANCH   1  13
TORSDOF 1
ENDMDL
MODEL 5
REMARK VINA RESULT: -6.142399053      2.390      4.143
REMARK  1 active torsions:
REMARK  status: ('A' for Active; 'I' for Inactive)
REMARK    1  A    between atoms: C2_2  and  C3_3 
ROOT
HETATM    1  C3  UNL     1      22.206  86.333  22.665  1.00  0.00    -0.005 C 
HETATM    2  C4  UNL     1      22.722  85.016  23.062  1.00  0.00     0.016 C 
HETATM    3  C5  UNL     1      22.312  84.795  24.533  1.00  0.00     0.059 C 
HETATM    4  C6  UNL     1      21.109  83.876  24.458  1.00  0.00     0.060 C 
HETATM    5  C7  UNL     1      20.527  83.549  25.794  1.00  0.00     0.046 C 
HETATM    6  C8  UNL     1      21.647  82.559  23.870  1.00  0.00     0.046 C 
HETATM    7  O1  UNL     1      20.233  84.390  23.554  1.00  0.00    -0.380 OA
HETATM    8  C9  UNL     1      19.970  85.721  23.626  1.00  0.00     0.176 C 
HETATM    9  C10 UNL     1      21.164  86.617  23.728  1.00  0.00     0.053 C 
HETATM   10  C11 UNL     1      21.956  86.188  24.961  1.00  0.00     0.125 C 
HETATM   11 CL1  UNL     1      21.066  86.315  26.442  1.00  0.00    -0.101 Cl
HETATM   12 CL2  UNL     1      23.456  87.120  25.118  1.00  0.00    -0.101 Cl
ENDROOT
BRANCH   1  13
HETATM   13  C2  UNL     1      21.675  86.518  21.306  1.00  0.00     0.001 C 
HETATM   14  C1  UNL     1      21.634  85.362  20.404  1.00  0.00     0.005 C 
ENDBRANCH   1  13
TORSDOF 1
ENDMDL
