MODEL 1
REMARK VINA RESULT: -5.482574191      0.000      0.000
REMARK  2 active torsions:
REMARK  status: ('A' for Active; 'I' for Inactive)
REMARK    1  A    between atoms: N1_9  and  C8_11 
REMARK    2  A    between atoms: C8_11  and  C9_12 
ROOT
HETATM    1  C1  UNL     1      23.568  86.312  23.978  1.00  0.00     0.075 C 
HETATM    2  C2  UNL     1      22.169  86.383  23.482  1.00  0.00     0.259 C 
HETATM    3 CL1  UNL     1      21.989  87.814  22.440  1.00  0.00    -0.078 Cl
HETATM    4  C3  UNL     1      21.165  86.537  24.618  1.00  0.00     0.049 C 
HETATM    5  C4  UNL     1      21.182  85.332  25.523  1.00  0.00     0.011 C 
HETATM    6  C5  UNL     1      20.536  84.196  24.718  1.00  0.00     0.043 C 
HETATM    7  C6  UNL     1      20.416  84.843  23.352  1.00  0.00     0.258 C 
HETATM    8  C7  UNL     1      19.906  86.232  23.787  1.00  0.00     0.051 C 
HETATM    9  N1  UNL     1      21.708  85.197  22.817  1.00  0.00     0.042 N 
HETATM   10  O1  UNL     1      21.506  85.518  21.497  1.00  0.00    -0.062 OA
ENDROOT
BRANCH   9  11
HETATM   11  C8  UNL     1      22.645  84.111  22.834  1.00  0.00     0.330 C 
BRANCH  11  12
HETATM   12  C9  UNL     1      22.330  83.192  21.667  1.00  0.00     0.151 C 
HETATM   13 CL2  UNL     1      21.514  81.757  22.346  1.00  0.00    -0.128 Cl
ENDBRANCH  11  12
ENDBRANCH   9  11
TORSDOF 2
ENDMDL
MODEL 2
REMARK VINA RESULT: -5.480285840      1.208      3.615
REMARK  2 active torsions:
REMARK  status: ('A' for Active; 'I' for Inactive)
REMARK    1  A    between atoms: N1_9  and  C8_11 
REMARK    2  A    between atoms: C8_11  and  C9_12 
ROOT
HETATM    1  C1  UNL     1      19.684  83.944  23.981  1.00  0.00     0.075 C 
HETATM    2  C2  UNL     1      21.084  83.882  23.486  1.00  0.00     0.259 C 
HETATM    3 CL1  UNL     1      21.274  82.452  22.444  1.00  0.00    -0.078 Cl
HETATM    4  C3  UNL     1      22.088  83.734  24.622  1.00  0.00     0.049 C 
HETATM    5  C4  UNL     1      22.063  84.940  25.526  1.00  0.00     0.011 C 
HETATM    6  C5  UNL     1      22.702  86.080  24.722  1.00  0.00     0.043 C 
HETATM    7  C6  UNL     1      22.827  85.433  23.356  1.00  0.00     0.258 C 
HETATM    8  C7  UNL     1      23.346  84.047  23.792  1.00  0.00     0.051 C 
HETATM    9  N1  UNL     1      21.538  85.070  22.820  1.00  0.00     0.042 N 
HETATM   10  O1  UNL     1      21.743  84.751  21.500  1.00  0.00    -0.062 OA
ENDROOT
BRANCH   9  11
HETATM   11  C8  UNL     1      20.595  86.151  22.836  1.00  0.00     0.330 C 
BRANCH  11  12
HETATM   12  C9  UNL     1      20.903  87.070  21.667  1.00  0.00     0.151 C 
HETATM   13 CL2  UNL     1      21.700  88.516  22.345  1.00  0.00    -0.128 Cl
ENDBRANCH  11  12
ENDBRANCH   9  11
TORSDOF 2
ENDMDL
MODEL 3
REMARK VINA RESULT: -5.402732717      2.612      3.729
REMARK  2 active torsions:
REMARK  status: ('A' for Active; 'I' for Inactive)
REMARK    1  A    between atoms: N1_9  and  C8_11 
REMARK    2  A    between atoms: C8_11  and  C9_12 
ROOT
HETATM    1  C1  UNL     1      23.202  87.030  24.247  1.00  0.00     0.075 C 
HETATM    2  C2  UNL     1      22.726  85.661  23.918  1.00  0.00     0.259 C 
HETATM    3 CL1  UNL     1      24.123  84.567  23.800  1.00  0.00    -0.078 Cl
HETATM    4  C3  UNL     1      22.012  85.611  22.574  1.00  0.00     0.049 C 
HETATM    5  C4  UNL     1      20.760  86.449  22.593  1.00  0.00     0.011 C 
HETATM    6  C5  UNL     1      19.762  85.691  23.479  1.00  0.00     0.043 C 
HETATM    7  C6  UNL     1      20.649  84.596  24.040  1.00  0.00     0.258 C 
HETATM    8  C7  UNL     1      21.399  84.209  22.749  1.00  0.00     0.051 C 
HETATM    9  N1  UNL     1      21.736  85.139  24.818  1.00  0.00     0.042 N 
HETATM   10  O1  UNL     1      22.302  84.080  25.484  1.00  0.00    -0.062 OA
ENDROOT
BRANCH   9  11
HETATM   11  C8  UNL     1      21.303  86.069  25.821  1.00  0.00     0.330 C 
BRANCH  11  12
HETATM   12  C9  UNL     1      21.460  85.410  27.180  1.00  0.00     0.151 C 
HETATM   13 CL2  UNL     1      21.041  86.642  28.402  1.00  0.00    -0.128 Cl
ENDBRANCH  11  12
ENDBRANCH   9  11
TORSDOF 2
ENDMDL
MODEL 4
REMARK VINA RESULT: -5.400388347      2.594      3.805
REMARK  2 active torsions:
REMARK  status: ('A' for Active; 'I' for Inactive)
REMARK    1  A    between atoms: N1_9  and  C8_11 
REMARK    2  A    between atoms: C8_11  and  C9_12 
ROOT
HETATM    1  C1  UNL     1      20.026  83.241  24.273  1.00  0.00     0.075 C 
HETATM    2  C2  UNL     1      20.507  84.605  23.933  1.00  0.00     0.259 C 
HETATM    3 CL1  UNL     1      19.114  85.707  23.825  1.00  0.00    -0.078 Cl
HETATM    4  C3  UNL     1      21.205  84.646  22.580  1.00  0.00     0.049 C 
HETATM    5  C4  UNL     1      22.453  83.800  22.588  1.00  0.00     0.011 C 
HETATM    6  C5  UNL     1      23.465  84.555  23.460  1.00  0.00     0.043 C 
HETATM    7  C6  UNL     1      22.591  85.658  24.026  1.00  0.00     0.258 C 
HETATM    8  C7  UNL     1      21.828  86.044  22.742  1.00  0.00     0.051 C 
HETATM    9  N1  UNL     1      21.510  85.124  24.819  1.00  0.00     0.042 N 
HETATM   10  O1  UNL     1      20.958  86.190  25.487  1.00  0.00    -0.062 OA
ENDROOT
BRANCH   9  11
HETATM   11  C8  UNL     1      21.948  84.196  25.821  1.00  0.00     0.330 C 
BRANCH  11  12
HETATM   12  C9  UNL     1      21.793  84.855  27.180  1.00  0.00     0.151 C 
HETATM   13 CL2  UNL     1      22.191  83.616  28.401  1.00  0.00    -0.128 Cl
ENDBRANCH  11  12
ENDBRANCH   9  11
TORSDOF 2
ENDMDL
MODEL 5
REMARK VINA RESULT: -5.334057368      1.974      2.941
REMARK  2 active torsions:
REMARK  status: ('A' for Active; 'I' for Inactive)
REMARK    1  A    between atoms: N1_9  and  C8_11 
REMARK    2  A    between atoms: C8_11  and  C9_12 
ROOT
HETATM    1  C1  UNL     1      20.174  86.536  25.133  1.00  0.00     0.075 C 
HETATM    2  C2  UNL     1      21.579  86.100  24.923  1.00  0.00     0.259 C 
HETATM    3 CL1  UNL     1      22.410  86.026  26.494  1.00  0.00    -0.078 Cl
HETATM    4  C3  UNL     1      22.361  87.081  24.059  1.00  0.00     0.049 C 
HETATM    5  C4  UNL     1      21.781  87.160  22.670  1.00  0.00     0.011 C 
HETATM    6  C5  UNL     1      22.136  85.830  21.992  1.00  0.00     0.043 C 
HETATM    7  C6  UNL     1      22.704  85.053  23.163  1.00  0.00     0.258 C 
HETATM    8  C7  UNL     1      23.568  86.164  23.794  1.00  0.00     0.051 C 
HETATM    9  N1  UNL     1      21.722  84.866  24.204  1.00  0.00     0.042 N 
HETATM   10  O1  UNL     1      22.248  83.941  25.072  1.00  0.00    -0.062 OA
ENDROOT
BRANCH   9  11
HETATM   11  C8  UNL     1      20.486  84.318  23.723  1.00  0.00     0.330 C 
BRANCH  11  12
HETATM   12  C9  UNL     1      20.535  82.810  23.896  1.00  0.00     0.151 C 
HETATM   13 CL2  UNL     1      21.155  82.136  22.364  1.00  0.00    -0.128 Cl
ENDBRANCH  11  12
ENDBRANCH   9  11
TORSDOF 2
ENDMDL
