MODEL 1
REMARK VINA RESULT: -4.553841889      0.000      0.000
REMARK  5 active torsions:
REMARK  status: ('A' for Active; 'I' for Inactive)
REMARK    1  A    between atoms: C2_2  and  C3_3 
REMARK    2  A    between atoms: C3_3  and  C4_4 
REMARK    3  A    between atoms: C5_7  and  C6_8 
REMARK    4  A    between atoms: C6_8  and  C7_9 
REMARK    5  A    between atoms: C7_9  and  C8_10 
ROOT
HETATM    1  C4  UNL     1      21.817  84.510  27.697  1.00  0.00     0.050 A 
HETATM    2  N1  UNL     1      21.913  83.891  26.490  1.00  0.00    -0.336 N 
ATOM      3  H1  UNL     1      22.286  82.952  26.349  1.00  0.00     0.168 HD
HETATM    4  C5  UNL     1      21.449  84.681  25.511  1.00  0.00     0.163 A 
HETATM    5  N2  UNL     1      21.053  85.816  26.089  1.00  0.00    -0.324 N 
ATOM      6  H2  UNL     1      20.652  86.617  25.601  1.00  0.00     0.169 HD
HETATM    7  C10 UNL     1      21.269  85.740  27.437  1.00  0.00     0.128 A 
HETATM    8 CL2  UNL     1      20.894  87.067  28.528  1.00  0.00    -0.062 Cl
ENDROOT
BRANCH   4   9
HETATM    9  C6  UNL     1      21.383  84.389  24.096  1.00  0.00    -0.029 C 
BRANCH   9  10
HETATM   10  C7  UNL     1      21.335  84.128  22.912  1.00  0.00    -0.078 C 
BRANCH  10  11
HETATM   11  C8  UNL     1      21.289  83.790  21.490  1.00  0.00     0.157 C 
HETATM   12  C9  UNL     1      22.233  82.629  21.268  1.00  0.00     0.040 C 
HETATM   13 CL1  UNL     1      21.715  85.160  20.460  1.00  0.00    -0.112 Cl
ENDBRANCH  10  11
ENDBRANCH   9  10
ENDBRANCH   4   9
BRANCH   1  14
HETATM   14  C3  UNL     1      22.199  83.959  29.001  1.00  0.00     0.060 C 
BRANCH  14  15
HETATM   15  C2  UNL     1      22.805  82.609  28.995  1.00  0.00     0.002 C 
HETATM   16  C1  UNL     1      24.283  82.517  28.864  1.00  0.00     0.005 C 
ENDBRANCH  14  15
ENDBRANCH   1  14
TORSDOF 5
ENDMDL
MODEL 2
REMARK VINA RESULT: -4.550639767      2.229      3.440
REMARK  5 active torsions:
REMARK  status: ('A' for Active; 'I' for Inactive)
REMARK    1  A    between atoms: C2_2  and  C3_3 
REMARK    2  A    between atoms: C3_3  and  C4_4 
REMARK    3  A    between atoms: C5_7  and  C6_8 
REMARK    4  A    between atoms: C6_8  and  C7_9 
REMARK    5  A    between atoms: C7_9  and  C8_10 
ROOT
HETATM    1  C4  UNL     1      21.421  85.730  27.713  1.00  0.00     0.050 A 
HETATM    2  N1  UNL     1      21.321  86.348  26.505  1.00  0.00    -0.336 N 
ATOM      3  H1  UNL     1      20.936  87.282  26.363  1.00  0.00     0.168 HD
HETATM    4  C5  UNL     1      21.799  85.565  25.527  1.00  0.00     0.163 A 
HETATM    5  N2  UNL     1      22.207  84.435  26.106  1.00  0.00    -0.324 N 
ATOM      6  H2  UNL     1      22.621  83.639  25.619  1.00  0.00     0.169 HD
HETATM    7  C10 UNL     1      21.986  84.508  27.454  1.00  0.00     0.128 A 
HETATM    8 CL2  UNL     1      22.375  83.185  28.545  1.00  0.00    -0.062 Cl
ENDROOT
BRANCH   4   9
HETATM    9  C6  UNL     1      21.866  85.858  24.113  1.00  0.00    -0.029 C 
BRANCH   9  10
HETATM   10  C7  UNL     1      21.917  86.121  22.929  1.00  0.00    -0.078 C 
BRANCH  10  11
HETATM   11  C8  UNL     1      21.964  86.461  21.508  1.00  0.00     0.157 C 
HETATM   12  C9  UNL     1      21.055  87.650  21.294  1.00  0.00     0.040 C 
HETATM   13 CL1  UNL     1      21.490  85.106  20.478  1.00  0.00    -0.112 Cl
ENDBRANCH  10  11
ENDBRANCH   9  10
ENDBRANCH   4   9
BRANCH   1  14
HETATM   14  C3  UNL     1      21.027  86.275  29.015  1.00  0.00     0.060 C 
BRANCH  14  15
HETATM   15  C2  UNL     1      20.447  87.637  29.012  1.00  0.00     0.002 C 
HETATM   16  C1  UNL     1      18.979  87.761  28.816  1.00  0.00     0.005 C 
ENDBRANCH  14  15
ENDBRANCH   1  14
TORSDOF 5
ENDMDL
MODEL 3
REMARK VINA RESULT: -4.435732800      1.573      1.822
REMARK  5 active torsions:
REMARK  status: ('A' for Active; 'I' for Inactive)
REMARK    1  A    between atoms: C2_2  and  C3_3 
REMARK    2  A    between atoms: C3_3  and  C4_4 
REMARK    3  A    between atoms: C5_7  and  C6_8 
REMARK    4  A    between atoms: C6_8  and  C7_9 
REMARK    5  A    between atoms: C7_9  and  C8_10 
ROOT
HETATM    1  C4  UNL     1      22.038  84.466  27.509  1.00  0.00     0.050 A 
HETATM    2  N1  UNL     1      22.242  84.399  26.166  1.00  0.00    -0.336 N 
ATOM      3  H1  UNL     1      22.653  83.600  25.682  1.00  0.00     0.168 HD
HETATM    4  C5  UNL     1      21.828  85.523  25.564  1.00  0.00     0.163 A 
HETATM    5  N2  UNL     1      21.356  86.320  26.524  1.00  0.00    -0.324 N 
ATOM      6  H2  UNL     1      20.967  87.252  26.377  1.00  0.00     0.169 HD
HETATM    7  C10 UNL     1      21.473  85.695  27.734  1.00  0.00     0.128 A 
HETATM    8 CL2  UNL     1      20.978  86.456  29.240  1.00  0.00    -0.062 Cl
ENDROOT
BRANCH   4   9
HETATM    9  C6  UNL     1      21.876  85.840  24.154  1.00  0.00    -0.029 C 
BRANCH   9  10
HETATM   10  C7  UNL     1      21.920  86.125  22.975  1.00  0.00    -0.078 C 
BRANCH  10  11
HETATM   11  C8  UNL     1      21.962  86.490  21.560  1.00  0.00     0.157 C 
HETATM   12  C9  UNL     1      21.044  87.676  21.370  1.00  0.00     0.040 C 
HETATM   13 CL1  UNL     1      21.496  85.151  20.506  1.00  0.00    -0.112 Cl
ENDBRANCH  10  11
ENDBRANCH   9  10
ENDBRANCH   4   9
BRANCH   1  14
HETATM   14  C3  UNL     1      22.339  83.426  28.498  1.00  0.00     0.060 C 
BRANCH  14  15
HETATM   15  C2  UNL     1      23.615  82.695  28.319  1.00  0.00     0.002 C 
HETATM   16  C1  UNL     1      24.505  82.562  29.503  1.00  0.00     0.005 C 
ENDBRANCH  14  15
ENDBRANCH   1  14
TORSDOF 5
ENDMDL
MODEL 4
REMARK VINA RESULT: -4.435621009      1.626      3.048
REMARK  5 active torsions:
REMARK  status: ('A' for Active; 'I' for Inactive)
REMARK    1  A    between atoms: C2_2  and  C3_3 
REMARK    2  A    between atoms: C3_3  and  C4_4 
REMARK    3  A    between atoms: C5_7  and  C6_8 
REMARK    4  A    between atoms: C6_8  and  C7_9 
REMARK    5  A    between atoms: C7_9  and  C8_10 
ROOT
HETATM    1  C4  UNL     1      21.202  85.814  27.511  1.00  0.00     0.050 A 
HETATM    2  N1  UNL     1      20.999  85.885  26.168  1.00  0.00    -0.336 N 
ATOM      3  H1  UNL     1      20.587  86.685  25.687  1.00  0.00     0.168 HD
HETATM    4  C5  UNL     1      21.413  84.764  25.562  1.00  0.00     0.163 A 
HETATM    5  N2  UNL     1      21.886  83.963  26.519  1.00  0.00    -0.324 N 
ATOM      6  H2  UNL     1      22.275  83.032  26.369  1.00  0.00     0.169 HD
HETATM    7  C10 UNL     1      21.768  84.584  27.731  1.00  0.00     0.128 A 
HETATM    8 CL2  UNL     1      22.264  83.818  29.234  1.00  0.00    -0.062 Cl
ENDROOT
BRANCH   4   9
HETATM    9  C6  UNL     1      21.365  84.451  24.151  1.00  0.00    -0.029 C 
BRANCH   9  10
HETATM   10  C7  UNL     1      21.323  84.170  22.971  1.00  0.00    -0.078 C 
BRANCH  10  11
HETATM   11  C8  UNL     1      21.279  83.807  21.556  1.00  0.00     0.157 C 
HETATM   12  C9  UNL     1      22.187  82.612  21.364  1.00  0.00     0.040 C 
HETATM   13 CL1  UNL     1      21.759  85.144  20.504  1.00  0.00    -0.112 Cl
ENDBRANCH  10  11
ENDBRANCH   9  10
ENDBRANCH   4   9
BRANCH   1  14
HETATM   14  C3  UNL     1      20.901  86.850  28.503  1.00  0.00     0.060 C 
BRANCH  14  15
HETATM   15  C2  UNL     1      19.637  87.598  28.313  1.00  0.00     0.002 C 
HETATM   16  C1  UNL     1      18.731  87.728  29.484  1.00  0.00     0.005 C 
ENDBRANCH  14  15
ENDBRANCH   1  14
TORSDOF 5
ENDMDL
MODEL 5
REMARK VINA RESULT: -4.329855956      2.558      6.350
REMARK  5 active torsions:
REMARK  status: ('A' for Active; 'I' for Inactive)
REMARK    1  A    between atoms: C2_2  and  C3_3 
REMARK    2  A    between atoms: C3_3  and  C4_4 
REMARK    3  A    between atoms: C5_7  and  C6_8 
REMARK    4  A    between atoms: C6_8  and  C7_9 
REMARK    5  A    between atoms: C7_9  and  C8_10 
ROOT
HETATM    1  C4  UNL     1      21.483  84.280  25.222  1.00  0.00     0.050 A 
HETATM    2  N1  UNL     1      20.817  84.688  26.335  1.00  0.00    -0.336 N 
ATOM      3  H1  UNL     1      20.115  84.134  26.825  1.00  0.00     0.168 HD
HETATM    4  C5  UNL     1      21.209  85.917  26.702  1.00  0.00     0.163 A 
HETATM    5  N2  UNL     1      22.132  86.305  25.821  1.00  0.00    -0.324 N 
ATOM      6  H2  UNL     1      22.621  87.200  25.834  1.00  0.00     0.169 HD
HETATM    7  C10 UNL     1      22.322  85.315  24.896  1.00  0.00     0.128 A 
HETATM    8 CL2  UNL     1      23.448  85.481  23.556  1.00  0.00    -0.062 Cl
ENDROOT
BRANCH   4   9
HETATM    9  C6  UNL     1      20.738  86.697  27.825  1.00  0.00    -0.029 C 
BRANCH   9  10
HETATM   10  C7  UNL     1      20.330  87.360  28.756  1.00  0.00    -0.078 C 
BRANCH  10  11
HETATM   11  C8  UNL     1      19.818  88.165  29.863  1.00  0.00     0.157 C 
HETATM   12  C9  UNL     1      20.685  87.883  31.070  1.00  0.00     0.040 C 
HETATM   13 CL1  UNL     1      18.118  87.826  30.210  1.00  0.00    -0.112 Cl
ENDBRANCH  10  11
ENDBRANCH   9  10
ENDBRANCH   4   9
BRANCH   1  14
HETATM   14  C3  UNL     1      21.346  82.991  24.537  1.00  0.00     0.060 C 
BRANCH  14  15
HETATM   15  C2  UNL     1      20.861  83.035  23.139  1.00  0.00     0.002 C 
HETATM   16  C1  UNL     1      21.546  82.169  22.144  1.00  0.00     0.005 C 
ENDBRANCH  14  15
ENDBRANCH   1  14
TORSDOF 5
ENDMDL
