MODEL 1
REMARK VINA RESULT: -6.606973706      0.000      0.000
REMARK  2 active torsions:
REMARK  status: ('A' for Active; 'I' for Inactive)
REMARK       I    between atoms: C1_2  and  N2_4 
REMARK    1  A    between atoms: N2_4  and  C2_6 
REMARK    2  A    between atoms: C3_9  and  C4_10 
ROOT
HETATM    1  C2  UNL     1      29.554  65.430  10.189  1.00  0.00     0.234 A 
HETATM    2  N3  UNL     1      30.716  66.037   9.921  1.00  0.00    -0.314 N 
ATOM      3  H3  UNL     1      31.400  66.342  10.614  1.00  0.00     0.170 HD
HETATM    4  C3  UNL     1      30.836  66.182   8.592  1.00  0.00     0.149 A 
HETATM    5  C5  UNL     1      29.696  65.639   8.032  1.00  0.00     0.192 A 
HETATM    6  N5  UNL     1      29.425  65.589   6.650  1.00  0.00    -0.072 NA
HETATM    7  O3  UNL     1      28.976  65.208   9.035  1.00  0.00    -0.262 OA
ENDROOT
BRANCH   1   8
HETATM    8  N2  UNL     1      29.083  65.114  11.374  1.00  0.00    -0.276 N 
HETATM    9  C1  UNL     1      28.935  63.770  11.770  1.00  0.00     0.335 C 
HETATM   10  N1  UNL     1      28.344  62.852  10.862  1.00  0.00    -0.040 NA
HETATM   11  O1  UNL     1      29.339  63.449  12.916  1.00  0.00    -0.251 OA
ATOM     12  H2  UNL     1      28.817  65.857  12.020  1.00  0.00     0.173 HD
ENDBRANCH   1   8
BRANCH   4  13
HETATM   13  C4  UNL     1      31.937  66.788   7.881  1.00  0.00     0.285 C 
HETATM   14  N4  UNL     1      33.261  66.543   8.309  1.00  0.00    -0.056 NA
HETATM   15  O2  UNL     1      31.709  67.519   6.897  1.00  0.00    -0.269 OA
ENDBRANCH   4  13
TORSDOF 2
ENDMDL
MODEL 2
REMARK VINA RESULT: -6.517060998      1.341      5.184
REMARK  2 active torsions:
REMARK  status: ('A' for Active; 'I' for Inactive)
REMARK       I    between atoms: C1_2  and  N2_4 
REMARK    1  A    between atoms: N2_4  and  C2_6 
REMARK    2  A    between atoms: C3_9  and  C4_10 
ROOT
HETATM    1  C2  UNL     1      30.186  65.345   9.592  1.00  0.00     0.234 A 
HETATM    2  N3  UNL     1      29.852  64.096   9.937  1.00  0.00    -0.314 N 
ATOM      3  H3  UNL     1      30.238  63.245   9.530  1.00  0.00     0.170 HD
HETATM    4  C3  UNL     1      28.926  64.145  10.908  1.00  0.00     0.149 A 
HETATM    5  C5  UNL     1      28.690  65.483  11.159  1.00  0.00     0.192 A 
HETATM    6  N5  UNL     1      27.777  65.972  12.116  1.00  0.00    -0.072 NA
HETATM    7  O3  UNL     1      29.471  66.143  10.345  1.00  0.00    -0.262 OA
ENDROOT
BRANCH   1   8
HETATM    8  N2  UNL     1      31.060  65.706   8.680  1.00  0.00    -0.276 N 
HETATM    9  C1  UNL     1      30.654  66.085   7.385  1.00  0.00     0.335 C 
HETATM   10  N1  UNL     1      29.697  65.282   6.707  1.00  0.00    -0.040 NA
HETATM   11  O1  UNL     1      31.162  67.122   6.891  1.00  0.00    -0.251 OA
ATOM     12  H2  UNL     1      32.053  65.711   8.913  1.00  0.00     0.173 HD
ENDBRANCH   1   8
BRANCH   4  13
HETATM   13  C4  UNL     1      28.294  63.024  11.563  1.00  0.00     0.285 C 
HETATM   14  N4  UNL     1      27.397  62.210  10.836  1.00  0.00    -0.056 NA
HETATM   15  O2  UNL     1      28.548  62.786  12.760  1.00  0.00    -0.269 OA
ENDBRANCH   4  13
TORSDOF 2
ENDMDL
MODEL 3
REMARK VINA RESULT: -6.301925140      0.916      1.248
REMARK  2 active torsions:
REMARK  status: ('A' for Active; 'I' for Inactive)
REMARK       I    between atoms: C1_2  and  N2_4 
REMARK    1  A    between atoms: N2_4  and  C2_6 
REMARK    2  A    between atoms: C3_9  and  C4_10 
ROOT
HETATM    1  C2  UNL     1      29.785  64.841  10.117  1.00  0.00     0.234 A 
HETATM    2  N3  UNL     1      30.977  65.300   9.716  1.00  0.00    -0.314 N 
ATOM      3  H3  UNL     1      31.866  65.132  10.187  1.00  0.00     0.170 HD
HETATM    4  C3  UNL     1      30.812  66.019   8.595  1.00  0.00     0.149 A 
HETATM    5  C5  UNL     1      29.461  65.993   8.306  1.00  0.00     0.192 A 
HETATM    6  N5  UNL     1      28.864  66.632   7.200  1.00  0.00    -0.072 NA
HETATM    7  O3  UNL     1      28.907  65.277   9.248  1.00  0.00    -0.262 OA
ENDROOT
BRANCH   1   8
HETATM    8  N2  UNL     1      29.539  64.099  11.173  1.00  0.00    -0.276 N 
HETATM    9  C1  UNL     1      28.648  64.526  12.178  1.00  0.00     0.335 C 
HETATM   10  N1  UNL     1      28.751  65.859  12.659  1.00  0.00    -0.040 NA
HETATM   11  O1  UNL     1      27.802  63.700  12.601  1.00  0.00    -0.251 OA
ATOM     12  H2  UNL     1      30.002  63.195  11.267  1.00  0.00     0.173 HD
ENDBRANCH   1   8
BRANCH   4  13
HETATM   13  C4  UNL     1      31.840  66.691   7.836  1.00  0.00     0.285 C 
HETATM   14  N4  UNL     1      33.185  66.605   8.259  1.00  0.00    -0.056 NA
HETATM   15  O2  UNL     1      31.531  67.338   6.816  1.00  0.00    -0.269 OA
ENDBRANCH   4  13
TORSDOF 2
ENDMDL
MODEL 4
REMARK VINA RESULT: -6.281980013      1.990      5.107
REMARK  2 active torsions:
REMARK  status: ('A' for Active; 'I' for Inactive)
REMARK       I    between atoms: C1_2  and  N2_4 
REMARK    1  A    between atoms: N2_4  and  C2_6 
REMARK    2  A    between atoms: C3_9  and  C4_10 
ROOT
HETATM    1  C2  UNL     1      29.926  65.126   9.202  1.00  0.00     0.234 A 
HETATM    2  N3  UNL     1      28.860  65.857   9.551  1.00  0.00    -0.314 N 
ATOM      3  H3  UNL     1      28.538  66.701   9.075  1.00  0.00     0.170 HD
HETATM    4  C3  UNL     1      28.283  65.301  10.627  1.00  0.00     0.149 A 
HETATM    5  C5  UNL     1      29.033  64.185  10.943  1.00  0.00     0.192 A 
HETATM    6  N5  UNL     1      28.763  63.314  12.018  1.00  0.00    -0.072 NA
HETATM    7  O3  UNL     1      29.994  64.138  10.058  1.00  0.00    -0.262 OA
ENDROOT
BRANCH   1   8
HETATM    8  N2  UNL     1      30.745  65.351   8.200  1.00  0.00    -0.276 N 
HETATM    9  C1  UNL     1      30.310  66.004   7.030  1.00  0.00     0.335 C 
HETATM   10  N1  UNL     1      29.081  65.603   6.441  1.00  0.00    -0.040 NA
HETATM   11  O1  UNL     1      31.036  66.916   6.563  1.00  0.00    -0.251 OA
ATOM     12  H2  UNL     1      31.716  65.046   8.270  1.00  0.00     0.173 HD
ENDBRANCH   1   8
BRANCH   4  13
HETATM   13  C4  UNL     1      27.109  65.773  11.324  1.00  0.00     0.285 C 
HETATM   14  N4  UNL     1      25.855  65.183  11.050  1.00  0.00    -0.056 NA
HETATM   15  O2  UNL     1      27.215  66.692  12.158  1.00  0.00    -0.269 OA
ENDBRANCH   4  13
TORSDOF 2
ENDMDL
MODEL 5
REMARK VINA RESULT: -6.247433337      1.325      1.792
REMARK  2 active torsions:
REMARK  status: ('A' for Active; 'I' for Inactive)
REMARK       I    between atoms: C1_2  and  N2_4 
REMARK    1  A    between atoms: N2_4  and  C2_6 
REMARK    2  A    between atoms: C3_9  and  C4_10 
ROOT
HETATM    1  C2  UNL     1      29.674  65.503  10.309  1.00  0.00     0.234 A 
HETATM    2  N3  UNL     1      30.799  66.140   9.965  1.00  0.00    -0.314 N 
ATOM      3  H3  UNL     1      31.487  66.522  10.615  1.00  0.00     0.170 HD
HETATM    4  C3  UNL     1      30.877  66.196   8.626  1.00  0.00     0.149 A 
HETATM    5  C5  UNL     1      29.748  65.565   8.140  1.00  0.00     0.192 A 
HETATM    6  N5  UNL     1      29.443  65.406   6.773  1.00  0.00    -0.072 NA
HETATM    7  O3  UNL     1      29.075  65.176   9.191  1.00  0.00    -0.262 OA
ENDROOT
BRANCH   1   8
HETATM    8  N2  UNL     1      29.248  65.252  11.526  1.00  0.00    -0.276 N 
HETATM    9  C1  UNL     1      28.739  66.275  12.351  1.00  0.00     0.335 C 
HETATM   10  N1  UNL     1      29.452  67.500  12.436  1.00  0.00    -0.040 NA
HETATM   11  O1  UNL     1      27.671  66.050  12.973  1.00  0.00    -0.251 OA
ATOM     12  H2  UNL     1      29.287  64.297  11.882  1.00  0.00     0.173 HD
ENDBRANCH   1   8
BRANCH   4  13
HETATM   13  C4  UNL     1      31.930  66.797   7.842  1.00  0.00     0.285 C 
HETATM   14  N4  UNL     1      33.278  66.567   8.196  1.00  0.00    -0.056 NA
HETATM   15  O2  UNL     1      31.639  67.511   6.862  1.00  0.00    -0.269 OA
ENDBRANCH   4  13
TORSDOF 2
ENDMDL
