MODEL 1
REMARK VINA RESULT: -6.783192981      0.000      0.000
REMARK  2 active torsions:
REMARK  status: ('A' for Active; 'I' for Inactive)
REMARK    1  A    between atoms: N1_1  and  C1_5 
REMARK    2  A    between atoms: C1_5  and  C2_6 
REMARK       I    between atoms: C2_6  and  N2_8 
ROOT
HETATM    1  C2  UNL     1      29.064  63.898  11.037  1.00  0.00     0.247 C 
HETATM    2  O1  UNL     1      28.537  62.846  10.609  1.00  0.00    -0.271 OA
HETATM    3  N2  UNL     1      30.012  64.568  10.243  1.00  0.00    -0.321 N 
ATOM      4  H2  UNL     1      30.992  64.352  10.427  1.00  0.00     0.169 HD
HETATM    5  C3  UNL     1      29.783  65.416   9.320  1.00  0.00     0.108 A 
HETATM    6  C4  UNL     1      30.903  65.947   8.669  1.00  0.00     0.082 A 
HETATM    7  C5  UNL     1      30.682  66.865   7.670  1.00  0.00     0.133 A 
HETATM    8  N3  UNL     1      31.786  67.456   6.953  1.00  0.00    -0.081 NA
HETATM    9  N4  UNL     1      29.419  67.205   7.366  1.00  0.00    -0.285 N 
ATOM     10  H4  UNL     1      29.265  67.887   6.623  1.00  0.00     0.188 HD
HETATM   11  N5  UNL     1      28.368  66.700   7.985  1.00  0.00    -0.263 N 
ATOM     12  H5  UNL     1      27.433  67.000   7.706  1.00  0.00     0.190 HD
HETATM   13  C6  UNL     1      28.503  65.788   8.984  1.00  0.00     0.286 A 
HETATM   14  O2  UNL     1      27.496  65.312   9.567  1.00  0.00    -0.264 OA
ENDROOT
BRANCH   1  15
HETATM   15  C1  UNL     1      28.709  64.446  12.362  1.00  0.00     0.332 C 
BRANCH  15  16
HETATM   16  N1  UNL     1      29.408  63.736  13.435  1.00  0.00    -0.071 N 
ATOM     17  H13 UNL     1      28.828  63.654  14.270  1.00  0.00     0.274 HD
ATOM     18  H12 UNL     1      29.516  62.745  13.220  1.00  0.00     0.274 HD
ATOM     19  H11 UNL     1      30.306  64.174  13.645  1.00  0.00     0.274 HD
ENDBRANCH  15  16
ENDBRANCH   1  15
TORSDOF 2
ENDMDL
MODEL 2
REMARK VINA RESULT: -6.387348504      1.785      2.376
REMARK  2 active torsions:
REMARK  status: ('A' for Active; 'I' for Inactive)
REMARK    1  A    between atoms: N1_1  and  C1_5 
REMARK    2  A    between atoms: C1_5  and  C2_6 
REMARK       I    between atoms: C2_6  and  N2_8 
ROOT
HETATM    1  C2  UNL     1      27.598  65.239  10.203  1.00  0.00     0.247 C 
HETATM    2  O1  UNL     1      27.191  64.103   9.869  1.00  0.00    -0.271 OA
HETATM    3  N2  UNL     1      28.968  65.542  10.094  1.00  0.00    -0.321 N 
ATOM      4  H2  UNL     1      29.528  65.416  10.938  1.00  0.00     0.169 HD
HETATM    5  C3  UNL     1      29.586  65.955   9.060  1.00  0.00     0.108 A 
HETATM    6  C4  UNL     1      30.959  66.186   9.205  1.00  0.00     0.082 A 
HETATM    7  C5  UNL     1      31.648  66.634   8.103  1.00  0.00     0.133 A 
HETATM    8  N3  UNL     1      33.066  66.895   8.175  1.00  0.00    -0.081 NA
HETATM    9  N4  UNL     1      30.983  66.825   6.952  1.00  0.00    -0.285 N 
ATOM     10  H4  UNL     1      31.503  67.157   6.140  1.00  0.00     0.188 HD
HETATM   11  N5  UNL     1      29.688  66.604   6.823  1.00  0.00    -0.263 N 
ATOM     12  H5  UNL     1      29.241  66.769   5.921  1.00  0.00     0.190 HD
HETATM   13  C6  UNL     1      28.937  66.162   7.867  1.00  0.00     0.286 A 
HETATM   14  O2  UNL     1      27.703  65.955   7.733  1.00  0.00    -0.264 OA
ENDROOT
BRANCH   1  15
HETATM   15  C1  UNL     1      26.666  66.266  10.710  1.00  0.00     0.332 C 
BRANCH  15  16
HETATM   16  N1  UNL     1      25.579  66.514   9.760  1.00  0.00    -0.071 N 
ATOM     17  H13 UNL     1      25.514  67.502   9.514  1.00  0.00     0.274 HD
ATOM     18  H12 UNL     1      25.796  66.137   8.837  1.00  0.00     0.274 HD
ATOM     19  H11 UNL     1      24.691  66.157  10.111  1.00  0.00     0.274 HD
ENDBRANCH  15  16
ENDBRANCH   1  15
TORSDOF 2
ENDMDL
MODEL 3
REMARK VINA RESULT: -6.361884306      1.969      2.582
REMARK  2 active torsions:
REMARK  status: ('A' for Active; 'I' for Inactive)
REMARK    1  A    between atoms: N1_1  and  C1_5 
REMARK    2  A    between atoms: C1_5  and  C2_6 
REMARK       I    between atoms: C2_6  and  N2_8 
ROOT
HETATM    1  C2  UNL     1      26.900  64.943  10.770  1.00  0.00     0.247 C 
HETATM    2  O1  UNL     1      26.845  65.427  11.924  1.00  0.00    -0.271 OA
HETATM    3  N2  UNL     1      27.586  65.640   9.760  1.00  0.00    -0.321 N 
ATOM      4  H2  UNL     1      27.021  66.243   9.161  1.00  0.00     0.169 HD
HETATM    5  C3  UNL     1      28.834  65.602   9.509  1.00  0.00     0.108 A 
HETATM    6  C4  UNL     1      29.281  66.393   8.443  1.00  0.00     0.082 A 
HETATM    7  C5  UNL     1      30.623  66.368   8.152  1.00  0.00     0.133 A 
HETATM    8  N3  UNL     1      31.159  67.157   7.068  1.00  0.00    -0.081 NA
HETATM    9  N4  UNL     1      31.437  65.598   8.893  1.00  0.00    -0.285 N 
ATOM     10  H4  UNL     1      32.432  65.587   8.670  1.00  0.00     0.188 HD
HETATM   11  N5  UNL     1      31.008  64.855   9.897  1.00  0.00    -0.263 N 
ATOM     12  H5  UNL     1      31.677  64.292  10.422  1.00  0.00     0.190 HD
HETATM   13  C6  UNL     1      29.695  64.825  10.246  1.00  0.00     0.286 A 
HETATM   14  O2  UNL     1      29.297  64.114  11.205  1.00  0.00    -0.264 OA
ENDROOT
BRANCH   1  15
HETATM   15  C1  UNL     1      26.254  63.653  10.452  1.00  0.00     0.332 C 
BRANCH  15  16
HETATM   16  N1  UNL     1      26.814  62.565  11.258  1.00  0.00    -0.071 N 
ATOM     17  H13 UNL     1      26.614  61.653  10.847  1.00  0.00     0.274 HD
ATOM     18  H12 UNL     1      27.832  62.543  11.200  1.00  0.00     0.274 HD
ATOM     19  H11 UNL     1      26.494  62.618  12.225  1.00  0.00     0.274 HD
ENDBRANCH  15  16
ENDBRANCH   1  15
TORSDOF 2
ENDMDL
MODEL 4
REMARK VINA RESULT: -6.332391666      1.932      3.337
REMARK  2 active torsions:
REMARK  status: ('A' for Active; 'I' for Inactive)
REMARK    1  A    between atoms: N1_1  and  C1_5 
REMARK    2  A    between atoms: C1_5  and  C2_6 
REMARK       I    between atoms: C2_6  and  N2_8 
ROOT
HETATM    1  C2  UNL     1      26.443  65.854   9.181  1.00  0.00     0.247 C 
HETATM    2  O1  UNL     1      25.940  66.276  10.247  1.00  0.00    -0.271 OA
HETATM    3  N2  UNL     1      27.703  66.332   8.774  1.00  0.00    -0.321 N 
ATOM      4  H2  UNL     1      27.701  67.114   8.119  1.00  0.00     0.169 HD
HETATM    5  C3  UNL     1      28.844  65.896   9.133  1.00  0.00     0.108 A 
HETATM    6  C4  UNL     1      29.959  66.543   8.587  1.00  0.00     0.082 A 
HETATM    7  C5  UNL     1      31.203  66.090   8.958  1.00  0.00     0.133 A 
HETATM    8  N3  UNL     1      32.399  66.707   8.436  1.00  0.00    -0.081 NA
HETATM    9  N4  UNL     1      31.292  65.062   9.817  1.00  0.00    -0.285 N 
ATOM     10  H4  UNL     1      32.219  64.733  10.087  1.00  0.00     0.188 HD
HETATM   11  N5  UNL     1      30.236  64.457  10.328  1.00  0.00    -0.263 N 
ATOM     12  H5  UNL     1      30.371  63.681  10.977  1.00  0.00     0.190 HD
HETATM   13  C6  UNL     1      28.972  64.845  10.010  1.00  0.00     0.286 A 
HETATM   14  O2  UNL     1      27.973  64.262  10.503  1.00  0.00    -0.264 OA
ENDROOT
BRANCH   1  15
HETATM   15  C1  UNL     1      25.737  64.865   8.341  1.00  0.00     0.332 C 
BRANCH  15  16
HETATM   16  N1  UNL     1      25.257  63.736   9.140  1.00  0.00    -0.071 N 
ATOM     17  H13 UNL     1      24.609  63.151   8.612  1.00  0.00     0.274 HD
ATOM     18  H12 UNL     1      25.995  63.049   9.299  1.00  0.00     0.274 HD
ATOM     19  H11 UNL     1      24.844  64.052  10.018  1.00  0.00     0.274 HD
ENDBRANCH  15  16
ENDBRANCH   1  15
TORSDOF 2
ENDMDL
MODEL 5
REMARK VINA RESULT: -6.026263710      1.813      4.834
REMARK  2 active torsions:
REMARK  status: ('A' for Active; 'I' for Inactive)
REMARK    1  A    between atoms: N1_1  and  C1_5 
REMARK    2  A    between atoms: C1_5  and  C2_6 
REMARK       I    between atoms: C2_6  and  N2_8 
ROOT
HETATM    1  C2  UNL     1      29.217  66.333   8.218  1.00  0.00     0.247 C 
HETATM    2  O1  UNL     1      28.433  65.673   7.498  1.00  0.00    -0.271 OA
HETATM    3  N2  UNL     1      28.818  66.705   9.514  1.00  0.00    -0.321 N 
ATOM      4  H2  UNL     1      28.412  67.636   9.614  1.00  0.00     0.169 HD
HETATM    5  C3  UNL     1      28.908  66.009  10.577  1.00  0.00     0.108 A 
HETATM    6  C4  UNL     1      28.438  66.604  11.754  1.00  0.00     0.082 A 
HETATM    7  C5  UNL     1      28.525  65.874  12.915  1.00  0.00     0.133 A 
HETATM    8  N3  UNL     1      28.061  66.420  14.168  1.00  0.00    -0.081 NA
HETATM    9  N4  UNL     1      29.048  64.638  12.869  1.00  0.00    -0.285 N 
ATOM     10  H4  UNL     1      29.108  64.103  13.736  1.00  0.00     0.188 HD
HETATM   11  N5  UNL     1      29.489  64.083  11.755  1.00  0.00    -0.263 N 
ATOM     12  H5  UNL     1      29.876  63.139  11.787  1.00  0.00     0.190 HD
HETATM   13  C6  UNL     1      29.439  64.741  10.567  1.00  0.00     0.286 A 
HETATM   14  O2  UNL     1      29.861  64.204   9.511  1.00  0.00    -0.264 OA
ENDROOT
BRANCH   1  15
HETATM   15  C1  UNL     1      30.553  66.729   7.728  1.00  0.00     0.332 C 
BRANCH  15  16
HETATM   16  N1  UNL     1      31.279  65.582   7.178  1.00  0.00    -0.071 N 
ATOM     17  H13 UNL     1      32.227  65.836   6.899  1.00  0.00     0.274 HD
ATOM     18  H12 UNL     1      31.506  64.900   7.902  1.00  0.00     0.274 HD
ATOM     19  H11 UNL     1      30.765  65.154   6.407  1.00  0.00     0.274 HD
ENDBRANCH  15  16
ENDBRANCH   1  15
TORSDOF 2
ENDMDL
