MODEL 1
REMARK VINA RESULT: -6.750366606      0.000      0.000
REMARK  5 active torsions:
REMARK  status: ('A' for Active; 'I' for Inactive)
REMARK    1  A    between atoms: N2_4  and  N3_6 
REMARK    2  A    between atoms: C1_8  and  N4_9 
REMARK    3  A    between atoms: N4_9  and  C2_11 
REMARK    4  A    between atoms: C2_11  and  N5_13 
REMARK       I    between atoms: N5_13  and  C3_15 
REMARK       I    between atoms: C3_15  and  N6_17 
REMARK    5  A    between atoms: N6_17  and  N7_19 
ROOT
HETATM    1  C2  UNL     1      29.511  66.736   7.979  1.00  0.00     0.180 C 
HETATM    2  S1  UNL     1      28.433  66.358   6.815  1.00  0.00    -0.040 SA
ENDROOT
BRANCH   1   3
HETATM    3  N4  UNL     1      30.807  67.247   7.607  1.00  0.00    -0.328 N 
ATOM      4  H4  UNL     1      31.111  68.172   7.908  1.00  0.00     0.169 HD
BRANCH   3   5
HETATM    5  C1  UNL     1      31.645  66.430   6.815  1.00  0.00     0.201 C 
HETATM    6  N3  UNL     1      32.833  66.051   7.196  1.00  0.00    -0.282 N 
ATOM      7  H3  UNL     1      33.420  65.461   6.606  1.00  0.00     0.189 HD
BRANCH   6   8
HETATM    8  N2  UNL     1      33.262  66.488   8.439  1.00  0.00    -0.248 N 
HETATM    9  N1  UNL     1      32.966  65.941   9.534  1.00  0.00    -0.331 N 
ATOM     10  H12 UNL     1      32.366  65.117   9.485  1.00  0.00     0.178 HD
ATOM     11  H11 UNL     1      33.281  66.262  10.450  1.00  0.00     0.178 HD
ATOM     12  H2  UNL     1      33.860  67.313   8.470  1.00  0.00     0.207 HD
ENDBRANCH   6   8
ENDBRANCH   3   5
ENDBRANCH   1   3
BRANCH   1  13
HETATM   13  N5  UNL     1      29.161  66.560   9.337  1.00  0.00    -0.284 N 
HETATM   14  C3  UNL     1      29.529  65.395  10.038  1.00  0.00     0.340 C 
HETATM   15  O1  UNL     1      30.169  64.505   9.466  1.00  0.00    -0.245 OA
HETATM   16  N6  UNL     1      29.168  65.230  11.411  1.00  0.00    -0.258 N 
ATOM     17  H6  UNL     1      28.641  65.945  11.911  1.00  0.00     0.191 HD
ATOM     18  H5  UNL     1      28.633  67.288   9.817  1.00  0.00     0.173 HD
BRANCH  16  19
HETATM   19  N7  UNL     1      29.567  64.051  12.039  1.00  0.00    -0.341 N 
ATOM     20  H72 UNL     1      30.092  63.344  11.525  1.00  0.00     0.177 HD
ATOM     21  H71 UNL     1      29.311  63.934  13.020  1.00  0.00     0.177 HD
ENDBRANCH  16  19
ENDBRANCH   1  13
TORSDOF 5
ENDMDL
MODEL 2
REMARK VINA RESULT: -6.387749017      1.114      1.253
REMARK  5 active torsions:
REMARK  status: ('A' for Active; 'I' for Inactive)
REMARK    1  A    between atoms: N2_4  and  N3_6 
REMARK    2  A    between atoms: C1_8  and  N4_9 
REMARK    3  A    between atoms: N4_9  and  C2_11 
REMARK    4  A    between atoms: C2_11  and  N5_13 
REMARK       I    between atoms: N5_13  and  C3_15 
REMARK       I    between atoms: C3_15  and  N6_17 
REMARK    5  A    between atoms: N6_17  and  N7_19 
ROOT
HETATM    1  C2  UNL     1      29.095  65.813   8.585  1.00  0.00     0.180 C 
HETATM    2  S1  UNL     1      27.698  66.030   7.771  1.00  0.00    -0.040 SA
ENDROOT
BRANCH   1   3
HETATM    3  N4  UNL     1      30.314  65.579   7.852  1.00  0.00    -0.328 N 
ATOM      4  H4  UNL     1      30.903  64.772   8.059  1.00  0.00     0.169 HD
BRANCH   3   5
HETATM    5  C1  UNL     1      30.672  66.496   6.839  1.00  0.00     0.201 C 
HETATM    6  N3  UNL     1      31.908  66.814   6.572  1.00  0.00    -0.282 N 
ATOM      7  H3  UNL     1      32.142  67.479   5.835  1.00  0.00     0.189 HD
BRANCH   6   8
HETATM    8  N2  UNL     1      32.890  66.204   7.337  1.00  0.00    -0.248 N 
HETATM    9  N1  UNL     1      33.572  66.784   8.223  1.00  0.00    -0.331 N 
ATOM     10  H12 UNL     1      33.376  67.773   8.377  1.00  0.00     0.178 HD
ATOM     11  H11 UNL     1      34.295  66.335   8.787  1.00  0.00     0.178 HD
ATOM     12  H2  UNL     1      33.073  65.215   7.170  1.00  0.00     0.207 HD
ENDBRANCH   6   8
ENDBRANCH   3   5
ENDBRANCH   1   3
BRANCH   1  13
HETATM   13  N5  UNL     1      29.093  65.858   9.998  1.00  0.00    -0.284 N 
HETATM   14  C3  UNL     1      29.259  64.687  10.763  1.00  0.00     0.340 C 
HETATM   15  O1  UNL     1      29.410  63.596  10.201  1.00  0.00    -0.245 OA
HETATM   16  N6  UNL     1      29.254  64.747  12.191  1.00  0.00    -0.258 N 
ATOM     17  H6  UNL     1      29.132  65.631  12.685  1.00  0.00     0.191 HD
ATOM     18  H5  UNL     1      28.969  66.753  10.470  1.00  0.00     0.173 HD
BRANCH  16  19
HETATM   19  N7  UNL     1      29.424  63.548  12.882  1.00  0.00    -0.341 N 
ATOM     20  H72 UNL     1      30.344  63.280  13.233  1.00  0.00     0.177 HD
ATOM     21  H71 UNL     1      28.598  62.964  13.014  1.00  0.00     0.177 HD
ENDBRANCH  16  19
ENDBRANCH   1  13
TORSDOF 5
ENDMDL
MODEL 3
REMARK VINA RESULT: -6.078804352      1.664      2.265
REMARK  5 active torsions:
REMARK  status: ('A' for Active; 'I' for Inactive)
REMARK    1  A    between atoms: N2_4  and  N3_6 
REMARK    2  A    between atoms: C1_8  and  N4_9 
REMARK    3  A    between atoms: N4_9  and  C2_11 
REMARK    4  A    between atoms: C2_11  and  N5_13 
REMARK       I    between atoms: N5_13  and  C3_15 
REMARK       I    between atoms: C3_15  and  N6_17 
REMARK    5  A    between atoms: N6_17  and  N7_19 
ROOT
HETATM    1  C2  UNL     1      30.205  65.781   9.838  1.00  0.00     0.180 C 
HETATM    2  S1  UNL     1      29.318  66.722   8.844  1.00  0.00    -0.040 SA
ENDROOT
BRANCH   1   3
HETATM    3  N4  UNL     1      31.522  65.360   9.429  1.00  0.00    -0.328 N 
ATOM      4  H4  UNL     1      31.692  64.405   9.117  1.00  0.00     0.169 HD
BRANCH   3   5
HETATM    5  C1  UNL     1      32.570  66.306   9.474  1.00  0.00     0.201 C 
HETATM    6  N3  UNL     1      33.154  66.770   8.404  1.00  0.00    -0.282 N 
ATOM      7  H3  UNL     1      33.909  67.454   8.462  1.00  0.00     0.189 HD
BRANCH   6   8
HETATM    8  N2  UNL     1      32.700  66.291   7.186  1.00  0.00    -0.248 N 
HETATM    9  N1  UNL     1      31.942  66.923   6.403  1.00  0.00    -0.331 N 
ATOM     10  H12 UNL     1      31.649  67.853   6.702  1.00  0.00     0.178 HD
ATOM     11  H11 UNL     1      31.608  66.570   5.505  1.00  0.00     0.178 HD
ATOM     12  H2  UNL     1      33.003  65.360   6.902  1.00  0.00     0.207 HD
ENDBRANCH   6   8
ENDBRANCH   3   5
ENDBRANCH   1   3
BRANCH   1  13
HETATM   13  N5  UNL     1      29.672  65.390  11.087  1.00  0.00    -0.284 N 
HETATM   14  C3  UNL     1      29.126  64.106  11.276  1.00  0.00     0.340 C 
HETATM   15  O1  UNL     1      29.107  63.297  10.340  1.00  0.00    -0.245 OA
HETATM   16  N6  UNL     1      28.589  63.724  12.545  1.00  0.00    -0.258 N 
ATOM     17  H6  UNL     1      28.590  64.367  13.336  1.00  0.00     0.191 HD
ATOM     18  H5  UNL     1      29.682  66.050  11.865  1.00  0.00     0.173 HD
BRANCH  16  19
HETATM   19  N7  UNL     1      28.066  62.437  12.657  1.00  0.00    -0.341 N 
ATOM     20  H72 UNL     1      27.231  62.172  12.134  1.00  0.00     0.177 HD
ATOM     21  H71 UNL     1      28.551  61.787  13.276  1.00  0.00     0.177 HD
ENDBRANCH  16  19
ENDBRANCH   1  13
TORSDOF 5
ENDMDL
MODEL 4
REMARK VINA RESULT: -5.867156967      1.794      3.980
REMARK  5 active torsions:
REMARK  status: ('A' for Active; 'I' for Inactive)
REMARK    1  A    between atoms: N2_4  and  N3_6 
REMARK    2  A    between atoms: C1_8  and  N4_9 
REMARK    3  A    between atoms: N4_9  and  C2_11 
REMARK    4  A    between atoms: C2_11  and  N5_13 
REMARK       I    between atoms: N5_13  and  C3_15 
REMARK       I    between atoms: C3_15  and  N6_17 
REMARK    5  A    between atoms: N6_17  and  N7_19 
ROOT
HETATM    1  C2  UNL     1      27.430  65.706   8.855  1.00  0.00     0.180 C 
HETATM    2  S1  UNL     1      25.906  65.657   8.275  1.00  0.00    -0.040 SA
ENDROOT
BRANCH   1   3
HETATM    3  N4  UNL     1      27.835  64.760   9.864  1.00  0.00    -0.328 N 
ATOM      4  H4  UNL     1      27.700  63.759   9.727  1.00  0.00     0.169 HD
BRANCH   3   5
HETATM    5  C1  UNL     1      28.425  65.257  11.048  1.00  0.00     0.201 C 
HETATM    6  N3  UNL     1      29.698  65.150  11.306  1.00  0.00    -0.282 N 
ATOM      7  H3  UNL     1      30.101  65.517  12.168  1.00  0.00     0.189 HD
BRANCH   6   8
HETATM    8  N2  UNL     1      30.479  64.515  10.354  1.00  0.00    -0.248 N 
HETATM    9  N1  UNL     1      31.592  64.937   9.940  1.00  0.00    -0.331 N 
ATOM     10  H12 UNL     1      31.928  65.811  10.344  1.00  0.00     0.178 HD
ATOM     11  H11 UNL     1      32.167  64.469   9.239  1.00  0.00     0.178 HD
ATOM     12  H2  UNL     1      30.128  63.642   9.960  1.00  0.00     0.207 HD
ENDBRANCH   6   8
ENDBRANCH   3   5
ENDBRANCH   1   3
BRANCH   1  13
HETATM   13  N5  UNL     1      28.332  66.674   8.361  1.00  0.00    -0.284 N 
HETATM   14  C3  UNL     1      29.489  66.296   7.652  1.00  0.00     0.340 C 
HETATM   15  O1  UNL     1      29.730  65.099   7.453  1.00  0.00    -0.245 OA
HETATM   16  N6  UNL     1      30.395  67.286   7.158  1.00  0.00    -0.258 N 
ATOM     17  H6  UNL     1      30.225  68.280   7.305  1.00  0.00     0.191 HD
ATOM     18  H5  UNL     1      28.143  67.664   8.520  1.00  0.00     0.173 HD
BRANCH  16  19
HETATM   19  N7  UNL     1      31.518  66.836   6.466  1.00  0.00    -0.341 N 
ATOM     20  H72 UNL     1      31.496  65.945   5.970  1.00  0.00     0.177 HD
ATOM     21  H71 UNL     1      32.346  67.431   6.482  1.00  0.00     0.177 HD
ENDBRANCH  16  19
ENDBRANCH   1  13
TORSDOF 5
ENDMDL
MODEL 5
REMARK VINA RESULT: -5.843927346      1.860      2.176
REMARK  5 active torsions:
REMARK  status: ('A' for Active; 'I' for Inactive)
REMARK    1  A    between atoms: N2_4  and  N3_6 
REMARK    2  A    between atoms: C1_8  and  N4_9 
REMARK    3  A    between atoms: N4_9  and  C2_11 
REMARK    4  A    between atoms: C2_11  and  N5_13 
REMARK       I    between atoms: N5_13  and  C3_15 
REMARK       I    between atoms: C3_15  and  N6_17 
REMARK    5  A    between atoms: N6_17  and  N7_19 
ROOT
HETATM    1  C2  UNL     1      30.041  65.444   9.398  1.00  0.00     0.180 C 
HETATM    2  S1  UNL     1      29.561  66.955   9.781  1.00  0.00    -0.040 SA
ENDROOT
BRANCH   1   3
HETATM    3  N4  UNL     1      30.533  65.171   8.071  1.00  0.00    -0.328 N 
ATOM      4  H4  UNL     1      30.841  64.235   7.809  1.00  0.00     0.169 HD
BRANCH   3   5
HETATM    5  C1  UNL     1      30.578  66.235   7.143  1.00  0.00     0.201 C 
HETATM    6  N3  UNL     1      31.692  66.768   6.725  1.00  0.00    -0.282 N 
ATOM      7  H3  UNL     1      31.699  67.535   6.054  1.00  0.00     0.189 HD
BRANCH   6   8
HETATM    8  N2  UNL     1      32.868  66.242   7.237  1.00  0.00    -0.248 N 
HETATM    9  N1  UNL     1      33.513  66.732   8.202  1.00  0.00    -0.331 N 
ATOM     10  H12 UNL     1      33.130  67.577   8.625  1.00  0.00     0.178 HD
ATOM     11  H11 UNL     1      34.379  66.345   8.579  1.00  0.00     0.178 HD
ATOM     12  H2  UNL     1      33.237  65.397   6.802  1.00  0.00     0.207 HD
ENDBRANCH   6   8
ENDBRANCH   3   5
ENDBRANCH   1   3
BRANCH   1  13
HETATM   13  N5  UNL     1      29.969  64.422  10.372  1.00  0.00    -0.284 N 
HETATM   14  C3  UNL     1      28.731  63.882  10.770  1.00  0.00     0.340 C 
HETATM   15  O1  UNL     1      27.682  64.301  10.266  1.00  0.00    -0.245 OA
HETATM   16  N6  UNL     1      28.673  62.848  11.756  1.00  0.00    -0.258 N 
ATOM     17  H6  UNL     1      29.519  62.481  12.190  1.00  0.00     0.191 HD
ATOM     18  H5  UNL     1      30.829  64.070  10.793  1.00  0.00     0.173 HD
BRANCH  16  19
HETATM   19  N7  UNL     1      27.412  62.363  12.100  1.00  0.00    -0.341 N 
ATOM     20  H72 UNL     1      26.628  63.004  12.222  1.00  0.00     0.177 HD
ATOM     21  H71 UNL     1      27.316  61.354  12.220  1.00  0.00     0.177 HD
ENDBRANCH  16  19
ENDBRANCH   1  13
TORSDOF 5
ENDMDL
