MODEL 1
REMARK VINA RESULT: -7.799036178      0.000      0.000
REMARK  4 active torsions:
REMARK  status: ('A' for Active; 'I' for Inactive)
REMARK    1  A    between atoms: C1_2  and  C2_4 
REMARK    2  A    between atoms: C2_4  and  C3_5 
REMARK    3  A    between atoms: C3_5  and  C4_6 
REMARK    4  A    between atoms: C4_6  and  N2_7 
ROOT
HETATM    1  N2  UNL     1      31.347  65.725   9.553  1.00  0.00    -0.226 N 
ATOM      2  H2  UNL     1      32.184  65.246   9.884  1.00  0.00     0.177 HD
HETATM    3  C5  UNL     1      30.149  65.299   9.840  1.00  0.00     0.679 A 
HETATM    4  N3  UNL     1      29.834  64.208  10.586  1.00  0.00    -0.184 N 
ATOM      5  H3  UNL     1      30.516  63.583  11.017  1.00  0.00     0.184 HD
HETATM    6  C6  UNL     1      28.512  64.064  10.680  1.00  0.00     0.148 A 
HETATM    7  C7  UNL     1      27.946  65.095   9.972  1.00  0.00     0.137 A 
HETATM    8  N4  UNL     1      28.958  65.813   9.484  1.00  0.00    -0.185 N 
ATOM      9  H4  UNL     1      28.842  66.649   8.912  1.00  0.00     0.184 HD
HETATM   10  C8  UNL     1      26.504  65.273   9.845  1.00  0.00     0.269 A 
HETATM   11  O2  UNL     1      26.027  66.239   9.182  1.00  0.00    -0.280 OA
HETATM   12  C9  UNL     1      25.594  64.327  10.489  1.00  0.00     0.300 A 
HETATM   13  O3  UNL     1      24.345  64.462  10.392  1.00  0.00    -0.264 OA
HETATM   14  N5  UNL     1      26.192  63.264  11.220  1.00  0.00    -0.285 N 
ATOM     15  H5  UNL     1      25.589  62.585  11.684  1.00  0.00     0.172 HD
HETATM   16  C10 UNL     1      27.602  63.114  11.328  1.00  0.00     0.278 A 
HETATM   17  O4  UNL     1      28.123  62.154  11.987  1.00  0.00    -0.266 OA
ENDROOT
BRANCH   1  18
HETATM   18  C4  UNL     1      31.418  66.934   8.725  1.00  0.00     0.138 C 
BRANCH  18  19
HETATM   19  C3  UNL     1      32.147  66.701   7.451  1.00  0.00     0.029 C 
BRANCH  19  20
HETATM   20  C2  UNL     1      31.241  66.964   6.281  1.00  0.00     0.101 C 
BRANCH  20  21
HETATM   21  C1  UNL     1      29.872  66.476   6.422  1.00  0.00     0.231 C 
HETATM   22  N1  UNL     1      28.828  67.420   6.683  1.00  0.00    -0.062 NA
HETATM   23  O1  UNL     1      29.510  65.269   6.334  1.00  0.00    -0.277 OA
ENDBRANCH  20  21
ENDBRANCH  19  20
ENDBRANCH  18  19
ENDBRANCH   1  18
TORSDOF 4
ENDMDL
MODEL 2
REMARK VINA RESULT: -7.142098750      2.309      3.272
REMARK  4 active torsions:
REMARK  status: ('A' for Active; 'I' for Inactive)
REMARK    1  A    between atoms: C1_2  and  C2_4 
REMARK    2  A    between atoms: C2_4  and  C3_5 
REMARK    3  A    between atoms: C3_5  and  C4_6 
REMARK    4  A    between atoms: C4_6  and  N2_7 
ROOT
HETATM    1  N2  UNL     1      28.948  67.503   8.404  1.00  0.00    -0.226 N 
ATOM      2  H2  UNL     1      29.110  68.504   8.517  1.00  0.00     0.177 HD
HETATM    3  C5  UNL     1      28.858  66.700   9.426  1.00  0.00     0.679 A 
HETATM    4  N3  UNL     1      28.960  67.041  10.738  1.00  0.00    -0.184 N 
ATOM      5  H3  UNL     1      29.122  67.989  11.079  1.00  0.00     0.184 HD
HETATM    6  C6  UNL     1      28.819  65.970  11.519  1.00  0.00     0.148 A 
HETATM    7  C7  UNL     1      28.618  64.895  10.690  1.00  0.00     0.137 A 
HETATM    8  N4  UNL     1      28.648  65.371   9.445  1.00  0.00    -0.185 N 
ATOM      9  H4  UNL     1      28.526  64.798   8.610  1.00  0.00     0.184 HD
HETATM   10  C8  UNL     1      28.422  63.537  11.185  1.00  0.00     0.269 A 
HETATM   11  O2  UNL     1      28.239  62.576  10.383  1.00  0.00    -0.280 OA
HETATM   12  C9  UNL     1      28.433  63.278  12.624  1.00  0.00     0.300 A 
HETATM   13  O3  UNL     1      28.265  62.113  13.073  1.00  0.00    -0.264 OA
HETATM   14  N5  UNL     1      28.642  64.400  13.472  1.00  0.00    -0.285 N 
ATOM     15  H5  UNL     1      28.655  64.257  14.481  1.00  0.00     0.172 HD
HETATM   16  C10 UNL     1      28.831  65.714  12.962  1.00  0.00     0.278 A 
HETATM   17  O4  UNL     1      29.017  66.710  13.737  1.00  0.00    -0.266 OA
ENDROOT
BRANCH   1  18
HETATM   18  C4  UNL     1      28.801  66.882   7.083  1.00  0.00     0.138 C 
BRANCH  18  19
HETATM   19  C3  UNL     1      30.085  66.338   6.573  1.00  0.00     0.029 C 
BRANCH  19  20
HETATM   20  C2  UNL     1      31.203  67.306   6.847  1.00  0.00     0.101 C 
BRANCH  20  21
HETATM   21  C1  UNL     1      32.226  66.838   7.777  1.00  0.00     0.231 C 
HETATM   22  N1  UNL     1      31.878  66.668   9.156  1.00  0.00    -0.062 NA
HETATM   23  O1  UNL     1      33.421  66.560   7.476  1.00  0.00    -0.277 OA
ENDBRANCH  20  21
ENDBRANCH  19  20
ENDBRANCH  18  19
ENDBRANCH   1  18
TORSDOF 4
ENDMDL
MODEL 3
REMARK VINA RESULT: -6.994763401      2.444      2.719
REMARK  4 active torsions:
REMARK  status: ('A' for Active; 'I' for Inactive)
REMARK    1  A    between atoms: C1_2  and  C2_4 
REMARK    2  A    between atoms: C2_4  and  C3_5 
REMARK    3  A    between atoms: C3_5  and  C4_6 
REMARK    4  A    between atoms: C4_6  and  N2_7 
ROOT
HETATM    1  N2  UNL     1      30.522  65.180   8.927  1.00  0.00    -0.226 N 
ATOM      2  H2  UNL     1      30.724  64.384   8.321  1.00  0.00     0.177 HD
HETATM    3  C5  UNL     1      29.918  65.038  10.073  1.00  0.00     0.679 A 
HETATM    4  N3  UNL     1      29.482  63.874  10.621  1.00  0.00    -0.184 N 
ATOM      5  H3  UNL     1      29.580  62.956  10.186  1.00  0.00     0.184 HD
HETATM    6  C6  UNL     1      28.908  64.092  11.804  1.00  0.00     0.148 A 
HETATM    7  C7  UNL     1      28.972  65.444  12.036  1.00  0.00     0.137 A 
HETATM    8  N4  UNL     1      29.584  65.976  10.978  1.00  0.00    -0.185 N 
ATOM      9  H4  UNL     1      29.774  66.972  10.868  1.00  0.00     0.184 HD
HETATM   10  C8  UNL     1      28.441  66.069  13.241  1.00  0.00     0.269 A 
HETATM   11  O2  UNL     1      28.523  67.319  13.413  1.00  0.00    -0.280 OA
HETATM   12  C9  UNL     1      27.806  65.245  14.270  1.00  0.00     0.300 A 
HETATM   13  O3  UNL     1      27.341  65.764  15.319  1.00  0.00    -0.264 OA
HETATM   14  N5  UNL     1      27.746  63.847  14.018  1.00  0.00    -0.285 N 
ATOM     15  H5  UNL     1      27.311  63.241  14.713  1.00  0.00     0.172 HD
HETATM   16  C10 UNL     1      28.272  63.264  12.832  1.00  0.00     0.278 A 
HETATM   17  O4  UNL     1      28.210  62.007  12.622  1.00  0.00    -0.266 OA
ENDROOT
BRANCH   1  18
HETATM   18  C4  UNL     1      30.894  66.551   8.561  1.00  0.00     0.138 C 
BRANCH  18  19
HETATM   19  C3  UNL     1      31.026  66.724   7.091  1.00  0.00     0.029 C 
BRANCH  19  20
HETATM   20  C2  UNL     1      29.854  66.095   6.389  1.00  0.00     0.101 C 
BRANCH  20  21
HETATM   21  C1  UNL     1      28.551  66.679   6.695  1.00  0.00     0.231 C 
HETATM   22  N1  UNL     1      27.578  65.873   7.369  1.00  0.00    -0.062 NA
HETATM   23  O1  UNL     1      28.190  67.856   6.415  1.00  0.00    -0.277 OA
ENDBRANCH  20  21
ENDBRANCH  19  20
ENDBRANCH  18  19
ENDBRANCH   1  18
TORSDOF 4
ENDMDL
MODEL 4
REMARK VINA RESULT: -6.982491261      1.744      3.261
REMARK  4 active torsions:
REMARK  status: ('A' for Active; 'I' for Inactive)
REMARK    1  A    between atoms: C1_2  and  C2_4 
REMARK    2  A    between atoms: C2_4  and  C3_5 
REMARK    3  A    between atoms: C3_5  and  C4_6 
REMARK    4  A    between atoms: C4_6  and  N2_7 
ROOT
HETATM    1  N2  UNL     1      27.141  66.808   7.535  1.00  0.00    -0.226 N 
ATOM      2  H2  UNL     1      26.327  67.105   6.996  1.00  0.00     0.177 HD
HETATM    3  C5  UNL     1      27.033  66.039   8.581  1.00  0.00     0.679 A 
HETATM    4  N3  UNL     1      25.883  65.531   9.099  1.00  0.00    -0.184 N 
ATOM      5  H3  UNL     1      24.952  65.700   8.718  1.00  0.00     0.184 HD
HETATM    6  C6  UNL     1      26.137  64.783  10.172  1.00  0.00     0.148 A 
HETATM    7  C7  UNL     1      27.496  64.802  10.361  1.00  0.00     0.137 A 
HETATM    8  N4  UNL     1      27.998  65.564   9.389  1.00  0.00    -0.185 N 
ATOM      9  H4  UNL     1      28.992  65.762   9.273  1.00  0.00     0.184 HD
HETATM   10  C8  UNL     1      28.157  64.091  11.449  1.00  0.00     0.269 A 
HETATM   11  O2  UNL     1      29.413  64.136  11.584  1.00  0.00    -0.280 OA
HETATM   12  C9  UNL     1      27.362  63.311  12.399  1.00  0.00     0.300 A 
HETATM   13  O3  UNL     1      27.912  62.689  13.345  1.00  0.00    -0.264 OA
HETATM   14  N5  UNL     1      25.955  63.299  12.192  1.00  0.00    -0.285 N 
ATOM     15  H5  UNL     1      25.369  62.766  12.833  1.00  0.00     0.172 HD
HETATM   16  C10 UNL     1      25.337  64.003  11.122  1.00  0.00     0.278 A 
HETATM   17  O4  UNL     1      24.073  63.982  10.951  1.00  0.00    -0.266 OA
ENDROOT
BRANCH   1  18
HETATM   18  C4  UNL     1      28.503  67.222   7.180  1.00  0.00     0.138 C 
BRANCH  18  19
HETATM   19  C3  UNL     1      29.127  66.308   6.189  1.00  0.00     0.029 C 
BRANCH  19  20
HETATM   20  C2  UNL     1      30.468  65.844   6.685  1.00  0.00     0.101 C 
BRANCH  20  21
HETATM   21  C1  UNL     1      31.380  66.901   7.116  1.00  0.00     0.231 C 
HETATM   22  N1  UNL     1      31.850  66.895   8.468  1.00  0.00    -0.062 NA
HETATM   23  O1  UNL     1      31.804  67.845   6.392  1.00  0.00    -0.277 OA
ENDBRANCH  20  21
ENDBRANCH  19  20
ENDBRANCH  18  19
ENDBRANCH   1  18
TORSDOF 4
ENDMDL
MODEL 5
REMARK VINA RESULT: -6.925711235      2.210      5.986
REMARK  4 active torsions:
REMARK  status: ('A' for Active; 'I' for Inactive)
REMARK    1  A    between atoms: C1_2  and  C2_4 
REMARK    2  A    between atoms: C2_4  and  C3_5 
REMARK    3  A    between atoms: C3_5  and  C4_6 
REMARK    4  A    between atoms: C4_6  and  N2_7 
ROOT
HETATM    1  N2  UNL     1      27.409  66.011  11.522  1.00  0.00    -0.226 N 
ATOM      2  H2  UNL     1      26.410  66.183  11.407  1.00  0.00     0.177 HD
HETATM    3  C5  UNL     1      28.268  66.277  10.579  1.00  0.00     0.679 A 
HETATM    4  N3  UNL     1      27.992  66.798   9.354  1.00  0.00    -0.184 N 
ATOM      5  H3  UNL     1      27.058  67.046   9.027  1.00  0.00     0.184 HD
HETATM    6  C6  UNL     1      29.107  66.941   8.638  1.00  0.00     0.148 A 
HETATM    7  C7  UNL     1      30.145  66.500   9.421  1.00  0.00     0.137 A 
HETATM    8  N4  UNL     1      29.603  66.110  10.575  1.00  0.00    -0.185 N 
ATOM      9  H4  UNL     1      30.136  65.732  11.358  1.00  0.00     0.184 HD
HETATM   10  C8  UNL     1      31.533  66.501   8.974  1.00  0.00     0.269 A 
HETATM   11  O2  UNL     1      32.457  66.084   9.730  1.00  0.00    -0.280 OA
HETATM   12  C9  UNL     1      31.867  66.990   7.636  1.00  0.00     0.300 A 
HETATM   13  O3  UNL     1      33.059  67.001   7.230  1.00  0.00    -0.264 OA
HETATM   14  N5  UNL     1      30.784  67.446   6.836  1.00  0.00    -0.285 N 
ATOM     15  H5  UNL     1      30.979  67.794   5.898  1.00  0.00     0.172 HD
HETATM   16  C10 UNL     1      29.439  67.432   7.297  1.00  0.00     0.278 A 
HETATM   17  O4  UNL     1      28.478  67.844   6.566  1.00  0.00    -0.266 OA
ENDROOT
BRANCH   1  18
HETATM   18  C4  UNL     1      27.965  65.449  12.759  1.00  0.00     0.138 C 
BRANCH  18  19
HETATM   19  C3  UNL     1      27.481  64.068  13.015  1.00  0.00     0.029 C 
BRANCH  19  20
HETATM   20  C2  UNL     1      28.408  63.069  12.381  1.00  0.00     0.101 C 
BRANCH  20  21
HETATM   21  C1  UNL     1      28.233  62.871  10.945  1.00  0.00     0.231 C 
HETATM   22  N1  UNL     1      27.001  62.314  10.472  1.00  0.00    -0.062 NA
HETATM   23  O1  UNL     1      29.084  63.152  10.056  1.00  0.00    -0.277 OA
ENDBRANCH  20  21
ENDBRANCH  19  20
ENDBRANCH  18  19
ENDBRANCH   1  18
TORSDOF 4
ENDMDL
