MODEL 1
REMARK VINA RESULT: -7.013097082      0.000      0.000
REMARK  5 active torsions:
REMARK  status: ('A' for Active; 'I' for Inactive)
REMARK    1  A    between atoms: C4_4  and  C5_5 
REMARK    2  A    between atoms: C5_5  and  C6_6 
REMARK    3  A    between atoms: C6_6  and  N1_7 
REMARK    4  A    between atoms: C6_6  and  C12_22 
REMARK       I    between atoms: N1_7  and  C7_9 
REMARK       I    between atoms: C7_9  and  N3_14 
REMARK    5  A    between atoms: N2_10  and  O1_12 
ROOT
HETATM    1  C1  UNL     1      32.923  66.997   8.017  1.00  0.00     0.017 C 
HETATM    2  C2  UNL     1      32.058  66.818   7.187  1.00  0.00    -0.090 C 
HETATM    3  C3  UNL     1      31.022  66.602   6.224  1.00  0.00     0.059 C 
HETATM    4  C4  UNL     1      29.751  66.806   6.431  1.00  0.00    -0.015 C 
ENDROOT
BRANCH   4   5
HETATM    5  C5  UNL     1      29.246  67.298   7.721  1.00  0.00     0.062 C 
BRANCH   5   6
HETATM    6  C6  UNL     1      28.676  66.215   8.613  1.00  0.00     0.192 C 
BRANCH   6   7
HETATM    7  N1  UNL     1      27.421  66.653   9.205  1.00  0.00    -0.211 N 
HETATM    8  C7  UNL     1      26.257  65.860   9.051  1.00  0.00     0.696 C 
HETATM    9  N2  UNL     1      26.166  65.026   8.051  1.00  0.00    -0.099 N 
HETATM   10  N3  UNL     1      25.146  65.909   9.930  1.00  0.00    -0.213 N 
ATOM     11  H2  UNL     1      26.948  64.967   7.398  1.00  0.00     0.213 HD
HETATM   12  C8  UNL     1      23.910  66.525   9.503  1.00  0.00     0.168 C 
HETATM   13  C11 UNL     1      25.193  65.358  11.264  1.00  0.00     0.168 C 
HETATM   14  C9  UNL     1      23.096  66.925  10.729  1.00  0.00     0.252 C 
HETATM   15  N4  UNL     1      22.779  65.784  11.531  1.00  0.00    -0.072 N 
HETATM   16  C10 UNL     1      23.811  64.767  11.536  1.00  0.00     0.252 C 
ATOM     17  H42 UNL     1      22.549  66.066  12.483  1.00  0.00     0.277 HD
ATOM     18  H41 UNL     1      21.884  65.385  11.250  1.00  0.00     0.277 HD
ATOM     19  H1  UNL     1      27.380  67.527   9.728  1.00  0.00     0.178 HD
BRANCH   9  20
HETATM   20  O1  UNL     1      25.087  64.232   7.833  1.00  0.00    -0.276 OA
ATOM     21  H1  UNL     1      24.983  63.370   8.219  1.00  0.00     0.245 HD
ENDBRANCH   9  20
ENDBRANCH   6   7
BRANCH   6  22
HETATM   22  C12 UNL     1      29.640  65.767   9.622  1.00  0.00     0.254 C 
HETATM   23  N5  UNL     1      29.956  64.404   9.843  1.00  0.00    -0.060 NA
HETATM   24  O2  UNL     1      30.263  66.585  10.376  1.00  0.00    -0.275 OA
ENDBRANCH   6  22
ENDBRANCH   5   6
ENDBRANCH   4   5
TORSDOF 5
ENDMDL
MODEL 2
REMARK VINA RESULT: -6.730211786      2.637      3.872
REMARK  5 active torsions:
REMARK  status: ('A' for Active; 'I' for Inactive)
REMARK    1  A    between atoms: C4_4  and  C5_5 
REMARK    2  A    between atoms: C5_5  and  C6_6 
REMARK    3  A    between atoms: C6_6  and  N1_7 
REMARK    4  A    between atoms: C6_6  and  C12_22 
REMARK       I    between atoms: N1_7  and  C7_9 
REMARK       I    between atoms: C7_9  and  N3_14 
REMARK    5  A    between atoms: N2_10  and  O1_12 
ROOT
HETATM    1  C1  UNL     1      32.926  66.528   9.409  1.00  0.00     0.017 C 
HETATM    2  C2  UNL     1      32.606  66.912   8.305  1.00  0.00    -0.090 C 
HETATM    3  C3  UNL     1      32.220  67.344   6.997  1.00  0.00     0.059 C 
HETATM    4  C4  UNL     1      31.231  66.849   6.304  1.00  0.00    -0.015 C 
ENDROOT
BRANCH   4   5
HETATM    5  C5  UNL     1      30.390  65.762   6.825  1.00  0.00     0.062 C 
BRANCH   5   6
HETATM    6  C6  UNL     1      29.379  66.208   7.861  1.00  0.00     0.192 C 
BRANCH   6   7
HETATM    7  N1  UNL     1      29.169  65.162   8.850  1.00  0.00    -0.211 N 
HETATM    8  C7  UNL     1      29.037  65.505  10.218  1.00  0.00     0.696 C 
HETATM    9  N2  UNL     1      29.538  66.627  10.659  1.00  0.00    -0.099 N 
HETATM   10  N3  UNL     1      28.382  64.691  11.177  1.00  0.00    -0.213 N 
ATOM     11  H2  UNL     1      30.019  67.235   9.995  1.00  0.00     0.213 HD
HETATM   12  C8  UNL     1      29.152  63.980  12.172  1.00  0.00     0.168 C 
HETATM   13  C11 UNL     1      26.947  64.538  11.206  1.00  0.00     0.168 C 
HETATM   14  C9  UNL     1      28.328  62.813  12.707  1.00  0.00     0.252 C 
HETATM   15  N4  UNL     1      27.118  63.274  13.316  1.00  0.00    -0.072 N 
HETATM   16  C10 UNL     1      26.552  64.445  12.678  1.00  0.00     0.252 C 
ATOM     17  H42 UNL     1      26.430  62.523  13.363  1.00  0.00     0.277 HD
ATOM     18  H41 UNL     1      27.258  63.441  14.312  1.00  0.00     0.277 HD
ATOM     19  H1  UNL     1      29.118  64.186   8.559  1.00  0.00     0.178 HD
BRANCH   9  20
HETATM   20  O1  UNL     1      29.455  67.028  11.952  1.00  0.00    -0.276 OA
ATOM     21  H1  UNL     1      29.473  66.430  12.690  1.00  0.00     0.245 HD
ENDBRANCH   9  20
ENDBRANCH   6   7
BRANCH   6  22
HETATM   22  C12 UNL     1      28.124  66.654   7.250  1.00  0.00     0.254 C 
HETATM   23  N5  UNL     1      26.871  66.050   7.519  1.00  0.00    -0.060 NA
HETATM   24  O2  UNL     1      28.078  67.625   6.424  1.00  0.00    -0.275 OA
ENDBRANCH   6  22
ENDBRANCH   5   6
ENDBRANCH   4   5
TORSDOF 5
ENDMDL
MODEL 3
REMARK VINA RESULT: -6.678372688      3.613      6.601
REMARK  5 active torsions:
REMARK  status: ('A' for Active; 'I' for Inactive)
REMARK    1  A    between atoms: C4_4  and  C5_5 
REMARK    2  A    between atoms: C5_5  and  C6_6 
REMARK    3  A    between atoms: C6_6  and  N1_7 
REMARK    4  A    between atoms: C6_6  and  C12_22 
REMARK       I    between atoms: N1_7  and  C7_9 
REMARK       I    between atoms: C7_9  and  N3_14 
REMARK    5  A    between atoms: N2_10  and  O1_12 
ROOT
HETATM    1  C1  UNL     1      30.936  67.539  16.465  1.00  0.00     0.017 C 
HETATM    2  C2  UNL     1      30.940  68.137  15.411  1.00  0.00    -0.090 C 
HETATM    3  C3  UNL     1      30.936  68.824  14.156  1.00  0.00     0.059 C 
HETATM    4  C4  UNL     1      30.066  68.638  13.202  1.00  0.00    -0.015 C 
ENDROOT
BRANCH   4   5
HETATM    5  C5  UNL     1      28.968  67.670  13.334  1.00  0.00     0.062 C 
BRANCH   5   6
HETATM    6  C6  UNL     1      28.721  66.846  12.087  1.00  0.00     0.192 C 
BRANCH   6   7
HETATM    7  N1  UNL     1      29.656  67.220  11.037  1.00  0.00    -0.211 N 
HETATM    8  C7  UNL     1      30.026  66.268  10.055  1.00  0.00     0.696 C 
HETATM    9  N2  UNL     1      29.925  64.993  10.314  1.00  0.00    -0.099 N 
HETATM   10  N3  UNL     1      30.518  66.611   8.770  1.00  0.00    -0.213 N 
ATOM     11  H2  UNL     1      29.576  64.713  11.231  1.00  0.00     0.213 HD
HETATM   12  C8  UNL     1      31.915  66.414   8.452  1.00  0.00     0.168 C 
HETATM   13  C11 UNL     1      29.668  67.158   7.739  1.00  0.00     0.168 C 
HETATM   14  C9  UNL     1      32.295  67.311   7.278  1.00  0.00     0.252 C 
HETATM   15  N4  UNL     1      31.518  66.997   6.118  1.00  0.00    -0.072 N 
HETATM   16  C10 UNL     1      30.164  66.578   6.417  1.00  0.00     0.252 C 
ATOM     17  H42 UNL     1      31.516  67.779   5.464  1.00  0.00     0.277 HD
ATOM     18  H41 UNL     1      31.992  66.298   5.547  1.00  0.00     0.277 HD
ATOM     19  H1  UNL     1      30.045  68.163  11.010  1.00  0.00     0.178 HD
BRANCH   9  20
HETATM   20  O1  UNL     1      30.258  64.020   9.429  1.00  0.00    -0.276 OA
ATOM     21  H1  UNL     1      30.520  63.144   9.686  1.00  0.00     0.245 HD
ENDBRANCH   9  20
ENDBRANCH   6   7
BRANCH   6  22
HETATM   22  C12 UNL     1      27.327  66.925  11.642  1.00  0.00     0.254 C 
HETATM   23  N5  UNL     1      26.652  65.853  11.007  1.00  0.00    -0.060 NA
HETATM   24  O2  UNL     1      26.623  67.977  11.797  1.00  0.00    -0.275 OA
ENDBRANCH   6  22
ENDBRANCH   5   6
ENDBRANCH   4   5
TORSDOF 5
ENDMDL
MODEL 4
REMARK VINA RESULT: -6.671259737      3.475      6.460
REMARK  5 active torsions:
REMARK  status: ('A' for Active; 'I' for Inactive)
REMARK    1  A    between atoms: C4_4  and  C5_5 
REMARK    2  A    between atoms: C5_5  and  C6_6 
REMARK    3  A    between atoms: C6_6  and  N1_7 
REMARK    4  A    between atoms: C6_6  and  C12_22 
REMARK       I    between atoms: N1_7  and  C7_9 
REMARK       I    between atoms: C7_9  and  N3_14 
REMARK    5  A    between atoms: N2_10  and  O1_12 
ROOT
HETATM    1  C1  UNL     1      28.911  71.381  12.899  1.00  0.00     0.017 C 
HETATM    2  C2  UNL     1      29.642  70.461  13.196  1.00  0.00    -0.090 C 
HETATM    3  C3  UNL     1      30.486  69.363  13.555  1.00  0.00     0.059 C 
HETATM    4  C4  UNL     1      30.116  68.113  13.593  1.00  0.00    -0.015 C 
ENDROOT
BRANCH   4   5
HETATM    5  C5  UNL     1      28.745  67.702  13.257  1.00  0.00     0.062 C 
BRANCH   5   6
HETATM    6  C6  UNL     1      28.656  66.776  12.061  1.00  0.00     0.192 C 
BRANCH   6   7
HETATM    7  N1  UNL     1      29.608  67.176  11.037  1.00  0.00    -0.211 N 
HETATM    8  C7  UNL     1      30.021  66.239  10.058  1.00  0.00     0.696 C 
HETATM    9  N2  UNL     1      29.941  64.960  10.307  1.00  0.00    -0.099 N 
HETATM   10  N3  UNL     1      30.536  66.600   8.787  1.00  0.00    -0.213 N 
ATOM     11  H2  UNL     1      29.577  64.666  11.213  1.00  0.00     0.213 HD
HETATM   12  C8  UNL     1      31.944  66.435   8.501  1.00  0.00     0.168 C 
HETATM   13  C11 UNL     1      29.699  67.136   7.740  1.00  0.00     0.168 C 
HETATM   14  C9  UNL     1      32.333  67.347   7.342  1.00  0.00     0.252 C 
HETATM   15  N4  UNL     1      31.591  67.024   6.163  1.00  0.00    -0.072 N 
HETATM   16  C10 UNL     1      30.239  66.575   6.426  1.00  0.00     0.252 C 
ATOM     17  H42 UNL     1      31.587  67.811   5.514  1.00  0.00     0.277 HD
ATOM     18  H41 UNL     1      32.093  66.339   5.599  1.00  0.00     0.277 HD
ATOM     19  H1  UNL     1      29.977  68.127  11.024  1.00  0.00     0.178 HD
BRANCH   9  20
HETATM   20  O1  UNL     1      30.315  64.000   9.424  1.00  0.00    -0.276 OA
ATOM     21  H1  UNL     1      30.068  63.086   9.506  1.00  0.00     0.245 HD
ENDBRANCH   9  20
ENDBRANCH   6   7
BRANCH   6  22
HETATM   22  C12 UNL     1      27.289  66.678  11.542  1.00  0.00     0.254 C 
HETATM   23  N5  UNL     1      26.718  65.465  11.083  1.00  0.00    -0.060 NA
HETATM   24  O2  UNL     1      26.517  67.690  11.465  1.00  0.00    -0.275 OA
ENDBRANCH   6  22
ENDBRANCH   5   6
ENDBRANCH   4   5
TORSDOF 5
ENDMDL
MODEL 5
REMARK VINA RESULT: -6.514410625      2.536      6.208
REMARK  5 active torsions:
REMARK  status: ('A' for Active; 'I' for Inactive)
REMARK    1  A    between atoms: C4_4  and  C5_5 
REMARK    2  A    between atoms: C5_5  and  C6_6 
REMARK    3  A    between atoms: C6_6  and  N1_7 
REMARK    4  A    between atoms: C6_6  and  C12_22 
REMARK       I    between atoms: N1_7  and  C7_9 
REMARK       I    between atoms: C7_9  and  N3_14 
REMARK    5  A    between atoms: N2_10  and  O1_12 
ROOT
HETATM    1  C1  UNL     1      24.716  64.715   7.564  1.00  0.00     0.017 C 
HETATM    2  C2  UNL     1      24.631  63.889   8.447  1.00  0.00    -0.090 C 
HETATM    3  C3  UNL     1      24.547  62.926   9.501  1.00  0.00     0.059 C 
HETATM    4  C4  UNL     1      24.833  63.156  10.752  1.00  0.00    -0.015 C 
ENDROOT
BRANCH   4   5
HETATM    5  C5  UNL     1      25.282  64.477  11.213  1.00  0.00     0.062 C 
BRANCH   5   6
HETATM    6  C6  UNL     1      26.777  64.575  11.438  1.00  0.00     0.192 C 
BRANCH   6   7
HETATM    7  N1  UNL     1      27.463  64.842  10.184  1.00  0.00    -0.211 N 
HETATM    8  C7  UNL     1      28.143  66.071  10.003  1.00  0.00     0.696 C 
HETATM    9  N2  UNL     1      27.800  67.115  10.708  1.00  0.00    -0.099 N 
HETATM   10  N3  UNL     1      29.201  66.260   9.078  1.00  0.00    -0.213 N 
ATOM     11  H2  UNL     1      27.040  67.013  11.381  1.00  0.00     0.213 HD
HETATM   12  C8  UNL     1      28.984  67.029   7.874  1.00  0.00     0.168 C 
HETATM   13  C11 UNL     1      30.518  65.707   9.290  1.00  0.00     0.168 C 
HETATM   14  C9  UNL     1      30.039  66.652   6.838  1.00  0.00     0.252 C 
HETATM   15  N4  UNL     1      31.356  66.931   7.321  1.00  0.00    -0.072 N 
HETATM   16  C10 UNL     1      31.510  66.734   8.747  1.00  0.00     0.252 C 
ATOM     17  H42 UNL     1      32.049  66.388   6.806  1.00  0.00     0.277 HD
ATOM     18  H41 UNL     1      31.644  67.872   7.055  1.00  0.00     0.277 HD
ATOM     19  H1  UNL     1      27.454  64.146   9.438  1.00  0.00     0.178 HD
BRANCH   9  20
HETATM   20  O1  UNL     1      28.399  68.326  10.595  1.00  0.00    -0.276 OA
ATOM     21  H1  UNL     1      28.513  68.781   9.769  1.00  0.00     0.245 HD
ENDBRANCH   9  20
ENDBRANCH   6   7
BRANCH   6  22
HETATM   22  C12 UNL     1      27.310  63.394  12.123  1.00  0.00     0.254 C 
HETATM   23  N5  UNL     1      28.164  62.453  11.497  1.00  0.00    -0.060 NA
HETATM   24  O2  UNL     1      27.033  63.132  13.340  1.00  0.00    -0.275 OA
ENDBRANCH   6  22
ENDBRANCH   5   6
ENDBRANCH   4   5
TORSDOF 5
ENDMDL
