MODEL 1
REMARK VINA RESULT: -8.650728327      0.000      0.000
REMARK  13 active torsions:
REMARK  status: ('A' for Active; 'I' for Inactive)
REMARK    1  A    between atoms: C6_6  and  N1_7 
REMARK    2  A    between atoms: N1_7  and  C7_9 
REMARK    3  A    between atoms: C13_21  and  C14_22 
REMARK       I    between atoms: C14_22  and  N5_24 
REMARK    4  A    between atoms: N5_24  and  C15_26 
REMARK    5  A    between atoms: C15_26  and  C16_27 
REMARK    6  A    between atoms: C16_27  and  N6_28 
REMARK    7  A    between atoms: N7_31  and  C19_32 
REMARK    8  A    between atoms: C19_32  and  C20_33 
REMARK    9  A    between atoms: C20_33  and  C21_34 
REMARK   10  A    between atoms: C21_34  and  C22_35 
REMARK   11  A    between atoms: C22_35  and  C23_36 
REMARK   12  A    between atoms: C23_36  and  C24_37 
REMARK   13  A    between atoms: C24_37  and  O3_38 
ROOT
HETATM    1  C7  UNL     1      14.077  21.239  17.759  1.00  0.00     0.120 A 
HETATM    2  N2  UNL     1      13.804  20.710  18.959  1.00  0.00    -0.338 N 
ATOM      3  H2  UNL     1      14.325  21.020  19.779  1.00  0.00     0.168 HD
HETATM    4  C8  UNL     1      12.854  19.780  19.086  1.00  0.00     0.182 A 
HETATM    5  N3  UNL     1      12.145  19.343  18.037  1.00  0.00    -0.347 N 
ATOM      6  H3  UNL     1      11.426  18.632  18.168  1.00  0.00     0.167 HD
HETATM    7  C9  UNL     1      12.379  19.838  16.829  1.00  0.00     0.117 A 
HETATM    8  C10 UNL     1      11.669  19.372  15.718  1.00  0.00     0.275 A 
HETATM    9  O1  UNL     1      10.783  18.489  15.900  1.00  0.00    -0.265 OA
HETATM   10  N4  UNL     1      11.929  19.856  14.500  1.00  0.00    -0.326 N 
HETATM   11  C11 UNL     1      11.197  19.385  13.323  1.00  0.00     0.159 C 
HETATM   12  C12 UNL     1      12.862  20.792  14.297  1.00  0.00     0.112 A 
HETATM   13  C13 UNL     1      13.599  21.288  15.390  1.00  0.00     0.064 A 
HETATM   14  C27 UNL     1      13.373  20.822  16.659  1.00  0.00     0.057 A 
ENDROOT
BRANCH  13  15
HETATM   15  C14 UNL     1      14.531  22.395  15.113  1.00  0.00     0.258 C 
HETATM   16  O2  UNL     1      14.030  23.523  15.181  1.00  0.00    -0.267 OA
HETATM   17  N5  UNL     1      15.884  22.173  14.811  1.00  0.00    -0.332 N 
ATOM     18  H5  UNL     1      16.160  21.192  14.772  1.00  0.00     0.168 HD
BRANCH  17  19
HETATM   19  C15 UNL     1      16.922  23.090  14.554  1.00  0.00     0.108 C 
BRANCH  19  20
HETATM   20  C16 UNL     1      18.069  23.178  15.481  1.00  0.00     0.102 C 
BRANCH  20  21
HETATM   21  N6  UNL     1      18.575  24.426  15.890  1.00  0.00    -0.385 N 
HETATM   22  C17 UNL     1      17.977  25.588  15.321  1.00  0.00     0.152 C 
HETATM   23  C18 UNL     1      18.808  26.342  14.341  1.00  0.00     0.292 C 
HETATM   24  N7  UNL     1      20.194  26.474  14.717  1.00  0.00     0.091 N 
HETATM   25  C25 UNL     1      20.713  25.141  14.898  1.00  0.00     0.292 C 
HETATM   26  C26 UNL     1      19.986  24.413  16.026  1.00  0.00     0.152 C 
BRANCH  24  27
HETATM   27  C19 UNL     1      20.335  27.245  15.929  1.00  0.00     0.272 C 
BRANCH  27  28
HETATM   28  C20 UNL     1      21.768  27.680  16.136  1.00  0.00     0.030 C 
BRANCH  28  29
HETATM   29  C21 UNL     1      22.271  27.288  17.531  1.00  0.00     0.002 C 
BRANCH  29  30
HETATM   30  C22 UNL     1      21.065  27.311  18.431  1.00  0.00     0.002 C 
BRANCH  30  31
HETATM   31  C23 UNL     1      21.281  26.355  19.569  1.00  0.00     0.026 C 
BRANCH  31  32
HETATM   32  C24 UNL     1      21.519  27.101  20.860  1.00  0.00     0.164 C 
BRANCH  32  33
HETATM   33  O3  UNL     1      20.729  28.247  20.903  1.00  0.00    -0.401 OA
ATOM     34  H3  UNL     1      21.176  28.933  21.384  1.00  0.00     0.209 HD
ENDBRANCH  32  33
ENDBRANCH  31  32
ENDBRANCH  30  31
ENDBRANCH  29  30
ENDBRANCH  28  29
ENDBRANCH  27  28
ENDBRANCH  24  27
ENDBRANCH  20  21
ENDBRANCH  19  20
ENDBRANCH  17  19
ENDBRANCH  13  15
BRANCH   1  35
HETATM   35  N1  UNL     1      15.012  22.095  17.601  1.00  0.00    -0.341 N 
ATOM     36  H1  UNL     1      14.855  22.813  16.892  1.00  0.00     0.167 HD
BRANCH  35  37
HETATM   37  C6  UNL     1      16.226  22.158  18.291  1.00  0.00     0.045 A 
HETATM   38  C4  UNL     1      16.991  21.043  18.516  1.00  0.00    -0.034 A 
HETATM   39  C3  UNL     1      18.195  21.182  19.211  1.00  0.00     0.015 A 
HETATM   40  C5  UNL     1      16.523  19.749  18.025  1.00  0.00     0.050 C 
HETATM   41  C2  UNL     1      18.643  22.406  19.679  1.00  0.00    -0.061 A 
HETATM   42  C1  UNL     1      19.932  22.431  20.399  1.00  0.00     0.048 C 
HETATM   43  C30 UNL     1      17.863  23.521  19.444  1.00  0.00     0.015 A 
HETATM   44  C28 UNL     1      16.665  23.398  18.756  1.00  0.00    -0.034 A 
HETATM   45  C29 UNL     1      15.861  24.626  18.529  1.00  0.00     0.050 C 
ENDBRANCH  35  37
ENDBRANCH   1  35
TORSDOF 13
ENDMDL
MODEL 2
REMARK VINA RESULT: -8.586701482      2.208      9.677
REMARK  13 active torsions:
REMARK  status: ('A' for Active; 'I' for Inactive)
REMARK    1  A    between atoms: C6_6  and  N1_7 
REMARK    2  A    between atoms: N1_7  and  C7_9 
REMARK    3  A    between atoms: C13_21  and  C14_22 
REMARK       I    between atoms: C14_22  and  N5_24 
REMARK    4  A    between atoms: N5_24  and  C15_26 
REMARK    5  A    between atoms: C15_26  and  C16_27 
REMARK    6  A    between atoms: C16_27  and  N6_28 
REMARK    7  A    between atoms: N7_31  and  C19_32 
REMARK    8  A    between atoms: C19_32  and  C20_33 
REMARK    9  A    between atoms: C20_33  and  C21_34 
REMARK   10  A    between atoms: C21_34  and  C22_35 
REMARK   11  A    between atoms: C22_35  and  C23_36 
REMARK   12  A    between atoms: C23_36  and  C24_37 
REMARK   13  A    between atoms: C24_37  and  O3_38 
ROOT
HETATM    1  C7  UNL     1      19.712  25.699  17.605  1.00  0.00     0.120 A 
HETATM    2  N2  UNL     1      19.638  26.581  16.600  1.00  0.00    -0.338 N 
ATOM      3  H2  UNL     1      18.772  26.671  16.067  1.00  0.00     0.168 HD
HETATM    4  C8  UNL     1      20.691  27.342  16.291  1.00  0.00     0.182 A 
HETATM    5  N3  UNL     1      21.847  27.259  16.962  1.00  0.00    -0.347 N 
ATOM      6  H3  UNL     1      22.633  27.855  16.702  1.00  0.00     0.167 HD
HETATM    7  C9  UNL     1      21.968  26.401  17.966  1.00  0.00     0.117 A 
HETATM    8  C10 UNL     1      23.176  26.278  18.658  1.00  0.00     0.275 A 
HETATM    9  O1  UNL     1      24.139  27.025  18.320  1.00  0.00    -0.265 OA
HETATM   10  N4  UNL     1      23.299  25.393  19.651  1.00  0.00    -0.326 N 
HETATM   11  C11 UNL     1      24.553  25.249  20.391  1.00  0.00     0.159 C 
HETATM   12  C12 UNL     1      22.286  24.601  20.019  1.00  0.00     0.112 A 
HETATM   13  C13 UNL     1      21.052  24.693  19.347  1.00  0.00     0.064 A 
HETATM   14  C27 UNL     1      20.876  25.582  18.320  1.00  0.00     0.057 A 
ENDROOT
BRANCH  13  15
HETATM   15  C14 UNL     1      19.948  23.872  19.875  1.00  0.00     0.258 C 
HETATM   16  O2  UNL     1      19.261  24.423  20.743  1.00  0.00    -0.267 OA
HETATM   17  N5  UNL     1      19.695  22.572  19.408  1.00  0.00    -0.332 N 
ATOM     18  H5  UNL     1      20.350  22.235  18.703  1.00  0.00     0.168 HD
BRANCH  17  19
HETATM   19  C15 UNL     1      18.682  21.659  19.760  1.00  0.00     0.108 C 
BRANCH  19  20
HETATM   20  C16 UNL     1      17.646  21.297  18.772  1.00  0.00     0.102 C 
BRANCH  20  21
HETATM   21  N6  UNL     1      16.595  20.424  19.112  1.00  0.00    -0.385 N 
HETATM   22  C17 UNL     1      16.032  19.643  18.061  1.00  0.00     0.152 C 
HETATM   23  C18 UNL     1      14.660  20.024  17.622  1.00  0.00     0.292 C 
HETATM   24  N7  UNL     1      13.763  20.357  18.702  1.00  0.00     0.091 N 
HETATM   25  C25 UNL     1      14.372  21.433  19.443  1.00  0.00     0.292 C 
HETATM   26  C26 UNL     1      15.704  21.001  20.052  1.00  0.00     0.152 C 
BRANCH  24  27
HETATM   27  C19 UNL     1      13.531  19.217  19.557  1.00  0.00     0.272 C 
BRANCH  27  28
HETATM   28  C20 UNL     1      12.081  18.790  19.515  1.00  0.00     0.030 C 
BRANCH  28  29
HETATM   29  C21 UNL     1      11.852  17.702  18.460  1.00  0.00     0.002 C 
BRANCH  29  30
HETATM   30  C22 UNL     1      10.654  18.141  17.661  1.00  0.00     0.002 C 
BRANCH  30  31
HETATM   31  C23 UNL     1      11.114  18.652  16.325  1.00  0.00     0.026 C 
BRANCH  31  32
HETATM   32  C24 UNL     1      10.887  20.140  16.210  1.00  0.00     0.164 C 
BRANCH  32  33
HETATM   33  O3  UNL     1       9.954  20.555  17.157  1.00  0.00    -0.401 OA
ATOM     34  H3  UNL     1       9.878  21.502  17.146  1.00  0.00     0.209 HD
ENDBRANCH  32  33
ENDBRANCH  31  32
ENDBRANCH  30  31
ENDBRANCH  29  30
ENDBRANCH  28  29
ENDBRANCH  27  28
ENDBRANCH  24  27
ENDBRANCH  20  21
ENDBRANCH  19  20
ENDBRANCH  17  19
ENDBRANCH  13  15
BRANCH   1  35
HETATM   35  N1  UNL     1      18.736  24.925  17.891  1.00  0.00    -0.341 N 
ATOM     36  H1  UNL     1      18.527  24.807  18.883  1.00  0.00     0.167 HD
BRANCH  35  37
HETATM   37  C6  UNL     1      17.924  24.223  16.996  1.00  0.00     0.045 A 
HETATM   38  C4  UNL     1      18.440  23.569  15.907  1.00  0.00    -0.034 A 
HETATM   39  C3  UNL     1      17.568  22.885  15.057  1.00  0.00     0.015 A 
HETATM   40  C5  UNL     1      19.881  23.611  15.671  1.00  0.00     0.050 C 
HETATM   41  C2  UNL     1      16.201  22.843  15.275  1.00  0.00    -0.061 A 
HETATM   42  C1  UNL     1      15.378  22.088  14.310  1.00  0.00     0.048 C 
HETATM   43  C30 UNL     1      15.695  23.505  16.377  1.00  0.00     0.015 A 
HETATM   44  C28 UNL     1      16.549  24.188  17.229  1.00  0.00    -0.034 A 
HETATM   45  C29 UNL     1      15.956  24.886  18.399  1.00  0.00     0.050 C 
ENDBRANCH  35  37
ENDBRANCH   1  35
TORSDOF 13
ENDMDL
MODEL 3
REMARK VINA RESULT: -8.579293670      1.718      2.083
REMARK  13 active torsions:
REMARK  status: ('A' for Active; 'I' for Inactive)
REMARK    1  A    between atoms: C6_6  and  N1_7 
REMARK    2  A    between atoms: N1_7  and  C7_9 
REMARK    3  A    between atoms: C13_21  and  C14_22 
REMARK       I    between atoms: C14_22  and  N5_24 
REMARK    4  A    between atoms: N5_24  and  C15_26 
REMARK    5  A    between atoms: C15_26  and  C16_27 
REMARK    6  A    between atoms: C16_27  and  N6_28 
REMARK    7  A    between atoms: N7_31  and  C19_32 
REMARK    8  A    between atoms: C19_32  and  C20_33 
REMARK    9  A    between atoms: C20_33  and  C21_34 
REMARK   10  A    between atoms: C21_34  and  C22_35 
REMARK   11  A    between atoms: C22_35  and  C23_36 
REMARK   12  A    between atoms: C23_36  and  C24_37 
REMARK   13  A    between atoms: C24_37  and  O3_38 
ROOT
HETATM    1  C7  UNL     1      13.736  21.020  17.622  1.00  0.00     0.120 A 
HETATM    2  N2  UNL     1      13.430  20.491  18.813  1.00  0.00    -0.338 N 
ATOM      3  H2  UNL     1      13.916  20.812  19.651  1.00  0.00     0.168 HD
HETATM    4  C8  UNL     1      12.492  19.545  18.910  1.00  0.00     0.182 A 
HETATM    5  N3  UNL     1      11.828  19.093  17.839  1.00  0.00    -0.347 N 
ATOM      6  H3  UNL     1      11.116  18.370  17.947  1.00  0.00     0.167 HD
HETATM    7  C9  UNL     1      12.096  19.587  16.638  1.00  0.00     0.117 A 
HETATM    8  C10 UNL     1      11.434  19.106  15.505  1.00  0.00     0.275 A 
HETATM    9  O1  UNL     1      10.557  18.208  15.658  1.00  0.00    -0.265 OA
HETATM   10  N4  UNL     1      11.728  19.590  14.295  1.00  0.00    -0.326 N 
HETATM   11  C11 UNL     1      11.047  19.102  13.095  1.00  0.00     0.159 C 
HETATM   12  C12 UNL     1      12.652  20.540  14.121  1.00  0.00     0.112 A 
HETATM   13  C13 UNL     1      13.342  21.053  15.237  1.00  0.00     0.064 A 
HETATM   14  C27 UNL     1      13.079  20.588  16.499  1.00  0.00     0.057 A 
ENDROOT
BRANCH  13  15
HETATM   15  C14 UNL     1      14.265  22.174  14.989  1.00  0.00     0.258 C 
HETATM   16  O2  UNL     1      13.742  23.294  15.028  1.00  0.00    -0.267 OA
HETATM   17  N5  UNL     1      15.633  21.975  14.743  1.00  0.00    -0.332 N 
ATOM     18  H5  UNL     1      15.926  20.999  14.722  1.00  0.00     0.168 HD
BRANCH  17  19
HETATM   19  C15 UNL     1      16.663  22.908  14.520  1.00  0.00     0.108 C 
BRANCH  19  20
HETATM   20  C16 UNL     1      17.856  22.905  15.391  1.00  0.00     0.102 C 
BRANCH  20  21
HETATM   21  N6  UNL     1      18.407  24.110  15.868  1.00  0.00    -0.385 N 
HETATM   22  C17 UNL     1      17.801  25.322  15.426  1.00  0.00     0.152 C 
HETATM   23  C18 UNL     1      18.591  26.139  14.463  1.00  0.00     0.292 C 
HETATM   24  N7  UNL     1      19.998  26.220  14.768  1.00  0.00     0.091 N 
HETATM   25  C25 UNL     1      20.501  24.870  14.815  1.00  0.00     0.292 C 
HETATM   26  C26 UNL     1      19.823  24.065  15.921  1.00  0.00     0.152 C 
BRANCH  24  27
HETATM   27  C19 UNL     1      20.220  26.891  16.027  1.00  0.00     0.272 C 
BRANCH  27  28
HETATM   28  C20 UNL     1      21.270  27.970  15.892  1.00  0.00     0.030 C 
BRANCH  28  29
HETATM   29  C21 UNL     1      21.412  28.429  14.436  1.00  0.00     0.002 C 
BRANCH  29  30
HETATM   30  C22 UNL     1      22.737  29.136  14.349  1.00  0.00     0.002 C 
BRANCH  30  31
HETATM   31  C23 UNL     1      23.542  28.829  15.579  1.00  0.00     0.026 C 
BRANCH  31  32
HETATM   32  C24 UNL     1      24.700  29.788  15.720  1.00  0.00     0.164 C 
BRANCH  32  33
HETATM   33  O3  UNL     1      24.828  30.553  14.563  1.00  0.00    -0.401 OA
ATOM     34  H3  UNL     1      25.687  30.959  14.535  1.00  0.00     0.209 HD
ENDBRANCH  32  33
ENDBRANCH  31  32
ENDBRANCH  30  31
ENDBRANCH  29  30
ENDBRANCH  28  29
ENDBRANCH  27  28
ENDBRANCH  24  27
ENDBRANCH  20  21
ENDBRANCH  19  20
ENDBRANCH  17  19
ENDBRANCH  13  15
BRANCH   1  35
HETATM   35  N1  UNL     1      14.662  21.891  17.493  1.00  0.00    -0.341 N 
ATOM     36  H1  UNL     1      14.490  22.640  16.822  1.00  0.00     0.167 HD
BRANCH  35  37
HETATM   37  C6  UNL     1      15.884  21.932  18.171  1.00  0.00     0.045 A 
HETATM   38  C4  UNL     1      16.631  20.804  18.390  1.00  0.00    -0.034 A 
HETATM   39  C3  UNL     1      17.844  20.921  19.072  1.00  0.00     0.015 A 
HETATM   40  C5  UNL     1      16.134  19.518  17.906  1.00  0.00     0.050 C 
HETATM   41  C2  UNL     1      18.319  22.136  19.534  1.00  0.00    -0.061 A 
HETATM   42  C1  UNL     1      19.616  22.139  20.241  1.00  0.00     0.048 C 
HETATM   43  C30 UNL     1      17.558  23.266  19.305  1.00  0.00     0.015 A 
HETATM   44  C28 UNL     1      16.351  23.164  18.629  1.00  0.00    -0.034 A 
HETATM   45  C29 UNL     1      15.568  24.407  18.409  1.00  0.00     0.050 C 
ENDBRANCH  35  37
ENDBRANCH   1  35
TORSDOF 13
ENDMDL
MODEL 4
REMARK VINA RESULT: -8.530381831      0.068      1.340
REMARK  13 active torsions:
REMARK  status: ('A' for Active; 'I' for Inactive)
REMARK    1  A    between atoms: C6_6  and  N1_7 
REMARK    2  A    between atoms: N1_7  and  C7_9 
REMARK    3  A    between atoms: C13_21  and  C14_22 
REMARK       I    between atoms: C14_22  and  N5_24 
REMARK    4  A    between atoms: N5_24  and  C15_26 
REMARK    5  A    between atoms: C15_26  and  C16_27 
REMARK    6  A    between atoms: C16_27  and  N6_28 
REMARK    7  A    between atoms: N7_31  and  C19_32 
REMARK    8  A    between atoms: C19_32  and  C20_33 
REMARK    9  A    between atoms: C20_33  and  C21_34 
REMARK   10  A    between atoms: C21_34  and  C22_35 
REMARK   11  A    between atoms: C22_35  and  C23_36 
REMARK   12  A    between atoms: C23_36  and  C24_37 
REMARK   13  A    between atoms: C24_37  and  O3_38 
ROOT
HETATM    1  C7  UNL     1      14.105  21.276  17.785  1.00  0.00     0.120 A 
HETATM    2  N2  UNL     1      13.863  20.755  18.994  1.00  0.00    -0.338 N 
ATOM      3  H2  UNL     1      14.400  21.074  19.801  1.00  0.00     0.168 HD
HETATM    4  C8  UNL     1      12.922  19.819  19.150  1.00  0.00     0.182 A 
HETATM    5  N3  UNL     1      12.192  19.370  18.122  1.00  0.00    -0.347 N 
ATOM      6  H3  UNL     1      11.481  18.655  18.273  1.00  0.00     0.167 HD
HETATM    7  C9  UNL     1      12.395  19.857  16.904  1.00  0.00     0.117 A 
HETATM    8  C10 UNL     1      11.664  19.378  15.814  1.00  0.00     0.275 A 
HETATM    9  O1  UNL     1      10.787  18.490  16.022  1.00  0.00    -0.265 OA
HETATM   10  N4  UNL     1      11.892  19.854  14.587  1.00  0.00    -0.326 N 
HETATM   11  C11 UNL     1      11.138  19.369  13.430  1.00  0.00     0.159 C 
HETATM   12  C12 UNL     1      12.814  20.795  14.355  1.00  0.00     0.112 A 
HETATM   13  C13 UNL     1      13.573  21.304  15.427  1.00  0.00     0.064 A 
HETATM   14  C27 UNL     1      13.379  20.846  16.704  1.00  0.00     0.057 A 
ENDROOT
BRANCH  13  15
HETATM   15  C14 UNL     1      14.491  22.415  15.120  1.00  0.00     0.258 C 
HETATM   16  O2  UNL     1      13.974  23.538  15.153  1.00  0.00    -0.267 OA
HETATM   17  N5  UNL     1      15.848  22.203  14.831  1.00  0.00    -0.332 N 
ATOM     18  H5  UNL     1      16.137  21.225  14.823  1.00  0.00     0.168 HD
BRANCH  17  19
HETATM   19  C15 UNL     1      16.874  23.126  14.551  1.00  0.00     0.108 C 
BRANCH  19  20
HETATM   20  C16 UNL     1      18.056  23.199  15.434  1.00  0.00     0.102 C 
BRANCH  20  21
HETATM   21  N6  UNL     1      18.564  24.441  15.862  1.00  0.00    -0.385 N 
HETATM   22  C17 UNL     1      17.990  25.611  15.286  1.00  0.00     0.152 C 
HETATM   23  C18 UNL     1      18.850  26.362  14.329  1.00  0.00     0.292 C 
HETATM   24  N7  UNL     1      20.229  26.479  14.737  1.00  0.00     0.091 N 
HETATM   25  C25 UNL     1      20.731  25.140  14.923  1.00  0.00     0.292 C 
HETATM   26  C26 UNL     1      19.971  24.413  16.029  1.00  0.00     0.152 C 
BRANCH  24  27
HETATM   27  C19 UNL     1      20.349  27.242  15.956  1.00  0.00     0.272 C 
BRANCH  27  28
HETATM   28  C20 UNL     1      21.775  27.693  16.179  1.00  0.00     0.030 C 
BRANCH  28  29
HETATM   29  C21 UNL     1      22.288  27.251  17.555  1.00  0.00     0.002 C 
BRANCH  29  30
HETATM   30  C22 UNL     1      21.098  27.287  18.475  1.00  0.00     0.002 C 
BRANCH  30  31
HETATM   31  C23 UNL     1      21.319  26.322  19.604  1.00  0.00     0.026 C 
BRANCH  31  32
HETATM   32  C24 UNL     1      21.479  27.054  20.915  1.00  0.00     0.164 C 
BRANCH  32  33
HETATM   33  O3  UNL     1      20.763  28.248  20.885  1.00  0.00    -0.401 OA
ATOM     34  H3  UNL     1      21.357  28.985  20.966  1.00  0.00     0.209 HD
ENDBRANCH  32  33
ENDBRANCH  31  32
ENDBRANCH  30  31
ENDBRANCH  29  30
ENDBRANCH  28  29
ENDBRANCH  27  28
ENDBRANCH  24  27
ENDBRANCH  20  21
ENDBRANCH  19  20
ENDBRANCH  17  19
ENDBRANCH  13  15
BRANCH   1  35
HETATM   35  N1  UNL     1      15.030  22.137  17.599  1.00  0.00    -0.341 N 
ATOM     36  H1  UNL     1      14.870  22.822  16.860  1.00  0.00     0.167 HD
BRANCH  35  37
HETATM   37  C6  UNL     1      16.237  22.244  18.296  1.00  0.00     0.045 A 
HETATM   38  C4  UNL     1      16.681  23.440  18.798  1.00  0.00    -0.034 A 
HETATM   39  C3  UNL     1      17.897  23.472  19.486  1.00  0.00     0.015 A 
HETATM   40  C5  UNL     1      15.873  24.641  18.595  1.00  0.00     0.050 C 
HETATM   41  C2  UNL     1      18.667  22.338  19.680  1.00  0.00    -0.061 A 
HETATM   42  C1  UNL     1      19.933  22.492  20.425  1.00  0.00     0.048 C 
HETATM   43  C30 UNL     1      18.207  21.140  19.171  1.00  0.00     0.015 A 
HETATM   44  C28 UNL     1      17.003  21.094  18.485  1.00  0.00    -0.034 A 
HETATM   45  C29 UNL     1      16.551  19.782  17.955  1.00  0.00     0.050 C 
ENDBRANCH  35  37
ENDBRANCH   1  35
TORSDOF 13
ENDMDL
MODEL 5
REMARK VINA RESULT: -8.462923575      1.946      4.310
REMARK  13 active torsions:
REMARK  status: ('A' for Active; 'I' for Inactive)
REMARK    1  A    between atoms: C6_6  and  N1_7 
REMARK    2  A    between atoms: N1_7  and  C7_9 
REMARK    3  A    between atoms: C13_21  and  C14_22 
REMARK       I    between atoms: C14_22  and  N5_24 
REMARK    4  A    between atoms: N5_24  and  C15_26 
REMARK    5  A    between atoms: C15_26  and  C16_27 
REMARK    6  A    between atoms: C16_27  and  N6_28 
REMARK    7  A    between atoms: N7_31  and  C19_32 
REMARK    8  A    between atoms: C19_32  and  C20_33 
REMARK    9  A    between atoms: C20_33  and  C21_34 
REMARK   10  A    between atoms: C21_34  and  C22_35 
REMARK   11  A    between atoms: C22_35  and  C23_36 
REMARK   12  A    between atoms: C23_36  and  C24_37 
REMARK   13  A    between atoms: C24_37  and  O3_38 
ROOT
HETATM    1  C7  UNL     1      15.684  22.376  15.188  1.00  0.00     0.120 A 
HETATM    2  N2  UNL     1      15.957  22.311  13.879  1.00  0.00    -0.338 N 
ATOM      3  H2  UNL     1      16.727  22.858  13.493  1.00  0.00     0.168 HD
HETATM    4  C8  UNL     1      15.225  21.535  13.075  1.00  0.00     0.182 A 
HETATM    5  N3  UNL     1      14.205  20.799  13.536  1.00  0.00    -0.347 N 
ATOM      6  H3  UNL     1      13.666  20.216  12.896  1.00  0.00     0.167 HD
HETATM    7  C9  UNL     1      13.898  20.830  14.826  1.00  0.00     0.117 A 
HETATM    8  C10 UNL     1      12.818  20.093  15.320  1.00  0.00     0.275 A 
HETATM    9  O1  UNL     1      12.161  19.377  14.511  1.00  0.00    -0.265 OA
HETATM   10  N4  UNL     1      12.498  20.150  16.616  1.00  0.00    -0.326 N 
HETATM   11  C11 UNL     1      11.373  19.386  17.155  1.00  0.00     0.159 C 
HETATM   12  C12 UNL     1      13.188  20.902  17.480  1.00  0.00     0.112 A 
HETATM   13  C13 UNL     1      14.284  21.660  17.023  1.00  0.00     0.064 A 
HETATM   14  C27 UNL     1      14.650  21.638  15.703  1.00  0.00     0.057 A 
ENDROOT
BRANCH  13  15
HETATM   15  C14 UNL     1      15.066  22.376  18.045  1.00  0.00     0.258 C 
HETATM   16  O2  UNL     1      14.720  23.548  18.235  1.00  0.00    -0.267 OA
HETATM   17  N5  UNL     1      16.111  21.761  18.753  1.00  0.00    -0.332 N 
ATOM     18  H5  UNL     1      16.301  20.796  18.483  1.00  0.00     0.168 HD
BRANCH  17  19
HETATM   19  C15 UNL     1      16.939  22.264  19.775  1.00  0.00     0.108 C 
BRANCH  19  20
HETATM   20  C16 UNL     1      17.760  23.467  19.529  1.00  0.00     0.102 C 
BRANCH  20  21
HETATM   21  N6  UNL     1      19.156  23.372  19.379  1.00  0.00    -0.385 N 
HETATM   22  C17 UNL     1      19.784  22.191  19.871  1.00  0.00     0.152 C 
HETATM   23  C18 UNL     1      20.614  22.350  21.098  1.00  0.00     0.292 C 
HETATM   24  N7  UNL     1      21.426  23.542  21.114  1.00  0.00     0.091 N 
HETATM   25  C25 UNL     1      20.535  24.665  20.958  1.00  0.00     0.292 C 
HETATM   26  C26 UNL     1      19.804  24.609  19.619  1.00  0.00     0.152 C 
BRANCH  24  27
HETATM   27  C19 UNL     1      22.407  23.518  20.055  1.00  0.00     0.272 C 
BRANCH  27  28
HETATM   28  C20 UNL     1      23.630  24.325  20.426  1.00  0.00     0.030 C 
BRANCH  28  29
HETATM   29  C21 UNL     1      24.021  25.290  19.301  1.00  0.00     0.002 C 
BRANCH  29  30
HETATM   30  C22 UNL     1      23.137  26.498  19.462  1.00  0.00     0.002 C 
BRANCH  30  31
HETATM   31  C23 UNL     1      22.719  26.987  18.105  1.00  0.00     0.026 C 
BRANCH  31  32
HETATM   32  C24 UNL     1      21.261  27.380  18.099  1.00  0.00     0.164 C 
BRANCH  32  33
HETATM   33  O3  UNL     1      20.937  28.028  19.288  1.00  0.00    -0.401 OA
ATOM     34  H3  UNL     1      20.472  27.434  19.866  1.00  0.00     0.209 HD
ENDBRANCH  32  33
ENDBRANCH  31  32
ENDBRANCH  30  31
ENDBRANCH  29  30
ENDBRANCH  28  29
ENDBRANCH  27  28
ENDBRANCH  24  27
ENDBRANCH  20  21
ENDBRANCH  19  20
ENDBRANCH  17  19
ENDBRANCH  13  15
BRANCH   1  35
HETATM   35  N1  UNL     1      16.337  23.146  15.971  1.00  0.00    -0.341 N 
ATOM     36  H1  UNL     1      15.892  23.372  16.861  1.00  0.00     0.167 HD
BRANCH  35  37
HETATM   37  C6  UNL     1      17.595  23.713  15.743  1.00  0.00     0.045 A 
HETATM   38  C4  UNL     1      18.752  22.992  15.883  1.00  0.00    -0.034 A 
HETATM   39  C3  UNL     1      19.973  23.624  15.636  1.00  0.00     0.015 A 
HETATM   40  C5  UNL     1      18.672  21.590  16.285  1.00  0.00     0.050 C 
HETATM   41  C2  UNL     1      20.056  24.953  15.256  1.00  0.00    -0.061 A 
HETATM   42  C1  UNL     1      21.401  25.514  15.021  1.00  0.00     0.048 C 
HETATM   43  C30 UNL     1      18.882  25.668  15.118  1.00  0.00     0.015 A 
HETATM   44  C28 UNL     1      17.663  25.053  15.359  1.00  0.00    -0.034 A 
HETATM   45  C29 UNL     1      16.429  25.864  15.199  1.00  0.00     0.050 C 
ENDBRANCH  35  37
ENDBRANCH   1  35
TORSDOF 13
ENDMDL
