MODEL 1
REMARK VINA RESULT: -7.465622845      0.000      0.000
REMARK  14 active torsions:
REMARK  status: ('A' for Active; 'I' for Inactive)
REMARK    1  A    between atoms: C2_2  and  C3_3 
REMARK    2  A    between atoms: C3_3  and  N1_4 
REMARK    3  A    between atoms: C4_5  and  O1_6 
REMARK    4  A    between atoms: C7_10  and  O2_11 
REMARK    5  A    between atoms: N2_17  and  C11_18 
REMARK    6  A    between atoms: C11_18  and  C12_19 
REMARK    7  A    between atoms: C12_19  and  C13_20 
REMARK    8  A    between atoms: C13_20  and  O5_22 
REMARK    9  A    between atoms: O5_22  and  C14_23 
REMARK   10  A    between atoms: C18_28  and  C19_29 
REMARK   11  A    between atoms: C19_29  and  C20_30 
REMARK   12  A    between atoms: C22_32  and  O7_33 
REMARK   13  A    between atoms: O7_33  and  C23_34 
REMARK   14  A    between atoms: C25_36  and  N3_37 
ROOT
HETATM    1  N1  UNL     1      16.567  24.087  18.062  1.00  0.00    -0.308 N 
HETATM    2  C4  UNL     1      17.465  24.369  19.044  1.00  0.00     0.151 A 
HETATM    3  C5  UNL     1      18.696  24.660  18.451  1.00  0.00     0.010 A 
HETATM    4  C6  UNL     1      18.449  24.530  17.103  1.00  0.00     0.022 A 
HETATM    5  C7  UNL     1      17.142  24.178  16.875  1.00  0.00     0.152 A 
HETATM    6  C8  UNL     1      19.683  24.845  16.346  1.00  0.00     0.082 C 
HETATM    7  C9  UNL     1      20.181  23.649  15.560  1.00  0.00     0.032 C 
HETATM    8  C10 UNL     1      19.448  25.957  15.389  1.00  0.00     0.240 C 
HETATM    9  O3  UNL     1      18.718  25.835  14.362  1.00  0.00    -0.272 OA
HETATM   10  N2  UNL     1      20.131  27.125  15.779  1.00  0.00    -0.287 N 
HETATM   11  C16 UNL     1      20.641  26.859  17.081  1.00  0.00     0.233 C 
HETATM   12  O6  UNL     1      21.032  27.695  17.933  1.00  0.00    -0.272 OA
HETATM   13  C17 UNL     1      20.652  25.394  17.319  1.00  0.00     0.109 C 
HETATM   14  C18 UNL     1      20.106  25.034  18.688  1.00  0.00     0.044 C 
ENDROOT
BRANCH  14  15
HETATM   15  C19 UNL     1      20.967  23.917  19.203  1.00  0.00     0.067 C 
BRANCH  15  16
HETATM   16  C20 UNL     1      22.293  24.279  19.695  1.00  0.00     0.014 A 
HETATM   17  C21 UNL     1      22.646  25.295  20.557  1.00  0.00     0.065 A 
HETATM   18  C22 UNL     1      24.013  25.279  20.709  1.00  0.00     0.122 A 
HETATM   19  C25 UNL     1      24.510  24.237  19.926  1.00  0.00     0.240 A 
HETATM   20  N4  UNL     1      23.445  23.678  19.348  1.00  0.00    -0.337 N 
ATOM     21  H4  UNL     1      23.500  22.882  18.713  1.00  0.00     0.167 HD
BRANCH  18  22
HETATM   22  O7  UNL     1      24.782  26.116  21.479  1.00  0.00    -0.348 OA
BRANCH  22  23
HETATM   23  C23 UNL     1      25.142  25.976  22.810  1.00  0.00     0.171 C 
HETATM   24  C24 UNL     1      26.586  26.167  23.129  1.00  0.00     0.034 C 
ENDBRANCH  22  23
ENDBRANCH  18  22
BRANCH  19  25
HETATM   25  N3  UNL     1      25.887  23.885  19.806  1.00  0.00    -0.031 N 
HETATM   26  C26 UNL     1      26.099  22.993  18.673  1.00  0.00     0.280 C 
HETATM   27  C27 UNL     1      26.347  23.192  21.007  1.00  0.00     0.280 C 
HETATM   28  C28 UNL     1      26.725  25.051  19.581  1.00  0.00     0.280 C 
ENDBRANCH  19  25
ENDBRANCH  15  16
ENDBRANCH  14  15
BRANCH   2  29
HETATM   29  O1  UNL     1      17.182  24.369  20.394  1.00  0.00    -0.345 OA
ATOM     30  H1  UNL     1      17.543  24.981  21.024  1.00  0.00     0.219 HD
ENDBRANCH   2  29
BRANCH   1  31
HETATM   31  C3  UNL     1      15.181  23.735  18.325  1.00  0.00     0.133 C 
BRANCH  31  32
HETATM   32  C2  UNL     1      14.939  22.261  18.124  1.00  0.00     0.016 C 
HETATM   33  C1  UNL     1      15.013  21.596  19.492  1.00  0.00     0.006 C 
ENDBRANCH  31  32
ENDBRANCH   1  31
BRANCH   5  34
HETATM   34  O2  UNL     1      16.535  23.959  15.647  1.00  0.00    -0.345 OA
ATOM     35  H2  UNL     1      16.650  23.200  15.088  1.00  0.00     0.219 HD
ENDBRANCH   5  34
BRANCH  10  36
HETATM   36  C11 UNL     1      20.270  28.337  14.989  1.00  0.00     0.145 C 
BRANCH  36  37
HETATM   37  C12 UNL     1      21.395  28.256  13.999  1.00  0.00     0.131 C 
BRANCH  37  38
HETATM   38  C13 UNL     1      22.637  28.733  14.669  1.00  0.00     0.260 C 
HETATM   39  O4  UNL     1      22.865  29.973  14.844  1.00  0.00    -0.265 OA
BRANCH  38  40
HETATM   40  O5  UNL     1      23.618  27.866  15.144  1.00  0.00    -0.322 OA
BRANCH  40  41
HETATM   41  C14 UNL     1      24.176  27.963  16.426  1.00  0.00     0.174 C 
HETATM   42  C15 UNL     1      24.348  26.667  17.147  1.00  0.00     0.034 C 
ENDBRANCH  40  41
ENDBRANCH  38  40
ENDBRANCH  37  38
ENDBRANCH  36  37
ENDBRANCH  10  36
TORSDOF 14
ENDMDL
MODEL 2
REMARK VINA RESULT: -7.293116453      4.880     10.398
REMARK  14 active torsions:
REMARK  status: ('A' for Active; 'I' for Inactive)
REMARK    1  A    between atoms: C2_2  and  C3_3 
REMARK    2  A    between atoms: C3_3  and  N1_4 
REMARK    3  A    between atoms: C4_5  and  O1_6 
REMARK    4  A    between atoms: C7_10  and  O2_11 
REMARK    5  A    between atoms: N2_17  and  C11_18 
REMARK    6  A    between atoms: C11_18  and  C12_19 
REMARK    7  A    between atoms: C12_19  and  C13_20 
REMARK    8  A    between atoms: C13_20  and  O5_22 
REMARK    9  A    between atoms: O5_22  and  C14_23 
REMARK   10  A    between atoms: C18_28  and  C19_29 
REMARK   11  A    between atoms: C19_29  and  C20_30 
REMARK   12  A    between atoms: C22_32  and  O7_33 
REMARK   13  A    between atoms: O7_33  and  C23_34 
REMARK   14  A    between atoms: C25_36  and  N3_37 
ROOT
HETATM    1  N1  UNL     1      14.600  19.865  19.348  1.00  0.00    -0.308 N 
HETATM    2  C4  UNL     1      14.310  19.576  18.050  1.00  0.00     0.151 A 
HETATM    3  C5  UNL     1      14.495  20.729  17.285  1.00  0.00     0.010 A 
HETATM    4  C6  UNL     1      14.900  21.671  18.205  1.00  0.00     0.022 A 
HETATM    5  C7  UNL     1      14.960  21.132  19.465  1.00  0.00     0.152 A 
HETATM    6  C8  UNL     1      15.164  22.953  17.509  1.00  0.00     0.082 C 
HETATM    7  C9  UNL     1      14.234  24.050  17.982  1.00  0.00     0.032 C 
HETATM    8  C10 UNL     1      16.561  23.403  17.742  1.00  0.00     0.240 C 
HETATM    9  O3  UNL     1      16.973  23.804  18.869  1.00  0.00    -0.272 OA
HETATM   10  N2  UNL     1      17.331  23.322  16.565  1.00  0.00    -0.287 N 
HETATM   11  C16 UNL     1      16.521  22.632  15.620  1.00  0.00     0.233 C 
HETATM   12  O6  UNL     1      16.896  22.062  14.565  1.00  0.00    -0.272 OA
HETATM   13  C17 UNL     1      15.103  22.671  16.058  1.00  0.00     0.109 C 
HETATM   14  C18 UNL     1      14.428  21.318  15.931  1.00  0.00     0.044 C 
ENDROOT
BRANCH  14  15
HETATM   15  C19 UNL     1      13.036  21.589  15.439  1.00  0.00     0.067 C 
BRANCH  15  16
HETATM   16  C20 UNL     1      12.277  20.445  14.944  1.00  0.00     0.014 A 
HETATM   17  C21 UNL     1      11.543  19.522  15.659  1.00  0.00     0.065 A 
HETATM   18  C22 UNL     1      11.028  18.600  14.777  1.00  0.00     0.122 A 
HETATM   19  C25 UNL     1      11.453  18.962  13.498  1.00  0.00     0.240 A 
HETATM   20  N4  UNL     1      12.189  20.063  13.658  1.00  0.00    -0.337 N 
ATOM     21  H4  UNL     1      12.636  20.561  12.888  1.00  0.00     0.167 HD
BRANCH  18  22
HETATM   22  O7  UNL     1      10.238  17.515  15.062  1.00  0.00    -0.348 OA
BRANCH  22  23
HETATM   23  C23 UNL     1      10.619  16.277  15.558  1.00  0.00     0.171 C 
HETATM   24  C24 UNL     1      10.926  16.214  17.016  1.00  0.00     0.034 C 
ENDBRANCH  22  23
ENDBRANCH  18  22
BRANCH  19  25
HETATM   25  N3  UNL     1      11.133  18.260  12.298  1.00  0.00    -0.031 N 
HETATM   26  C26 UNL     1      11.270  19.129  11.136  1.00  0.00     0.280 C 
HETATM   27  C27 UNL     1       9.753  17.783  12.334  1.00  0.00     0.280 C 
HETATM   28  C28 UNL     1      12.021  17.130  12.081  1.00  0.00     0.280 C 
ENDBRANCH  19  25
ENDBRANCH  15  16
ENDBRANCH  14  15
BRANCH   2  29
HETATM   29  O1  UNL     1      13.908  18.339  17.591  1.00  0.00    -0.345 OA
ATOM     30  H1  UNL     1      14.258  17.509  17.892  1.00  0.00     0.219 HD
ENDBRANCH   2  29
BRANCH   1  31
HETATM   31  C3  UNL     1      14.509  18.891  20.423  1.00  0.00     0.133 C 
BRANCH  31  32
HETATM   32  C2  UNL     1      13.097  18.771  20.940  1.00  0.00     0.016 C 
HETATM   33  C1  UNL     1      12.581  17.396  20.541  1.00  0.00     0.006 C 
ENDBRANCH  31  32
ENDBRANCH   1  31
BRANCH   5  34
HETATM   34  O2  UNL     1      15.326  21.779  20.636  1.00  0.00    -0.345 OA
ATOM     35  H2  UNL     1      15.407  22.717  20.760  1.00  0.00     0.219 HD
ENDBRANCH   5  34
BRANCH  10  36
HETATM   36  C11 UNL     1      18.674  23.847  16.386  1.00  0.00     0.145 C 
BRANCH  36  37
HETATM   37  C12 UNL     1      18.696  25.340  16.231  1.00  0.00     0.131 C 
BRANCH  37  38
HETATM   38  C13 UNL     1      19.695  25.681  15.180  1.00  0.00     0.260 C 
HETATM   39  O4  UNL     1      20.676  24.913  14.918  1.00  0.00    -0.265 OA
BRANCH  38  40
HETATM   40  O5  UNL     1      19.622  26.848  14.423  1.00  0.00    -0.322 OA
BRANCH  40  41
HETATM   41  C14 UNL     1      20.323  28.019  14.744  1.00  0.00     0.174 C 
HETATM   42  C15 UNL     1      21.414  28.391  13.795  1.00  0.00     0.034 C 
ENDBRANCH  40  41
ENDBRANCH  38  40
ENDBRANCH  37  38
ENDBRANCH  36  37
ENDBRANCH  10  36
TORSDOF 14
ENDMDL
MODEL 3
REMARK VINA RESULT: -7.230040504      2.458      6.920
REMARK  14 active torsions:
REMARK  status: ('A' for Active; 'I' for Inactive)
REMARK    1  A    between atoms: C2_2  and  C3_3 
REMARK    2  A    between atoms: C3_3  and  N1_4 
REMARK    3  A    between atoms: C4_5  and  O1_6 
REMARK    4  A    between atoms: C7_10  and  O2_11 
REMARK    5  A    between atoms: N2_17  and  C11_18 
REMARK    6  A    between atoms: C11_18  and  C12_19 
REMARK    7  A    between atoms: C12_19  and  C13_20 
REMARK    8  A    between atoms: C13_20  and  O5_22 
REMARK    9  A    between atoms: O5_22  and  C14_23 
REMARK   10  A    between atoms: C18_28  and  C19_29 
REMARK   11  A    between atoms: C19_29  and  C20_30 
REMARK   12  A    between atoms: C22_32  and  O7_33 
REMARK   13  A    between atoms: O7_33  and  C23_34 
REMARK   14  A    between atoms: C25_36  and  N3_37 
ROOT
HETATM    1  N1  UNL     1      18.858  25.446  15.620  1.00  0.00    -0.308 N 
HETATM    2  C4  UNL     1      19.572  24.548  16.352  1.00  0.00     0.151 A 
HETATM    3  C5  UNL     1      18.681  23.755  17.078  1.00  0.00     0.010 A 
HETATM    4  C6  UNL     1      17.443  24.244  16.723  1.00  0.00     0.022 A 
HETATM    5  C7  UNL     1      17.563  25.280  15.830  1.00  0.00     0.152 A 
HETATM    6  C8  UNL     1      16.391  23.460  17.410  1.00  0.00     0.082 C 
HETATM    7  C9  UNL     1      15.576  24.319  18.355  1.00  0.00     0.032 C 
HETATM    8  C10 UNL     1      15.459  22.849  16.426  1.00  0.00     0.240 C 
HETATM    9  O3  UNL     1      14.650  23.532  15.733  1.00  0.00    -0.272 OA
HETATM   10  N2  UNL     1      15.602  21.449  16.381  1.00  0.00    -0.287 N 
HETATM   11  C16 UNL     1      16.753  21.152  17.165  1.00  0.00     0.233 C 
HETATM   12  O6  UNL     1      17.435  20.097  17.152  1.00  0.00    -0.272 OA
HETATM   13  C17 UNL     1      17.064  22.306  18.045  1.00  0.00     0.109 C 
HETATM   14  C18 UNL     1      18.544  22.644  18.042  1.00  0.00     0.044 C 
ENDROOT
BRANCH  14  15
HETATM   15  C19 UNL     1      18.895  23.002  19.458  1.00  0.00     0.067 C 
BRANCH  15  16
HETATM   16  C20 UNL     1      20.235  23.531  19.692  1.00  0.00     0.014 A 
HETATM   17  C21 UNL     1      21.425  22.845  19.808  1.00  0.00     0.065 A 
HETATM   18  C22 UNL     1      22.427  23.753  20.060  1.00  0.00     0.122 A 
HETATM   19  C25 UNL     1      21.842  25.019  20.101  1.00  0.00     0.240 A 
HETATM   20  N4  UNL     1      20.542  24.827  19.875  1.00  0.00    -0.337 N 
ATOM     21  H4  UNL     1      19.856  25.581  19.845  1.00  0.00     0.167 HD
BRANCH  18  22
HETATM   22  O7  UNL     1      23.763  23.501  20.243  1.00  0.00    -0.348 OA
BRANCH  22  23
HETATM   23  C23 UNL     1      24.643  22.849  19.392  1.00  0.00     0.171 C 
HETATM   24  C24 UNL     1      25.811  23.642  18.912  1.00  0.00     0.034 C 
ENDBRANCH  22  23
ENDBRANCH  18  22
BRANCH  19  25
HETATM   25  N3  UNL     1      22.544  26.239  20.339  1.00  0.00    -0.031 N 
HETATM   26  C26 UNL     1      21.615  27.355  20.467  1.00  0.00     0.280 C 
HETATM   27  C27 UNL     1      23.446  26.538  19.230  1.00  0.00     0.280 C 
HETATM   28  C28 UNL     1      23.308  26.190  21.574  1.00  0.00     0.280 C 
ENDBRANCH  19  25
ENDBRANCH  15  16
ENDBRANCH  14  15
BRANCH   2  29
HETATM   29  O1  UNL     1      20.948  24.452  16.354  1.00  0.00    -0.345 OA
ATOM     30  H1  UNL     1      21.543  25.192  16.325  1.00  0.00     0.219 HD
ENDBRANCH   2  29
BRANCH   1  31
HETATM   31  C3  UNL     1      19.471  26.433  14.747  1.00  0.00     0.133 C 
BRANCH  31  32
HETATM   32  C2  UNL     1      20.211  27.483  15.537  1.00  0.00     0.016 C 
HETATM   33  C1  UNL     1      21.112  28.233  14.567  1.00  0.00     0.006 C 
ENDBRANCH  31  32
ENDBRANCH   1  31
BRANCH   5  34
HETATM   34  O2  UNL     1      16.535  26.013  15.256  1.00  0.00    -0.345 OA
ATOM     35  H2  UNL     1      15.734  25.665  14.881  1.00  0.00     0.219 HD
ENDBRANCH   5  34
BRANCH  10  36
HETATM   36  C11 UNL     1      14.734  20.524  15.672  1.00  0.00     0.145 C 
BRANCH  36  37
HETATM   37  C12 UNL     1      13.310  20.592  16.140  1.00  0.00     0.131 C 
BRANCH  37  38
HETATM   38  C13 UNL     1      13.226  19.924  17.469  1.00  0.00     0.260 C 
HETATM   39  O4  UNL     1      12.802  18.729  17.588  1.00  0.00    -0.265 OA
BRANCH  38  40
HETATM   40  O5  UNL     1      13.604  20.552  18.654  1.00  0.00    -0.322 OA
BRANCH  40  41
HETATM   41  C14 UNL     1      14.275  19.894  19.693  1.00  0.00     0.174 C 
HETATM   42  C15 UNL     1      15.096  20.771  20.579  1.00  0.00     0.034 C 
ENDBRANCH  40  41
ENDBRANCH  38  40
ENDBRANCH  37  38
ENDBRANCH  36  37
ENDBRANCH  10  36
TORSDOF 14
ENDMDL
MODEL 4
REMARK VINA RESULT: -7.086175147      4.799     10.463
REMARK  14 active torsions:
REMARK  status: ('A' for Active; 'I' for Inactive)
REMARK    1  A    between atoms: C2_2  and  C3_3 
REMARK    2  A    between atoms: C3_3  and  N1_4 
REMARK    3  A    between atoms: C4_5  and  O1_6 
REMARK    4  A    between atoms: C7_10  and  O2_11 
REMARK    5  A    between atoms: N2_17  and  C11_18 
REMARK    6  A    between atoms: C11_18  and  C12_19 
REMARK    7  A    between atoms: C12_19  and  C13_20 
REMARK    8  A    between atoms: C13_20  and  O5_22 
REMARK    9  A    between atoms: O5_22  and  C14_23 
REMARK   10  A    between atoms: C18_28  and  C19_29 
REMARK   11  A    between atoms: C19_29  and  C20_30 
REMARK   12  A    between atoms: C22_32  and  O7_33 
REMARK   13  A    between atoms: O7_33  and  C23_34 
REMARK   14  A    between atoms: C25_36  and  N3_37 
ROOT
HETATM    1  N1  UNL     1      14.588  19.839  19.358  1.00  0.00    -0.308 N 
HETATM    2  C4  UNL     1      14.297  19.549  18.061  1.00  0.00     0.151 A 
HETATM    3  C5  UNL     1      14.495  20.697  17.292  1.00  0.00     0.010 A 
HETATM    4  C6  UNL     1      14.908  21.638  18.210  1.00  0.00     0.022 A 
HETATM    5  C7  UNL     1      14.961  21.102  19.472  1.00  0.00     0.152 A 
HETATM    6  C8  UNL     1      15.185  22.915  17.511  1.00  0.00     0.082 C 
HETATM    7  C9  UNL     1      14.265  24.023  17.979  1.00  0.00     0.032 C 
HETATM    8  C10 UNL     1      16.586  23.352  17.744  1.00  0.00     0.240 C 
HETATM    9  O3  UNL     1      17.000  23.752  18.871  1.00  0.00    -0.272 OA
HETATM   10  N2  UNL     1      17.357  23.260  16.570  1.00  0.00    -0.287 N 
HETATM   11  C16 UNL     1      16.542  22.575  15.624  1.00  0.00     0.233 C 
HETATM   12  O6  UNL     1      16.913  21.998  14.572  1.00  0.00    -0.272 OA
HETATM   13  C17 UNL     1      15.124  22.630  16.061  1.00  0.00     0.109 C 
HETATM   14  C18 UNL     1      14.436  21.283  15.937  1.00  0.00     0.044 C 
ENDROOT
BRANCH  14  15
HETATM   15  C19 UNL     1      13.047  21.566  15.441  1.00  0.00     0.067 C 
BRANCH  15  16
HETATM   16  C20 UNL     1      12.280  20.429  14.942  1.00  0.00     0.014 A 
HETATM   17  C21 UNL     1      11.537  19.511  15.652  1.00  0.00     0.065 A 
HETATM   18  C22 UNL     1      11.017  18.595  14.767  1.00  0.00     0.122 A 
HETATM   19  C25 UNL     1      11.449  18.956  13.490  1.00  0.00     0.240 A 
HETATM   20  N4  UNL     1      12.193  20.051  13.654  1.00  0.00    -0.337 N 
ATOM     21  H4  UNL     1      12.646  20.546  12.887  1.00  0.00     0.167 HD
BRANCH  18  22
HETATM   22  O7  UNL     1      10.218  17.515  15.048  1.00  0.00    -0.348 OA
BRANCH  22  23
HETATM   23  C23 UNL     1      10.590  16.267  15.522  1.00  0.00     0.171 C 
HETATM   24  C24 UNL     1      10.961  16.190  16.964  1.00  0.00     0.034 C 
ENDBRANCH  22  23
ENDBRANCH  18  22
BRANCH  19  25
HETATM   25  N3  UNL     1      11.126  18.259  12.287  1.00  0.00    -0.031 N 
HETATM   26  C26 UNL     1      11.273  19.130  11.128  1.00  0.00     0.280 C 
HETATM   27  C27 UNL     1       9.743  17.792  12.319  1.00  0.00     0.280 C 
HETATM   28  C28 UNL     1      12.007  17.124  12.070  1.00  0.00     0.280 C 
ENDBRANCH  19  25
ENDBRANCH  15  16
ENDBRANCH  14  15
BRANCH   2  29
HETATM   29  O1  UNL     1      13.884  18.314  17.604  1.00  0.00    -0.345 OA
ATOM     30  H1  UNL     1      13.773  17.544  18.149  1.00  0.00     0.219 HD
ENDBRANCH   2  29
BRANCH   1  31
HETATM   31  C3  UNL     1      14.486  18.869  20.436  1.00  0.00     0.133 C 
BRANCH  31  32
HETATM   32  C2  UNL     1      13.066  18.741  20.929  1.00  0.00     0.016 C 
HETATM   33  C1  UNL     1      12.577  17.350  20.552  1.00  0.00     0.006 C 
ENDBRANCH  31  32
ENDBRANCH   1  31
BRANCH   5  34
HETATM   34  O2  UNL     1      15.331  21.749  20.642  1.00  0.00    -0.345 OA
ATOM     35  H2  UNL     1      14.998  21.572  21.514  1.00  0.00     0.219 HD
ENDBRANCH   5  34
BRANCH  10  36
HETATM   36  C11 UNL     1      18.706  23.771  16.391  1.00  0.00     0.145 C 
BRANCH  36  37
HETATM   37  C12 UNL     1      18.775  25.267  16.486  1.00  0.00     0.131 C 
BRANCH  37  38
HETATM   38  C13 UNL     1      19.822  25.620  17.485  1.00  0.00     0.260 C 
HETATM   39  O4  UNL     1      20.301  26.797  17.560  1.00  0.00    -0.265 OA
BRANCH  38  40
HETATM   40  O5  UNL     1      20.339  24.698  18.392  1.00  0.00    -0.322 OA
BRANCH  40  41
HETATM   41  C14 UNL     1      20.781  25.047  19.675  1.00  0.00     0.174 C 
HETATM   42  C15 UNL     1      19.885  24.633  20.795  1.00  0.00     0.034 C 
ENDBRANCH  40  41
ENDBRANCH  38  40
ENDBRANCH  37  38
ENDBRANCH  36  37
ENDBRANCH  10  36
TORSDOF 14
ENDMDL
MODEL 5
REMARK VINA RESULT: -6.999804416      2.293      6.675
REMARK  14 active torsions:
REMARK  status: ('A' for Active; 'I' for Inactive)
REMARK    1  A    between atoms: C2_2  and  C3_3 
REMARK    2  A    between atoms: C3_3  and  N1_4 
REMARK    3  A    between atoms: C4_5  and  O1_6 
REMARK    4  A    between atoms: C7_10  and  O2_11 
REMARK    5  A    between atoms: N2_17  and  C11_18 
REMARK    6  A    between atoms: C11_18  and  C12_19 
REMARK    7  A    between atoms: C12_19  and  C13_20 
REMARK    8  A    between atoms: C13_20  and  O5_22 
REMARK    9  A    between atoms: O5_22  and  C14_23 
REMARK   10  A    between atoms: C18_28  and  C19_29 
REMARK   11  A    between atoms: C19_29  and  C20_30 
REMARK   12  A    between atoms: C22_32  and  O7_33 
REMARK   13  A    between atoms: O7_33  and  C23_34 
REMARK   14  A    between atoms: C25_36  and  N3_37 
ROOT
HETATM    1  N1  UNL     1      18.925  25.672  15.250  1.00  0.00    -0.308 N 
HETATM    2  C4  UNL     1      19.755  24.875  15.977  1.00  0.00     0.151 A 
HETATM    3  C5  UNL     1      18.988  24.137  16.879  1.00  0.00     0.010 A 
HETATM    4  C6  UNL     1      17.698  24.550  16.627  1.00  0.00     0.022 A 
HETATM    5  C7  UNL     1      17.671  25.491  15.628  1.00  0.00     0.152 A 
HETATM    6  C8  UNL     1      16.766  23.810  17.509  1.00  0.00     0.082 C 
HETATM    7  C9  UNL     1      16.031  24.738  18.455  1.00  0.00     0.032 C 
HETATM    8  C10 UNL     1      15.752  23.074  16.709  1.00  0.00     0.240 C 
HETATM    9  O3  UNL     1      14.842  23.658  16.053  1.00  0.00    -0.272 OA
HETATM   10  N2  UNL     1      15.947  21.682  16.787  1.00  0.00    -0.287 N 
HETATM   11  C16 UNL     1      17.192  21.501  17.453  1.00  0.00     0.233 C 
HETATM   12  O6  UNL     1      17.910  20.471  17.464  1.00  0.00    -0.272 OA
HETATM   13  C17 UNL     1      17.555  22.749  18.171  1.00  0.00     0.109 C 
HETATM   14  C18 UNL     1      19.009  23.128  17.958  1.00  0.00     0.044 C 
ENDROOT
BRANCH  14  15
HETATM   15  C19 UNL     1      19.506  23.640  19.279  1.00  0.00     0.067 C 
BRANCH  15  16
HETATM   16  C20 UNL     1      20.931  23.944  19.376  1.00  0.00     0.014 A 
HETATM   17  C21 UNL     1      21.915  23.259  20.056  1.00  0.00     0.065 A 
HETATM   18  C22 UNL     1      23.104  23.932  19.892  1.00  0.00     0.122 A 
HETATM   19  C25 UNL     1      22.846  25.050  19.099  1.00  0.00     0.240 A 
HETATM   20  N4  UNL     1      21.542  25.006  18.821  1.00  0.00    -0.337 N 
ATOM     21  H4  UNL     1      21.062  25.702  18.251  1.00  0.00     0.167 HD
BRANCH  18  22
HETATM   22  O7  UNL     1      24.334  23.597  20.399  1.00  0.00    -0.348 OA
BRANCH  22  23
HETATM   23  C23 UNL     1      24.852  23.866  21.657  1.00  0.00     0.171 C 
HETATM   24  C24 UNL     1      26.302  23.574  21.852  1.00  0.00     0.034 C 
ENDBRANCH  22  23
ENDBRANCH  18  22
BRANCH  19  25
HETATM   25  N3  UNL     1      23.820  26.012  18.696  1.00  0.00    -0.031 N 
HETATM   26  C26 UNL     1      24.993  25.358  18.131  1.00  0.00     0.280 C 
HETATM   27  C27 UNL     1      24.263  26.805  19.840  1.00  0.00     0.280 C 
HETATM   28  C28 UNL     1      23.305  26.904  17.670  1.00  0.00     0.280 C 
ENDBRANCH  19  25
ENDBRANCH  15  16
ENDBRANCH  14  15
BRANCH   2  29
HETATM   29  O1  UNL     1      21.126  24.820  15.824  1.00  0.00    -0.345 OA
ATOM     30  H1  UNL     1      21.682  24.128  16.162  1.00  0.00     0.219 HD
ENDBRANCH   2  29
BRANCH   1  31
HETATM   31  C3  UNL     1      19.392  26.581  14.216  1.00  0.00     0.133 C 
BRANCH  31  32
HETATM   32  C2  UNL     1      20.001  27.825  14.812  1.00  0.00     0.016 C 
HETATM   33  C1  UNL     1      21.259  28.143  14.015  1.00  0.00     0.006 C 
ENDBRANCH  31  32
ENDBRANCH   1  31
BRANCH   5  34
HETATM   34  O2  UNL     1      16.555  26.130  15.111  1.00  0.00    -0.345 OA
ATOM     35  H2  UNL     1      15.742  25.718  14.843  1.00  0.00     0.219 HD
ENDBRANCH   5  34
BRANCH  10  36
HETATM   36  C11 UNL     1      15.042  20.664  16.282  1.00  0.00     0.145 C 
BRANCH  36  37
HETATM   37  C12 UNL     1      13.840  20.471  17.159  1.00  0.00     0.131 C 
BRANCH  37  38
HETATM   38  C13 UNL     1      14.200  19.504  18.233  1.00  0.00     0.260 C 
HETATM   39  O4  UNL     1      15.040  18.568  18.032  1.00  0.00    -0.265 OA
BRANCH  38  40
HETATM   40  O5  UNL     1      13.651  19.558  19.512  1.00  0.00    -0.322 OA
BRANCH  40  41
HETATM   41  C14 UNL     1      14.406  19.828  20.662  1.00  0.00     0.174 C 
HETATM   42  C15 UNL     1      15.276  21.039  20.585  1.00  0.00     0.034 C 
ENDBRANCH  40  41
ENDBRANCH  38  40
ENDBRANCH  37  38
ENDBRANCH  36  37
ENDBRANCH  10  36
TORSDOF 14
ENDMDL
