MODEL 1
REMARK VINA RESULT: -10.209006880      0.000      0.000
REMARK  11 active torsions:
REMARK  status: ('A' for Active; 'I' for Inactive)
REMARK    1  A    between atoms: N1_9  and  C8_10 
REMARK    2  A    between atoms: C8_10  and  C9_11 
REMARK    3  A    between atoms: C9_11  and  C10_12 
REMARK    4  A    between atoms: C10_12  and  C11_13 
REMARK       I    between atoms: C11_13  and  N2_15 
REMARK    5  A    between atoms: N2_15  and  C12_17 
REMARK    6  A    between atoms: C12_17  and  C13_18 
REMARK    7  A    between atoms: C13_18  and  C14_19 
REMARK    8  A    between atoms: C14_19  and  C15_20 
REMARK    9  A    between atoms: C15_20  and  C16_21 
REMARK   10  A    between atoms: C16_21  and  C17_22 
REMARK       I    between atoms: C17_22  and  N3_24 
REMARK   11  A    between atoms: N3_24  and  C18_26 
ROOT
HETATM    1  C11 UNL     1      11.867  64.424  16.793  1.00  0.00     0.217 C 
HETATM    2  O2  UNL     1      11.000  65.259  16.443  1.00  0.00    -0.274 OA
HETATM    3  N2  UNL     1      12.186  64.235  18.133  1.00  0.00    -0.361 N 
ATOM      4  H2  UNL     1      12.911  63.552  18.354  1.00  0.00     0.162 HD
ENDROOT
BRANCH   3   5
HETATM    5  C12 UNL     1      11.570  64.934  19.233  1.00  0.00     0.122 C 
BRANCH   5   6
HETATM    6  C13 UNL     1      11.114  63.960  20.329  1.00  0.00     0.020 C 
BRANCH   6   7
HETATM    7  C14 UNL     1       9.876  64.608  20.920  1.00  0.00     0.002 C 
BRANCH   7   8
HETATM    8  C15 UNL     1       9.291  63.890  22.080  1.00  0.00     0.009 C 
BRANCH   8   9
HETATM    9  C16 UNL     1       7.936  63.315  21.903  1.00  0.00     0.103 C 
BRANCH   9  10
HETATM   10  C17 UNL     1       7.785  62.549  20.624  1.00  0.00     0.222 C 
HETATM   11  O3  UNL     1       6.929  62.979  19.834  1.00  0.00    -0.273 OA
HETATM   12  N3  UNL     1       8.560  61.423  20.342  1.00  0.00    -0.327 N 
ATOM     13  H3  UNL     1       9.225  61.161  21.071  1.00  0.00     0.169 HD
BRANCH  12  14
HETATM   14  C18 UNL     1       8.563  60.595  19.204  1.00  0.00     0.035 A 
HETATM   15  C19 UNL     1       8.109  59.311  19.183  1.00  0.00     0.030 A 
HETATM   16  C20 UNL     1       8.125  58.536  18.034  1.00  0.00     0.020 A 
HETATM   17  C21 UNL     1       8.611  59.038  16.848  1.00  0.00     0.048 A 
HETATM   18  C22 UNL     1       9.073  60.316  16.843  1.00  0.00     0.050 A 
HETATM   19  C25 UNL     1       8.736  58.431  15.533  1.00  0.00     0.259 A 
HETATM   20  C23 UNL     1       9.056  61.090  17.988  1.00  0.00     0.047 A 
HETATM   21  C24 UNL     1       9.521  60.576  15.488  1.00  0.00     0.259 A 
HETATM   22  O4  UNL     1      10.015  61.650  15.071  1.00  0.00    -0.267 OA
HETATM   23  N4  UNL     1       9.316  59.433  14.694  1.00  0.00    -0.289 N 
ATOM     24  H4  UNL     1       9.540  59.337  13.703  1.00  0.00     0.172 HD
HETATM   25  O5  UNL     1       8.404  57.264  15.197  1.00  0.00    -0.267 OA
ENDBRANCH  12  14
ENDBRANCH   9  10
ENDBRANCH   8   9
ENDBRANCH   7   8
ENDBRANCH   6   7
ENDBRANCH   5   6
ENDBRANCH   3   5
BRANCH   1  26
HETATM   26  C10 UNL     1      12.533  63.648  15.707  1.00  0.00     0.104 C 
BRANCH  26  27
HETATM   27  C9  UNL     1      13.778  64.368  15.245  1.00  0.00     0.029 C 
BRANCH  27  28
HETATM   28  C8  UNL     1      14.996  64.075  16.031  1.00  0.00     0.137 C 
BRANCH  28  29
HETATM   29  N1  UNL     1      15.871  65.199  16.282  1.00  0.00    -0.265 N 
HETATM   30  C7  UNL     1      15.735  66.105  17.257  1.00  0.00     0.264 A 
HETATM   31  C6  UNL     1      16.621  67.150  17.444  1.00  0.00     0.065 A 
HETATM   32  O1  UNL     1      14.763  65.992  18.020  1.00  0.00    -0.267 OA
HETATM   33  C4  UNL     1      16.418  68.065  18.483  1.00  0.00    -0.043 A 
HETATM   34  C28 UNL     1      17.686  67.267  16.596  1.00  0.00     0.055 A 
HETATM   35  C3  UNL     1      17.384  69.079  18.564  1.00  0.00     0.014 A 
HETATM   36  C5  UNL     1      15.293  67.980  19.413  1.00  0.00     0.049 C 
HETATM   37  C2  UNL     1      18.443  69.207  17.735  1.00  0.00    -0.059 A 
HETATM   38  C1  UNL     1      19.421  70.335  17.925  1.00  0.00     0.048 C 
HETATM   39  C29 UNL     1      18.612  68.289  16.723  1.00  0.00     0.037 A 
HETATM   40  N5  UNL     1      17.828  66.351  15.607  1.00  0.00    -0.303 N 
HETATM   41  C26 UNL     1      16.952  65.352  15.453  1.00  0.00     0.331 A 
HETATM   42  C27 UNL     1      18.986  66.515  14.733  1.00  0.00     0.161 C 
HETATM   43  O6  UNL     1      17.129  64.516  14.509  1.00  0.00    -0.246 OA
ENDBRANCH  28  29
ENDBRANCH  27  28
ENDBRANCH  26  27
ENDBRANCH   1  26
TORSDOF 11
ENDMDL
MODEL 2
REMARK VINA RESULT: -10.203701782      2.497      5.966
REMARK  11 active torsions:
REMARK  status: ('A' for Active; 'I' for Inactive)
REMARK    1  A    between atoms: N1_9  and  C8_10 
REMARK    2  A    between atoms: C8_10  and  C9_11 
REMARK    3  A    between atoms: C9_11  and  C10_12 
REMARK    4  A    between atoms: C10_12  and  C11_13 
REMARK       I    between atoms: C11_13  and  N2_15 
REMARK    5  A    between atoms: N2_15  and  C12_17 
REMARK    6  A    between atoms: C12_17  and  C13_18 
REMARK    7  A    between atoms: C13_18  and  C14_19 
REMARK    8  A    between atoms: C14_19  and  C15_20 
REMARK    9  A    between atoms: C15_20  and  C16_21 
REMARK   10  A    between atoms: C16_21  and  C17_22 
REMARK       I    between atoms: C17_22  and  N3_24 
REMARK   11  A    between atoms: N3_24  and  C18_26 
ROOT
HETATM    1  C11 UNL     1      15.789  66.543  18.851  1.00  0.00     0.217 C 
HETATM    2  O2  UNL     1      14.574  66.827  18.977  1.00  0.00    -0.274 OA
HETATM    3  N2  UNL     1      16.214  65.587  17.937  1.00  0.00    -0.361 N 
ATOM      4  H2  UNL     1      17.214  65.388  17.891  1.00  0.00     0.162 HD
ENDROOT
BRANCH   3   5
HETATM    5  C12 UNL     1      15.347  64.854  17.048  1.00  0.00     0.122 C 
BRANCH   5   6
HETATM    6  C13 UNL     1      15.362  65.452  15.633  1.00  0.00     0.020 C 
BRANCH   6   7
HETATM    7  C14 UNL     1      15.389  64.246  14.713  1.00  0.00     0.002 C 
BRANCH   7   8
HETATM    8  C15 UNL     1      14.561  63.100  15.164  1.00  0.00     0.009 C 
BRANCH   8   9
HETATM    9  C16 UNL     1      13.112  63.154  14.855  1.00  0.00     0.103 C 
BRANCH   9  10
HETATM   10  C17 UNL     1      12.277  63.593  16.019  1.00  0.00     0.222 C 
HETATM   11  O3  UNL     1      11.620  64.634  15.851  1.00  0.00    -0.273 OA
HETATM   12  N3  UNL     1      12.241  62.874  17.214  1.00  0.00    -0.327 N 
ATOM     13  H3  UNL     1      12.827  62.040  17.235  1.00  0.00     0.169 HD
BRANCH  12  14
HETATM   14  C18 UNL     1      11.516  63.127  18.394  1.00  0.00     0.035 A 
HETATM   15  C19 UNL     1      11.636  64.257  19.145  1.00  0.00     0.030 A 
HETATM   16  C20 UNL     1      10.895  64.465  20.299  1.00  0.00     0.020 A 
HETATM   17  C21 UNL     1       9.994  63.522  20.741  1.00  0.00     0.048 A 
HETATM   18  C22 UNL     1       9.858  62.384  20.010  1.00  0.00     0.050 A 
HETATM   19  C25 UNL     1       9.119  63.507  21.901  1.00  0.00     0.259 A 
HETATM   20  C23 UNL     1      10.596  62.177  18.860  1.00  0.00     0.047 A 
HETATM   21  C24 UNL     1       8.864  61.582  20.698  1.00  0.00     0.259 A 
HETATM   22  O4  UNL     1       8.454  60.453  20.338  1.00  0.00    -0.267 OA
HETATM   23  N4  UNL     1       8.416  62.263  21.845  1.00  0.00    -0.289 N 
ATOM     24  H4  UNL     1       7.720  61.931  22.512  1.00  0.00     0.172 HD
HETATM   25  O5  UNL     1       9.001  64.402  22.779  1.00  0.00    -0.267 OA
ENDBRANCH  12  14
ENDBRANCH   9  10
ENDBRANCH   8   9
ENDBRANCH   7   8
ENDBRANCH   6   7
ENDBRANCH   5   6
ENDBRANCH   3   5
BRANCH   1  26
HETATM   26  C10 UNL     1      16.748  67.278  19.726  1.00  0.00     0.104 C 
BRANCH  26  27
HETATM   27  C9  UNL     1      17.109  68.605  19.101  1.00  0.00     0.029 C 
BRANCH  27  28
HETATM   28  C8  UNL     1      18.438  68.647  18.453  1.00  0.00     0.137 C 
BRANCH  28  29
HETATM   29  N1  UNL     1      18.444  68.498  17.015  1.00  0.00    -0.265 N 
HETATM   30  C7  UNL     1      18.636  67.360  16.338  1.00  0.00     0.264 A 
HETATM   31  C6  UNL     1      18.617  67.291  14.957  1.00  0.00     0.065 A 
HETATM   32  O1  UNL     1      18.842  66.326  16.993  1.00  0.00    -0.267 OA
HETATM   33  C4  UNL     1      18.828  66.067  14.312  1.00  0.00    -0.043 A 
HETATM   34  C28 UNL     1      18.392  68.436  14.246  1.00  0.00     0.055 A 
HETATM   35  C3  UNL     1      18.787  66.131  12.912  1.00  0.00     0.014 A 
HETATM   36  C5  UNL     1      19.073  64.818  15.032  1.00  0.00     0.049 C 
HETATM   37  C2  UNL     1      18.565  67.255  12.195  1.00  0.00    -0.059 A 
HETATM   38  C1  UNL     1      18.535  67.199  10.691  1.00  0.00     0.048 C 
HETATM   39  C29 UNL     1      18.361  68.441  12.862  1.00  0.00     0.037 A 
HETATM   40  N5  UNL     1      18.197  69.592  14.927  1.00  0.00    -0.303 N 
HETATM   41  C26 UNL     1      18.223  69.624  16.265  1.00  0.00     0.331 A 
HETATM   42  C27 UNL     1      17.954  70.785  14.123  1.00  0.00     0.161 C 
HETATM   43  O6  UNL     1      18.033  70.734  16.859  1.00  0.00    -0.246 OA
ENDBRANCH  28  29
ENDBRANCH  27  28
ENDBRANCH  26  27
ENDBRANCH   1  26
TORSDOF 11
ENDMDL
MODEL 3
REMARK VINA RESULT: -10.096866576      0.998      1.517
REMARK  11 active torsions:
REMARK  status: ('A' for Active; 'I' for Inactive)
REMARK    1  A    between atoms: N1_9  and  C8_10 
REMARK    2  A    between atoms: C8_10  and  C9_11 
REMARK    3  A    between atoms: C9_11  and  C10_12 
REMARK    4  A    between atoms: C10_12  and  C11_13 
REMARK       I    between atoms: C11_13  and  N2_15 
REMARK    5  A    between atoms: N2_15  and  C12_17 
REMARK    6  A    between atoms: C12_17  and  C13_18 
REMARK    7  A    between atoms: C13_18  and  C14_19 
REMARK    8  A    between atoms: C14_19  and  C15_20 
REMARK    9  A    between atoms: C15_20  and  C16_21 
REMARK   10  A    between atoms: C16_21  and  C17_22 
REMARK       I    between atoms: C17_22  and  N3_24 
REMARK   11  A    between atoms: N3_24  and  C18_26 
ROOT
HETATM    1  C11 UNL     1      11.507  64.317  16.914  1.00  0.00     0.217 C 
HETATM    2  O2  UNL     1      11.102  65.449  16.557  1.00  0.00    -0.274 OA
HETATM    3  N2  UNL     1      11.563  63.963  18.257  1.00  0.00    -0.361 N 
ATOM      4  H2  UNL     1      11.916  63.034  18.486  1.00  0.00     0.162 HD
ENDROOT
BRANCH   3   5
HETATM    5  C12 UNL     1      11.160  64.812  19.350  1.00  0.00     0.122 C 
BRANCH   5   6
HETATM    6  C13 UNL     1      11.047  64.020  20.662  1.00  0.00     0.020 C 
BRANCH   6   7
HETATM    7  C14 UNL     1       9.769  64.528  21.302  1.00  0.00     0.002 C 
BRANCH   7   8
HETATM    8  C15 UNL     1       9.106  63.566  22.217  1.00  0.00     0.009 C 
BRANCH   8   9
HETATM    9  C16 UNL     1       7.798  63.019  21.786  1.00  0.00     0.103 C 
BRANCH   9  10
HETATM   10  C17 UNL     1       7.824  62.454  20.398  1.00  0.00     0.222 C 
HETATM   11  O3  UNL     1       7.062  62.994  19.580  1.00  0.00    -0.273 OA
HETATM   12  N3  UNL     1       8.656  61.389  20.050  1.00  0.00    -0.327 N 
ATOM     13  H3  UNL     1       9.232  61.023  20.809  1.00  0.00     0.169 HD
BRANCH  12  14
HETATM   14  C18 UNL     1       8.819  60.743  18.810  1.00  0.00     0.035 A 
HETATM   15  C19 UNL     1       9.878  60.934  17.975  1.00  0.00     0.030 A 
HETATM   16  C20 UNL     1       9.999  60.268  16.764  1.00  0.00     0.020 A 
HETATM   17  C21 UNL     1       9.038  59.375  16.348  1.00  0.00     0.048 A 
HETATM   18  C22 UNL     1       7.969  59.169  17.163  1.00  0.00     0.050 A 
HETATM   19  C25 UNL     1       8.937  58.572  15.141  1.00  0.00     0.259 A 
HETATM   20  C23 UNL     1       7.848  59.832  18.370  1.00  0.00     0.047 A 
HETATM   21  C24 UNL     1       7.128  58.201  16.485  1.00  0.00     0.259 A 
HETATM   22  O4  UNL     1       6.041  57.745  16.913  1.00  0.00    -0.267 OA
HETATM   23  N4  UNL     1       7.715  57.839  15.259  1.00  0.00    -0.289 N 
ATOM     24  H4  UNL     1       7.339  57.178  14.580  1.00  0.00     0.172 HD
HETATM   25  O5  UNL     1       9.756  58.528  14.185  1.00  0.00    -0.267 OA
ENDBRANCH  12  14
ENDBRANCH   9  10
ENDBRANCH   8   9
ENDBRANCH   7   8
ENDBRANCH   6   7
ENDBRANCH   5   6
ENDBRANCH   3   5
BRANCH   1  26
HETATM   26  C10 UNL     1      11.922  63.377  15.833  1.00  0.00     0.104 C 
BRANCH  26  27
HETATM   27  C9  UNL     1      13.273  63.776  15.289  1.00  0.00     0.029 C 
BRANCH  27  28
HETATM   28  C8  UNL     1      14.412  63.518  16.196  1.00  0.00     0.137 C 
BRANCH  28  29
HETATM   29  N1  UNL     1      15.307  64.632  16.419  1.00  0.00    -0.265 N 
HETATM   30  C7  UNL     1      15.254  65.498  17.438  1.00  0.00     0.264 A 
HETATM   31  C6  UNL     1      16.154  66.535  17.592  1.00  0.00     0.065 A 
HETATM   32  O1  UNL     1      14.349  65.352  18.273  1.00  0.00    -0.267 OA
HETATM   33  C4  UNL     1      16.040  67.407  18.681  1.00  0.00    -0.043 A 
HETATM   34  C28 UNL     1      17.146  66.687  16.665  1.00  0.00     0.055 A 
HETATM   35  C3  UNL     1      17.012  68.418  18.722  1.00  0.00     0.014 A 
HETATM   36  C5  UNL     1      14.996  67.283  19.696  1.00  0.00     0.049 C 
HETATM   37  C2  UNL     1      17.999  68.581  17.814  1.00  0.00    -0.059 A 
HETATM   38  C1  UNL     1      18.992  69.702  17.968  1.00  0.00     0.048 C 
HETATM   39  C29 UNL     1      18.081  67.704  16.756  1.00  0.00     0.037 A 
HETATM   40  N5  UNL     1      17.203  65.813  15.631  1.00  0.00    -0.303 N 
HETATM   41  C26 UNL     1      16.316  64.819  15.510  1.00  0.00     0.331 A 
HETATM   42  C27 UNL     1      18.285  66.013  14.672  1.00  0.00     0.161 C 
HETATM   43  O6  UNL     1      16.412  64.022  14.522  1.00  0.00    -0.246 OA
ENDBRANCH  28  29
ENDBRANCH  27  28
ENDBRANCH  26  27
ENDBRANCH   1  26
TORSDOF 11
ENDMDL
MODEL 4
REMARK VINA RESULT: -10.032849329      1.652      4.409
REMARK  11 active torsions:
REMARK  status: ('A' for Active; 'I' for Inactive)
REMARK    1  A    between atoms: N1_9  and  C8_10 
REMARK    2  A    between atoms: C8_10  and  C9_11 
REMARK    3  A    between atoms: C9_11  and  C10_12 
REMARK    4  A    between atoms: C10_12  and  C11_13 
REMARK       I    between atoms: C11_13  and  N2_15 
REMARK    5  A    between atoms: N2_15  and  C12_17 
REMARK    6  A    between atoms: C12_17  and  C13_18 
REMARK    7  A    between atoms: C13_18  and  C14_19 
REMARK    8  A    between atoms: C14_19  and  C15_20 
REMARK    9  A    between atoms: C15_20  and  C16_21 
REMARK   10  A    between atoms: C16_21  and  C17_22 
REMARK       I    between atoms: C17_22  and  N3_24 
REMARK   11  A    between atoms: N3_24  and  C18_26 
ROOT
HETATM    1  C11 UNL     1      11.306  62.326  15.515  1.00  0.00     0.217 C 
HETATM    2  O2  UNL     1      10.416  62.937  16.153  1.00  0.00    -0.274 OA
HETATM    3  N2  UNL     1      11.186  60.970  15.233  1.00  0.00    -0.361 N 
ATOM      4  H2  UNL     1      11.950  60.524  14.724  1.00  0.00     0.162 HD
ENDROOT
BRANCH   3   5
HETATM    5  C12 UNL     1      10.064  60.147  15.606  1.00  0.00     0.122 C 
BRANCH   5   6
HETATM    6  C13 UNL     1       9.123  59.910  14.415  1.00  0.00     0.020 C 
BRANCH   6   7
HETATM    7  C14 UNL     1       8.484  58.563  14.700  1.00  0.00     0.002 C 
BRANCH   7   8
HETATM    8  C15 UNL     1       7.128  58.632  15.299  1.00  0.00     0.009 C 
BRANCH   8   9
HETATM    9  C16 UNL     1       6.943  57.988  16.622  1.00  0.00     0.103 C 
BRANCH   9  10
HETATM   10  C17 UNL     1       7.512  58.790  17.752  1.00  0.00     0.222 C 
HETATM   11  O3  UNL     1       8.275  58.179  18.518  1.00  0.00    -0.273 OA
HETATM   12  N3  UNL     1       7.204  60.139  17.928  1.00  0.00    -0.327 N 
ATOM     13  H3  UNL     1       6.561  60.530  17.239  1.00  0.00     0.169 HD
BRANCH  12  14
HETATM   14  C18 UNL     1       7.648  61.042  18.914  1.00  0.00     0.035 A 
HETATM   15  C19 UNL     1       6.879  61.503  19.938  1.00  0.00     0.030 A 
HETATM   16  C20 UNL     1       7.362  62.388  20.891  1.00  0.00     0.020 A 
HETATM   17  C21 UNL     1       8.660  62.845  20.838  1.00  0.00     0.048 A 
HETATM   18  C22 UNL     1       9.447  62.402  19.822  1.00  0.00     0.050 A 
HETATM   19  C25 UNL     1       9.385  63.763  21.700  1.00  0.00     0.259 A 
HETATM   20  C23 UNL     1       8.966  61.519  18.873  1.00  0.00     0.047 A 
HETATM   21  C24 UNL     1      10.737  63.038  20.008  1.00  0.00     0.259 A 
HETATM   22  O4  UNL     1      11.743  62.885  19.275  1.00  0.00    -0.267 OA
HETATM   23  N4  UNL     1      10.700  63.863  21.147  1.00  0.00    -0.289 N 
ATOM     24  H4  UNL     1      11.467  64.428  21.509  1.00  0.00     0.172 HD
HETATM   25  O5  UNL     1       8.950  64.351  22.725  1.00  0.00    -0.267 OA
ENDBRANCH  12  14
ENDBRANCH   9  10
ENDBRANCH   8   9
ENDBRANCH   7   8
ENDBRANCH   6   7
ENDBRANCH   5   6
ENDBRANCH   3   5
BRANCH   1  26
HETATM   26  C10 UNL     1      12.490  63.120  15.078  1.00  0.00     0.104 C 
BRANCH  26  27
HETATM   27  C9  UNL     1      12.892  64.092  16.162  1.00  0.00     0.029 C 
BRANCH  27  28
HETATM   28  C8  UNL     1      14.169  63.778  16.840  1.00  0.00     0.137 C 
BRANCH  28  29
HETATM   29  N1  UNL     1      15.116  64.866  16.939  1.00  0.00    -0.265 N 
HETATM   30  C7  UNL     1      15.233  65.724  17.959  1.00  0.00     0.264 A 
HETATM   31  C6  UNL     1      16.174  66.736  17.989  1.00  0.00     0.065 A 
HETATM   32  O1  UNL     1      14.453  65.593  18.915  1.00  0.00    -0.267 OA
HETATM   33  C4  UNL     1      16.240  67.600  19.088  1.00  0.00    -0.043 A 
HETATM   34  C28 UNL     1      17.026  66.871  16.930  1.00  0.00     0.055 A 
HETATM   35  C3  UNL     1      17.234  68.585  18.996  1.00  0.00     0.014 A 
HETATM   36  C5  UNL     1      15.349  67.493  20.242  1.00  0.00     0.049 C 
HETATM   37  C2  UNL     1      18.085  68.731  17.956  1.00  0.00    -0.059 A 
HETATM   38  C1  UNL     1      19.119  69.824  17.973  1.00  0.00     0.048 C 
HETATM   39  C29 UNL     1      17.991  67.863  16.892  1.00  0.00     0.037 A 
HETATM   40  N5  UNL     1      16.911  66.005  15.893  1.00  0.00    -0.303 N 
HETATM   41  C26 UNL     1      15.989  65.037  15.895  1.00  0.00     0.331 A 
HETATM   42  C27 UNL     1      17.849  66.187  14.790  1.00  0.00     0.161 C 
HETATM   43  O6  UNL     1      15.921  64.247  14.899  1.00  0.00    -0.246 OA
ENDBRANCH  28  29
ENDBRANCH  27  28
ENDBRANCH  26  27
ENDBRANCH   1  26
TORSDOF 11
ENDMDL
MODEL 5
REMARK VINA RESULT: -10.030372857      2.112      5.504
REMARK  11 active torsions:
REMARK  status: ('A' for Active; 'I' for Inactive)
REMARK    1  A    between atoms: N1_9  and  C8_10 
REMARK    2  A    between atoms: C8_10  and  C9_11 
REMARK    3  A    between atoms: C9_11  and  C10_12 
REMARK    4  A    between atoms: C10_12  and  C11_13 
REMARK       I    between atoms: C11_13  and  N2_15 
REMARK    5  A    between atoms: N2_15  and  C12_17 
REMARK    6  A    between atoms: C12_17  and  C13_18 
REMARK    7  A    between atoms: C13_18  and  C14_19 
REMARK    8  A    between atoms: C14_19  and  C15_20 
REMARK    9  A    between atoms: C15_20  and  C16_21 
REMARK   10  A    between atoms: C16_21  and  C17_22 
REMARK       I    between atoms: C17_22  and  N3_24 
REMARK   11  A    between atoms: N3_24  and  C18_26 
ROOT
HETATM    1  C11 UNL     1      10.082  60.817  15.621  1.00  0.00     0.217 C 
HETATM    2  O2  UNL     1      10.698  60.184  16.511  1.00  0.00    -0.274 OA
HETATM    3  N2  UNL     1       9.620  60.183  14.474  1.00  0.00    -0.361 N 
ATOM      4  H2  UNL     1       9.140  60.755  13.779  1.00  0.00     0.162 HD
ENDROOT
BRANCH   3   5
HETATM    5  C12 UNL     1       9.769  58.777  14.193  1.00  0.00     0.122 C 
BRANCH   5   6
HETATM    6  C13 UNL     1       8.605  57.963  14.776  1.00  0.00     0.020 C 
BRANCH   6   7
HETATM    7  C14 UNL     1       7.373  58.799  14.482  1.00  0.00     0.002 C 
BRANCH   7   8
HETATM    8  C15 UNL     1       6.323  58.751  15.529  1.00  0.00     0.009 C 
BRANCH   8   9
HETATM    9  C16 UNL     1       6.628  57.971  16.753  1.00  0.00     0.103 C 
BRANCH   9  10
HETATM   10  C17 UNL     1       7.310  58.781  17.813  1.00  0.00     0.222 C 
HETATM   11  O3  UNL     1       8.261  58.228  18.389  1.00  0.00    -0.273 OA
HETATM   12  N3  UNL     1       6.901  60.077  18.128  1.00  0.00    -0.327 N 
ATOM     13  H3  UNL     1       6.105  60.423  17.593  1.00  0.00     0.169 HD
BRANCH  12  14
HETATM   14  C18 UNL     1       7.422  60.980  19.075  1.00  0.00     0.035 A 
HETATM   15  C19 UNL     1       6.669  61.690  19.960  1.00  0.00     0.030 A 
HETATM   16  C20 UNL     1       7.229  62.563  20.880  1.00  0.00     0.020 A 
HETATM   17  C21 UNL     1       8.591  62.753  20.937  1.00  0.00     0.048 A 
HETATM   18  C22 UNL     1       9.366  62.058  20.062  1.00  0.00     0.050 A 
HETATM   19  C25 UNL     1       9.403  63.602  21.794  1.00  0.00     0.259 A 
HETATM   20  C23 UNL     1       8.808  61.186  19.145  1.00  0.00     0.047 A 
HETATM   21  C24 UNL     1      10.734  62.450  20.339  1.00  0.00     0.259 A 
HETATM   22  O4  UNL     1      11.754  62.027  19.743  1.00  0.00    -0.267 OA
HETATM   23  N4  UNL     1      10.757  63.386  21.389  1.00  0.00    -0.289 N 
ATOM     24  H4  UNL     1      11.585  63.829  21.786  1.00  0.00     0.172 HD
HETATM   25  O5  UNL     1       9.001  64.371  22.706  1.00  0.00    -0.267 OA
ENDBRANCH  12  14
ENDBRANCH   9  10
ENDBRANCH   8   9
ENDBRANCH   7   8
ENDBRANCH   6   7
ENDBRANCH   5   6
ENDBRANCH   3   5
BRANCH   1  26
HETATM   26  C10 UNL     1       9.872  62.276  15.854  1.00  0.00     0.104 C 
BRANCH  26  27
HETATM   27  C9  UNL     1      10.978  62.827  16.723  1.00  0.00     0.029 C 
BRANCH  27  28
HETATM   28  C8  UNL     1      11.160  64.293  16.645  1.00  0.00     0.137 C 
BRANCH  28  29
HETATM   29  N1  UNL     1      12.518  64.769  16.789  1.00  0.00    -0.265 N 
HETATM   30  C7  UNL     1      13.455  64.790  15.836  1.00  0.00     0.264 A 
HETATM   31  C6  UNL     1      14.733  65.273  16.045  1.00  0.00     0.065 A 
HETATM   32  O1  UNL     1      13.150  64.349  14.717  1.00  0.00    -0.267 OA
HETATM   33  C4  UNL     1      15.667  65.262  15.002  1.00  0.00    -0.043 A 
HETATM   34  C28 UNL     1      15.059  65.754  17.282  1.00  0.00     0.055 A 
HETATM   35  C3  UNL     1      16.927  65.777  15.343  1.00  0.00     0.014 A 
HETATM   36  C5  UNL     1      15.363  64.758  13.664  1.00  0.00     0.049 C 
HETATM   37  C2  UNL     1      17.263  66.256  16.561  1.00  0.00    -0.059 A 
HETATM   38  C1  UNL     1      18.649  66.791  16.806  1.00  0.00     0.048 C 
HETATM   39  C29 UNL     1      16.320  66.251  17.563  1.00  0.00     0.037 A 
HETATM   40  N5  UNL     1      14.112  65.735  18.252  1.00  0.00    -0.303 N 
HETATM   41  C26 UNL     1      12.884  65.259  18.017  1.00  0.00     0.331 A 
HETATM   42  C27 UNL     1      14.508  66.266  19.553  1.00  0.00     0.161 C 
HETATM   43  O6  UNL     1      12.030  65.265  18.960  1.00  0.00    -0.246 OA
ENDBRANCH  28  29
ENDBRANCH  27  28
ENDBRANCH  26  27
ENDBRANCH   1  26
TORSDOF 11
ENDMDL
