MODEL 1
REMARK VINA RESULT: -8.266492692      0.000      0.000
REMARK  15 active torsions:
REMARK  status: ('A' for Active; 'I' for Inactive)
REMARK    1  A    between atoms: C2_2  and  C3_3 
REMARK    2  A    between atoms: C3_3  and  O1_5 
REMARK    3  A    between atoms: O1_5  and  C5_6 
REMARK       I    between atoms: C5_6  and  N1_8 
REMARK    4  A    between atoms: C8_14  and  C9_15 
REMARK       I    between atoms: C9_15  and  N3_17 
REMARK    5  A    between atoms: N3_17  and  C10_19 
REMARK    6  A    between atoms: C10_19  and  C11_20 
REMARK    7  A    between atoms: C10_19  and  C26_39 
REMARK    8  A    between atoms: C11_20  and  C12_21 
REMARK    9  A    between atoms: C12_21  and  C13_22 
REMARK       I    between atoms: C13_22  and  N4_24 
REMARK   10  A    between atoms: N4_24  and  C14_26 
REMARK   11  A    between atoms: C14_26  and  C15_27 
REMARK   12  A    between atoms: C14_26  and  C18_30 
REMARK   13  A    between atoms: C18_30  and  C21_33 
REMARK   14  A    between atoms: C21_33  and  C22_35 
REMARK   15  A    between atoms: C26_39  and  O7_41 
ROOT
HETATM    1  C10 UNL     1       9.372  60.565  15.984  1.00  0.00     0.184 C 
ENDROOT
BRANCH   1   2
HETATM    2  N3  UNL     1       8.725  60.769  17.259  1.00  0.00    -0.345 N 
HETATM    3  C9  UNL     1       8.374  59.695  18.139  1.00  0.00     0.243 C 
HETATM    4  O3  UNL     1       8.669  58.557  17.725  1.00  0.00    -0.271 OA
ATOM      5  H3  UNL     1       8.508  61.724  17.546  1.00  0.00     0.163 HD
BRANCH   3   6
HETATM    6  C8  UNL     1       7.721  59.883  19.422  1.00  0.00     0.209 C 
HETATM    7  N1  UNL     1       8.182  60.842  20.337  1.00  0.00    -0.289 N 
HETATM    8  C5  UNL     1       9.393  61.533  20.596  1.00  0.00     0.365 C 
HETATM    9  C6  UNL     1       7.001  61.092  21.221  1.00  0.00     0.362 C 
HETATM   10  O2  UNL     1      10.400  61.332  19.905  1.00  0.00    -0.238 OA
HETATM   11  N2  UNL     1       5.987  61.289  20.234  1.00  0.00    -0.057 N 
HETATM   12  C7  UNL     1       6.248  60.316  19.194  1.00  0.00     0.269 C 
ATOM     13  H22 UNL     1       5.039  61.239  20.608  1.00  0.00     0.279 HD
ATOM     14  H21 UNL     1       5.934  62.248  19.890  1.00  0.00     0.279 HD
BRANCH   8  15
HETATM   15  O1  UNL     1       9.515  62.457  21.624  1.00  0.00    -0.299 OA
BRANCH  15  16
HETATM   16  C3  UNL     1       9.279  63.838  21.470  1.00  0.00     0.129 C 
HETATM   17  C4  UNL     1       8.667  64.136  20.095  1.00  0.00     0.040 C 
BRANCH  16  18
HETATM   18  C2  UNL     1      10.626  64.533  21.490  1.00  0.00     0.028 C 
HETATM   19  C1  UNL     1      11.017  64.725  20.017  1.00  0.00     0.007 C 
ENDBRANCH  16  18
ENDBRANCH  15  16
ENDBRANCH   8  15
ENDBRANCH   3   6
ENDBRANCH   1   2
BRANCH   1  20
HETATM   20  C11 UNL     1      10.428  61.608  15.704  1.00  0.00     0.044 C 
BRANCH  20  21
HETATM   21  C12 UNL     1      10.340  62.749  16.712  1.00  0.00     0.105 C 
BRANCH  21  22
HETATM   22  C13 UNL     1      11.317  63.820  16.459  1.00  0.00     0.218 C 
HETATM   23  O4  UNL     1      10.902  64.993  16.410  1.00  0.00    -0.274 OA
HETATM   24  N4  UNL     1      12.660  63.528  16.282  1.00  0.00    -0.355 N 
ATOM     25  H4  UNL     1      12.917  62.542  16.338  1.00  0.00     0.162 HD
BRANCH  24  26
HETATM   26  C14 UNL     1      13.737  64.453  16.028  1.00  0.00     0.102 C 
BRANCH  26  27
HETATM   27  C15 UNL     1      14.422  64.692  17.344  1.00  0.00     0.001 C 
HETATM   28  C16 UNL     1      14.252  63.634  18.368  1.00  0.00     0.011 C 
HETATM   29  C17 UNL     1      13.877  66.021  17.895  1.00  0.00     0.011 C 
ENDBRANCH  26  27
BRANCH  26  30
HETATM   30  C18 UNL     1      14.599  64.109  14.883  1.00  0.00     0.035 C 
HETATM   31  C19 UNL     1      15.473  62.877  15.177  1.00  0.00     0.025 C 
HETATM   32  C20 UNL     1      13.655  63.603  13.779  1.00  0.00     0.025 C 
BRANCH  30  33
HETATM   33  C21 UNL     1      15.441  65.217  14.401  1.00  0.00     0.144 C 
HETATM   34  O5  UNL     1      14.854  66.006  13.623  1.00  0.00    -0.296 OA
BRANCH  33  35
HETATM   35  C22 UNL     1      16.827  65.540  14.679  1.00  0.00     0.010 C 
HETATM   36  C23 UNL     1      17.851  64.471  14.523  1.00  0.00     0.022 C 
HETATM   37  C24 UNL     1      17.049  66.150  16.064  1.00  0.00     0.022 C 
HETATM   38  C25 UNL     1      17.288  66.663  13.722  1.00  0.00     0.022 C 
ENDBRANCH  33  35
ENDBRANCH  30  33
ENDBRANCH  26  30
ENDBRANCH  24  26
ENDBRANCH  21  22
ENDBRANCH  20  21
ENDBRANCH   1  20
BRANCH   1  39
HETATM   39  C26 UNL     1       8.363  60.515  14.877  1.00  0.00     0.281 C 
HETATM   40  O6  UNL     1       8.007  61.578  14.306  1.00  0.00    -0.263 OA
BRANCH  39  41
HETATM   41  O7  UNL     1       7.796  59.337  14.446  1.00  0.00    -0.325 OA
HETATM   42  C27 UNL     1       8.549  58.137  14.306  1.00  0.00     0.213 C 
ENDBRANCH  39  41
ENDBRANCH   1  39
TORSDOF 15
ENDMDL
MODEL 2
REMARK VINA RESULT: -8.212947747      2.122      5.295
REMARK  15 active torsions:
REMARK  status: ('A' for Active; 'I' for Inactive)
REMARK    1  A    between atoms: C2_2  and  C3_3 
REMARK    2  A    between atoms: C3_3  and  O1_5 
REMARK    3  A    between atoms: O1_5  and  C5_6 
REMARK       I    between atoms: C5_6  and  N1_8 
REMARK    4  A    between atoms: C8_14  and  C9_15 
REMARK       I    between atoms: C9_15  and  N3_17 
REMARK    5  A    between atoms: N3_17  and  C10_19 
REMARK    6  A    between atoms: C10_19  and  C11_20 
REMARK    7  A    between atoms: C10_19  and  C26_39 
REMARK    8  A    between atoms: C11_20  and  C12_21 
REMARK    9  A    between atoms: C12_21  and  C13_22 
REMARK       I    between atoms: C13_22  and  N4_24 
REMARK   10  A    between atoms: N4_24  and  C14_26 
REMARK   11  A    between atoms: C14_26  and  C15_27 
REMARK   12  A    between atoms: C14_26  and  C18_30 
REMARK   13  A    between atoms: C18_30  and  C21_33 
REMARK   14  A    between atoms: C21_33  and  C22_35 
REMARK   15  A    between atoms: C26_39  and  O7_41 
ROOT
HETATM    1  C10 UNL     1       9.790  62.276  19.736  1.00  0.00     0.184 C 
ENDROOT
BRANCH   1   2
HETATM    2  N3  UNL     1       9.766  61.053  18.969  1.00  0.00    -0.345 N 
HETATM    3  C9  UNL     1       9.687  61.028  17.539  1.00  0.00     0.243 C 
HETATM    4  O3  UNL     1       9.640  62.148  16.994  1.00  0.00    -0.271 OA
ATOM      5  H3  UNL     1       9.808  60.165  19.469  1.00  0.00     0.163 HD
BRANCH   3   6
HETATM    6  C8  UNL     1       9.658  59.808  16.754  1.00  0.00     0.209 C 
HETATM    7  N1  UNL     1       8.487  59.044  16.642  1.00  0.00    -0.289 N 
HETATM    8  C5  UNL     1       7.287  58.867  17.378  1.00  0.00     0.365 C 
HETATM    9  C6  UNL     1       8.698  58.240  15.398  1.00  0.00     0.362 C 
HETATM   10  O2  UNL     1       7.087  59.493  18.427  1.00  0.00    -0.238 OA
HETATM   11  N2  UNL     1       9.121  59.271  14.503  1.00  0.00    -0.057 N 
HETATM   12  C7  UNL     1       9.988  60.137  15.273  1.00  0.00     0.269 C 
ATOM     13  H22 UNL     1       9.554  58.917  13.650  1.00  0.00     0.279 HD
ATOM     14  H21 UNL     1       8.348  59.763  14.054  1.00  0.00     0.279 HD
BRANCH   8  15
HETATM   15  O1  UNL     1       6.287  57.996  16.971  1.00  0.00    -0.299 OA
BRANCH  15  16
HETATM   16  C3  UNL     1       4.911  58.298  17.029  1.00  0.00     0.129 C 
HETATM   17  C4  UNL     1       4.067  57.047  16.756  1.00  0.00     0.040 C 
BRANCH  16  18
HETATM   18  C2  UNL     1       4.613  59.263  15.898  1.00  0.00     0.028 C 
HETATM   19  C1  UNL     1       3.087  59.437  15.893  1.00  0.00     0.007 C 
ENDBRANCH  16  18
ENDBRANCH  15  16
ENDBRANCH   8  15
ENDBRANCH   3   6
ENDBRANCH   1   2
BRANCH   1  20
HETATM   20  C11 UNL     1      11.162  62.578  20.291  1.00  0.00     0.044 C 
BRANCH  20  21
HETATM   21  C12 UNL     1      11.336  64.077  20.515  1.00  0.00     0.105 C 
BRANCH  21  22
HETATM   22  C13 UNL     1      11.814  64.789  19.319  1.00  0.00     0.218 C 
HETATM   23  O4  UNL     1      10.971  65.160  18.482  1.00  0.00    -0.274 OA
HETATM   24  N4  UNL     1      13.165  65.037  19.135  1.00  0.00    -0.355 N 
ATOM     25  H4  UNL     1      13.789  64.699  19.868  1.00  0.00     0.162 HD
BRANCH  24  26
HETATM   26  C14 UNL     1      13.793  65.716  18.028  1.00  0.00     0.102 C 
BRANCH  26  27
HETATM   27  C15 UNL     1      14.655  66.797  18.616  1.00  0.00     0.001 C 
HETATM   28  C16 UNL     1      15.014  66.638  20.046  1.00  0.00     0.011 C 
HETATM   29  C17 UNL     1      13.897  68.122  18.429  1.00  0.00     0.011 C 
ENDBRANCH  26  27
BRANCH  26  30
HETATM   30  C18 UNL     1      14.422  64.833  17.029  1.00  0.00     0.035 C 
HETATM   31  C19 UNL     1      15.759  65.404  16.525  1.00  0.00     0.025 C 
HETATM   32  C20 UNL     1      14.857  63.571  17.794  1.00  0.00     0.025 C 
BRANCH  30  33
HETATM   33  C21 UNL     1      13.558  64.496  15.886  1.00  0.00     0.144 C 
HETATM   34  O5  UNL     1      12.419  65.019  15.932  1.00  0.00    -0.296 OA
BRANCH  33  35
HETATM   35  C22 UNL     1      13.808  63.664  14.725  1.00  0.00     0.010 C 
HETATM   36  C23 UNL     1      14.995  62.765  14.736  1.00  0.00     0.022 C 
HETATM   37  C24 UNL     1      13.875  64.447  13.412  1.00  0.00     0.022 C 
HETATM   38  C25 UNL     1      12.605  62.717  14.509  1.00  0.00     0.022 C 
ENDBRANCH  33  35
ENDBRANCH  30  33
ENDBRANCH  26  30
ENDBRANCH  24  26
ENDBRANCH  21  22
ENDBRANCH  20  21
ENDBRANCH   1  20
BRANCH   1  39
HETATM   39  C26 UNL     1       8.767  62.239  20.830  1.00  0.00     0.281 C 
HETATM   40  O6  UNL     1       8.944  61.493  21.827  1.00  0.00    -0.263 OA
BRANCH  39  41
HETATM   41  O7  UNL     1       7.619  62.998  20.796  1.00  0.00    -0.325 OA
HETATM   42  C27 UNL     1       6.454  62.583  20.089  1.00  0.00     0.213 C 
ENDBRANCH  39  41
ENDBRANCH   1  39
TORSDOF 15
ENDMDL
MODEL 3
REMARK VINA RESULT: -8.043116789      2.505      8.773
REMARK  15 active torsions:
REMARK  status: ('A' for Active; 'I' for Inactive)
REMARK    1  A    between atoms: C2_2  and  C3_3 
REMARK    2  A    between atoms: C3_3  and  O1_5 
REMARK    3  A    between atoms: O1_5  and  C5_6 
REMARK       I    between atoms: C5_6  and  N1_8 
REMARK    4  A    between atoms: C8_14  and  C9_15 
REMARK       I    between atoms: C9_15  and  N3_17 
REMARK    5  A    between atoms: N3_17  and  C10_19 
REMARK    6  A    between atoms: C10_19  and  C11_20 
REMARK    7  A    between atoms: C10_19  and  C26_39 
REMARK    8  A    between atoms: C11_20  and  C12_21 
REMARK    9  A    between atoms: C12_21  and  C13_22 
REMARK       I    between atoms: C13_22  and  N4_24 
REMARK   10  A    between atoms: N4_24  and  C14_26 
REMARK   11  A    between atoms: C14_26  and  C15_27 
REMARK   12  A    between atoms: C14_26  and  C18_30 
REMARK   13  A    between atoms: C18_30  and  C21_33 
REMARK   14  A    between atoms: C21_33  and  C22_35 
REMARK   15  A    between atoms: C26_39  and  O7_41 
ROOT
HETATM    1  C10 UNL     1      12.782  62.219  16.519  1.00  0.00     0.184 C 
ENDROOT
BRANCH   1   2
HETATM    2  N3  UNL     1      13.498  63.467  16.390  1.00  0.00    -0.345 N 
HETATM    3  C9  UNL     1      14.805  63.564  15.813  1.00  0.00     0.243 C 
HETATM    4  O3  UNL     1      15.289  62.484  15.422  1.00  0.00    -0.271 OA
ATOM      5  H3  UNL     1      13.051  64.320  16.728  1.00  0.00     0.163 HD
BRANCH   3   6
HETATM    6  C8  UNL     1      15.538  64.809  15.680  1.00  0.00     0.209 C 
HETATM    7  N1  UNL     1      15.972  65.520  16.809  1.00  0.00    -0.289 N 
HETATM    8  C5  UNL     1      15.616  65.612  18.178  1.00  0.00     0.365 C 
HETATM    9  C6  UNL     1      17.083  66.377  16.290  1.00  0.00     0.362 C 
HETATM   10  O2  UNL     1      14.684  64.940  18.640  1.00  0.00    -0.238 OA
HETATM   11  N2  UNL     1      17.836  65.402  15.567  1.00  0.00    -0.057 N 
HETATM   12  C7  UNL     1      16.864  64.550  14.915  1.00  0.00     0.269 C 
ATOM     13  H22 UNL     1      18.518  65.806  14.926  1.00  0.00     0.279 HD
ATOM     14  H21 UNL     1      18.502  64.890  16.147  1.00  0.00     0.279 HD
BRANCH   8  15
HETATM   15  O1  UNL     1      16.279  66.450  19.064  1.00  0.00    -0.299 OA
BRANCH  15  16
HETATM   16  C3  UNL     1      15.649  67.476  19.796  1.00  0.00     0.129 C 
HETATM   17  C4  UNL     1      14.897  68.430  18.861  1.00  0.00     0.040 C 
BRANCH  16  18
HETATM   18  C2  UNL     1      16.739  68.300  20.451  1.00  0.00     0.028 C 
HETATM   19  C1  UNL     1      17.905  68.316  19.451  1.00  0.00     0.007 C 
ENDBRANCH  16  18
ENDBRANCH  15  16
ENDBRANCH   8  15
ENDBRANCH   3   6
ENDBRANCH   1   2
BRANCH   1  20
HETATM   20  C11 UNL     1      11.548  62.175  15.650  1.00  0.00     0.044 C 
BRANCH  20  21
HETATM   21  C12 UNL     1      10.928  60.781  15.663  1.00  0.00     0.105 C 
BRANCH  21  22
HETATM   22  C13 UNL     1       9.496  60.789  16.003  1.00  0.00     0.218 C 
HETATM   23  O4  UNL     1       8.758  61.600  15.413  1.00  0.00    -0.274 OA
HETATM   24  N4  UNL     1       8.988  59.917  16.952  1.00  0.00    -0.355 N 
ATOM     25  H4  UNL     1       9.661  59.285  17.388  1.00  0.00     0.162 HD
BRANCH  24  26
HETATM   26  C14 UNL     1       7.621  59.797  17.396  1.00  0.00     0.102 C 
BRANCH  26  27
HETATM   27  C15 UNL     1       6.986  58.725  16.557  1.00  0.00     0.001 C 
HETATM   28  C16 UNL     1       7.909  57.913  15.728  1.00  0.00     0.011 C 
HETATM   29  C17 UNL     1       5.966  59.424  15.640  1.00  0.00     0.011 C 
ENDBRANCH  26  27
BRANCH  26  30
HETATM   30  C18 UNL     1       7.446  59.688  18.856  1.00  0.00     0.035 C 
HETATM   31  C19 UNL     1       6.002  59.316  19.231  1.00  0.00     0.025 C 
HETATM   32  C20 UNL     1       8.243  58.445  19.287  1.00  0.00     0.025 C 
BRANCH  30  33
HETATM   33  C21 UNL     1       7.868  60.882  19.609  1.00  0.00     0.144 C 
HETATM   34  O5  UNL     1       8.255  61.832  18.887  1.00  0.00    -0.296 OA
BRANCH  33  35
HETATM   35  C22 UNL     1       7.907  61.134  21.036  1.00  0.00     0.010 C 
HETATM   36  C23 UNL     1       7.640  60.003  21.966  1.00  0.00     0.022 C 
HETATM   37  C24 UNL     1       6.997  62.280  21.482  1.00  0.00     0.022 C 
HETATM   38  C25 UNL     1       9.318  61.633  21.425  1.00  0.00     0.022 C 
ENDBRANCH  33  35
ENDBRANCH  30  33
ENDBRANCH  26  30
ENDBRANCH  24  26
ENDBRANCH  21  22
ENDBRANCH  20  21
ENDBRANCH   1  20
BRANCH   1  39
HETATM   39  C26 UNL     1      12.438  61.948  17.952  1.00  0.00     0.281 C 
HETATM   40  O6  UNL     1      13.060  61.057  18.586  1.00  0.00    -0.263 OA
BRANCH  39  41
HETATM   41  O7  UNL     1      11.454  62.640  18.621  1.00  0.00    -0.325 OA
HETATM   42  C27 UNL     1      11.753  63.610  19.621  1.00  0.00     0.213 C 
ENDBRANCH  39  41
ENDBRANCH   1  39
TORSDOF 15
ENDMDL
MODEL 4
REMARK VINA RESULT: -8.011066238      2.464      8.986
REMARK  15 active torsions:
REMARK  status: ('A' for Active; 'I' for Inactive)
REMARK    1  A    between atoms: C2_2  and  C3_3 
REMARK    2  A    between atoms: C3_3  and  O1_5 
REMARK    3  A    between atoms: O1_5  and  C5_6 
REMARK       I    between atoms: C5_6  and  N1_8 
REMARK    4  A    between atoms: C8_14  and  C9_15 
REMARK       I    between atoms: C9_15  and  N3_17 
REMARK    5  A    between atoms: N3_17  and  C10_19 
REMARK    6  A    between atoms: C10_19  and  C11_20 
REMARK    7  A    between atoms: C10_19  and  C26_39 
REMARK    8  A    between atoms: C11_20  and  C12_21 
REMARK    9  A    between atoms: C12_21  and  C13_22 
REMARK       I    between atoms: C13_22  and  N4_24 
REMARK   10  A    between atoms: N4_24  and  C14_26 
REMARK   11  A    between atoms: C14_26  and  C15_27 
REMARK   12  A    between atoms: C14_26  and  C18_30 
REMARK   13  A    between atoms: C18_30  and  C21_33 
REMARK   14  A    between atoms: C21_33  and  C22_35 
REMARK   15  A    between atoms: C26_39  and  O7_41 
ROOT
HETATM    1  C10 UNL     1      12.207  63.293  16.256  1.00  0.00     0.184 C 
ENDROOT
BRANCH   1   2
HETATM    2  N3  UNL     1      13.236  64.099  15.641  1.00  0.00    -0.345 N 
HETATM    3  C9  UNL     1      14.625  63.971  15.961  1.00  0.00     0.243 C 
HETATM    4  O3  UNL     1      14.892  63.106  16.818  1.00  0.00    -0.271 OA
ATOM      5  H3  UNL     1      12.958  64.792  14.945  1.00  0.00     0.163 HD
BRANCH   3   6
HETATM    6  C8  UNL     1      15.670  64.776  15.354  1.00  0.00     0.209 C 
HETATM    7  N1  UNL     1      16.429  65.676  16.118  1.00  0.00    -0.289 N 
HETATM    8  C5  UNL     1      16.285  66.378  17.342  1.00  0.00     0.365 C 
HETATM    9  C6  UNL     1      17.670  65.879  15.307  1.00  0.00     0.362 C 
HETATM   10  O2  UNL     1      15.261  66.259  18.027  1.00  0.00    -0.238 OA
HETATM   11  N2  UNL     1      18.009  64.520  15.025  1.00  0.00    -0.057 N 
HETATM   12  C7  UNL     1      16.758  63.845  14.754  1.00  0.00     0.269 C 
ATOM     13  H22 UNL     1      18.696  64.419  14.277  1.00  0.00     0.279 HD
ATOM     14  H21 UNL     1      18.561  64.077  15.760  1.00  0.00     0.279 HD
BRANCH   8  15
HETATM   15  O1  UNL     1      17.269  67.225  17.832  1.00  0.00    -0.299 OA
BRANCH  15  16
HETATM   16  C3  UNL     1      17.000  68.389  18.580  1.00  0.00     0.129 C 
HETATM   17  C4  UNL     1      17.722  69.602  17.980  1.00  0.00     0.040 C 
BRANCH  16  18
HETATM   18  C2  UNL     1      17.593  68.187  19.960  1.00  0.00     0.028 C 
HETATM   19  C1  UNL     1      16.407  67.851  20.877  1.00  0.00     0.007 C 
ENDBRANCH  16  18
ENDBRANCH  15  16
ENDBRANCH   8  15
ENDBRANCH   3   6
ENDBRANCH   1   2
BRANCH   1  20
HETATM   20  C11 UNL     1      11.511  62.394  15.262  1.00  0.00     0.044 C 
BRANCH  20  21
HETATM   21  C12 UNL     1      11.078  61.090  15.924  1.00  0.00     0.105 C 
BRANCH  21  22
HETATM   22  C13 UNL     1       9.630  61.022  16.174  1.00  0.00     0.218 C 
HETATM   23  O4  UNL     1       8.891  61.820  15.567  1.00  0.00    -0.274 OA
HETATM   24  N4  UNL     1       9.106  60.095  17.060  1.00  0.00    -0.355 N 
ATOM     25  H4  UNL     1       9.779  59.478  17.516  1.00  0.00     0.162 HD
BRANCH  24  26
HETATM   26  C14 UNL     1       7.722  59.899  17.414  1.00  0.00     0.102 C 
BRANCH  26  27
HETATM   27  C15 UNL     1       7.197  58.807  16.525  1.00  0.00     0.001 C 
HETATM   28  C16 UNL     1       8.212  58.057  15.748  1.00  0.00     0.011 C 
HETATM   29  C17 UNL     1       6.202  59.465  15.553  1.00  0.00     0.011 C 
ENDBRANCH  26  27
BRANCH  26  30
HETATM   30  C18 UNL     1       7.460  59.762  18.859  1.00  0.00     0.035 C 
HETATM   31  C19 UNL     1       5.993  59.396  19.141  1.00  0.00     0.025 C 
HETATM   32  C20 UNL     1       8.219  58.502  19.309  1.00  0.00     0.025 C 
BRANCH  30  33
HETATM   33  C21 UNL     1       7.847  60.935  19.661  1.00  0.00     0.144 C 
HETATM   34  O5  UNL     1       8.154  61.942  18.979  1.00  0.00    -0.296 OA
BRANCH  33  35
HETATM   35  C22 UNL     1       7.929  61.113  21.097  1.00  0.00     0.010 C 
HETATM   36  C23 UNL     1       7.786  59.916  21.971  1.00  0.00     0.022 C 
HETATM   37  C24 UNL     1       6.957  62.161  21.642  1.00  0.00     0.022 C 
HETATM   38  C25 UNL     1       9.314  61.696  21.458  1.00  0.00     0.022 C 
ENDBRANCH  33  35
ENDBRANCH  30  33
ENDBRANCH  26  30
ENDBRANCH  24  26
ENDBRANCH  21  22
ENDBRANCH  20  21
ENDBRANCH   1  20
BRANCH   1  39
HETATM   39  C26 UNL     1      11.218  64.154  16.982  1.00  0.00     0.281 C 
HETATM   40  O6  UNL     1      10.849  65.245  16.476  1.00  0.00    -0.263 OA
BRANCH  39  41
HETATM   41  O7  UNL     1      10.684  63.802  18.201  1.00  0.00    -0.325 OA
HETATM   42  C27 UNL     1      11.205  64.297  19.431  1.00  0.00     0.213 C 
ENDBRANCH  39  41
ENDBRANCH   1  39
TORSDOF 15
ENDMDL
MODEL 5
REMARK VINA RESULT: -7.985325062      3.383      9.303
REMARK  15 active torsions:
REMARK  status: ('A' for Active; 'I' for Inactive)
REMARK    1  A    between atoms: C2_2  and  C3_3 
REMARK    2  A    between atoms: C3_3  and  O1_5 
REMARK    3  A    between atoms: O1_5  and  C5_6 
REMARK       I    between atoms: C5_6  and  N1_8 
REMARK    4  A    between atoms: C8_14  and  C9_15 
REMARK       I    between atoms: C9_15  and  N3_17 
REMARK    5  A    between atoms: N3_17  and  C10_19 
REMARK    6  A    between atoms: C10_19  and  C11_20 
REMARK    7  A    between atoms: C10_19  and  C26_39 
REMARK    8  A    between atoms: C11_20  and  C12_21 
REMARK    9  A    between atoms: C12_21  and  C13_22 
REMARK       I    between atoms: C13_22  and  N4_24 
REMARK   10  A    between atoms: N4_24  and  C14_26 
REMARK   11  A    between atoms: C14_26  and  C15_27 
REMARK   12  A    between atoms: C14_26  and  C18_30 
REMARK   13  A    between atoms: C18_30  and  C21_33 
REMARK   14  A    between atoms: C21_33  and  C22_35 
REMARK   15  A    between atoms: C26_39  and  O7_41 
ROOT
HETATM    1  C10 UNL     1      16.189  64.899  15.226  1.00  0.00     0.184 C 
ENDROOT
BRANCH   1   2
HETATM    2  N3  UNL     1      16.777  65.382  16.453  1.00  0.00    -0.345 N 
HETATM    3  C9  UNL     1      16.031  66.079  17.457  1.00  0.00     0.243 C 
HETATM    4  O3  UNL     1      14.823  66.243  17.198  1.00  0.00    -0.271 OA
ATOM      5  H3  UNL     1      17.772  65.219  16.612  1.00  0.00     0.163 HD
BRANCH   3   6
HETATM    6  C8  UNL     1      16.608  66.574  18.694  1.00  0.00     0.209 C 
HETATM    7  N1  UNL     1      17.376  67.748  18.718  1.00  0.00    -0.289 N 
HETATM    8  C5  UNL     1      18.131  68.514  17.794  1.00  0.00     0.365 C 
HETATM    9  C6  UNL     1      17.320  68.186  20.147  1.00  0.00     0.362 C 
HETATM   10  O2  UNL     1      18.225  68.169  16.609  1.00  0.00    -0.238 OA
HETATM   11  N2  UNL     1      15.914  68.095  20.382  1.00  0.00    -0.057 N 
HETATM   12  C7  UNL     1      15.473  66.894  19.703  1.00  0.00     0.269 C 
ATOM     13  H22 UNL     1      15.663  68.118  21.370  1.00  0.00     0.279 HD
ATOM     14  H21 UNL     1      15.399  68.931  20.104  1.00  0.00     0.279 HD
BRANCH   8  15
HETATM   15  O1  UNL     1      18.797  69.675  18.160  1.00  0.00    -0.299 OA
BRANCH  15  16
HETATM   16  C3  UNL     1      19.542  70.469  17.264  1.00  0.00     0.129 C 
HETATM   17  C4  UNL     1      20.762  71.081  17.963  1.00  0.00     0.040 C 
BRANCH  16  18
HETATM   18  C2  UNL     1      18.663  71.634  16.855  1.00  0.00     0.028 C 
HETATM   19  C1  UNL     1      18.501  71.518  15.332  1.00  0.00     0.007 C 
ENDBRANCH  16  18
ENDBRANCH  15  16
ENDBRANCH   8  15
ENDBRANCH   3   6
ENDBRANCH   1   2
BRANCH   1  20
HETATM   20  C11 UNL     1      15.923  63.413  15.264  1.00  0.00     0.044 C 
BRANCH  20  21
HETATM   21  C12 UNL     1      14.645  63.074  14.503  1.00  0.00     0.105 C 
BRANCH  21  22
HETATM   22  C13 UNL     1      13.423  63.479  15.216  1.00  0.00     0.218 C 
HETATM   23  O4  UNL     1      12.740  64.401  14.733  1.00  0.00    -0.274 OA
HETATM   24  N4  UNL     1      13.046  62.849  16.391  1.00  0.00    -0.355 N 
ATOM     25  H4  UNL     1      13.661  62.103  16.719  1.00  0.00     0.162 HD
BRANCH  24  26
HETATM   26  C14 UNL     1      11.888  63.122  17.205  1.00  0.00     0.102 C 
BRANCH  26  27
HETATM   27  C15 UNL     1      10.975  61.936  17.073  1.00  0.00     0.001 C 
HETATM   28  C16 UNL     1      11.617  60.662  16.671  1.00  0.00     0.011 C 
HETATM   29  C17 UNL     1       9.904  62.313  16.034  1.00  0.00     0.011 C 
ENDBRANCH  26  27
BRANCH  26  30
HETATM   30  C18 UNL     1      12.182  63.585  18.575  1.00  0.00     0.035 C 
HETATM   31  C19 UNL     1      13.689  63.540  18.880  1.00  0.00     0.025 C 
HETATM   32  C20 UNL     1      11.874  65.092  18.588  1.00  0.00     0.025 C 
BRANCH  30  33
HETATM   33  C21 UNL     1      11.436  62.876  19.628  1.00  0.00     0.144 C 
HETATM   34  O5  UNL     1      11.917  61.759  19.933  1.00  0.00    -0.296 OA
BRANCH  33  35
HETATM   35  C22 UNL     1      10.246  63.257  20.364  1.00  0.00     0.010 C 
HETATM   36  C23 UNL     1       8.969  63.416  19.616  1.00  0.00     0.022 C 
HETATM   37  C24 UNL     1      10.419  64.531  21.193  1.00  0.00     0.022 C 
HETATM   38  C25 UNL     1       9.942  62.182  21.431  1.00  0.00     0.022 C 
ENDBRANCH  33  35
ENDBRANCH  30  33
ENDBRANCH  26  30
ENDBRANCH  24  26
ENDBRANCH  21  22
ENDBRANCH  20  21
ENDBRANCH   1  20
BRANCH   1  39
HETATM   39  C26 UNL     1      17.042  65.260  14.048  1.00  0.00     0.281 C 
HETATM   40  O6  UNL     1      18.216  64.814  13.966  1.00  0.00    -0.263 OA
BRANCH  39  41
HETATM   41  O7  UNL     1      16.594  66.071  13.030  1.00  0.00    -0.325 OA
HETATM   42  C27 UNL     1      17.484  66.816  12.204  1.00  0.00     0.213 C 
ENDBRANCH  39  41
ENDBRANCH   1  39
TORSDOF 15
ENDMDL
