MODEL 1
REMARK VINA RESULT: -7.880740755      0.000      0.000
REMARK  13 active torsions:
REMARK  status: ('A' for Active; 'I' for Inactive)
REMARK    1  A    between atoms: C2_2  and  C3_3 
REMARK    2  A    between atoms: C4_4  and  C5_5 
REMARK    3  A    between atoms: C5_5  and  C6_6 
REMARK    4  A    between atoms: C5_5  and  C19_22 
REMARK    5  A    between atoms: C6_6  and  C7_7 
REMARK    6  A    between atoms: C7_7  and  N1_8 
REMARK    7  A    between atoms: C11_12  and  N2_13 
REMARK    8  A    between atoms: N2_13  and  C13_15 
REMARK    9  A    between atoms: C13_15  and  C14_16 
REMARK   10  A    between atoms: C14_16  and  C15_17 
REMARK   11  A    between atoms: C15_17  and  N3_18 
REMARK   12  A    between atoms: C21_24  and  O1_25 
REMARK   13  A    between atoms: N4_30  and  O2_31 
ROOT
HETATM    1  C5  UNL     1      17.052  65.974  13.268  1.00  0.00     0.054 C 
ENDROOT
BRANCH   1   2
HETATM    2  C4  UNL     1      17.894  65.867  14.458  1.00  0.00    -0.036 A 
HETATM    3  C3  UNL     1      18.909  64.969  14.574  1.00  0.00     0.017 A 
HETATM    4  C30 UNL     1      19.662  64.964  15.763  1.00  0.00     0.252 A 
HETATM    5  N5  UNL     1      19.444  65.782  16.780  1.00  0.00    -0.327 N 
HETATM    6  O5  UNL     1      20.613  64.134  15.890  1.00  0.00    -0.268 OA
HETATM    7  C28 UNL     1      18.454  66.677  16.698  1.00  0.00     0.009 A 
ATOM      8  H5  UNL     1      20.025  65.731  17.617  1.00  0.00     0.169 HD
HETATM    9  C27 UNL     1      17.689  66.717  15.550  1.00  0.00     0.033 A 
HETATM   10  C29 UNL     1      18.196  67.602  17.832  1.00  0.00     0.068 C 
BRANCH   3  11
HETATM   11  C2  UNL     1      19.231  64.003  13.528  1.00  0.00     0.040 C 
HETATM   12  C1  UNL     1      20.538  64.357  12.806  1.00  0.00     0.010 C 
ENDBRANCH   3  11
ENDBRANCH   1   2
BRANCH   1  13
HETATM   13  C6  UNL     1      15.588  66.287  13.592  1.00  0.00     0.044 C 
BRANCH  13  14
HETATM   14  C7  UNL     1      14.772  65.092  13.153  1.00  0.00     0.273 C 
BRANCH  14  15
HETATM   15  N1  UNL     1      14.289  64.312  14.276  1.00  0.00     0.090 N 
HETATM   16  C8  UNL     1      13.180  63.521  13.942  1.00  0.00     0.272 C 
HETATM   17  C9  UNL     1      12.320  63.051  15.065  1.00  0.00     0.032 C 
HETATM   18  C10 UNL     1      12.269  63.966  16.245  1.00  0.00     0.028 C 
HETATM   19  C11 UNL     1      13.566  64.592  16.639  1.00  0.00     0.107 C 
HETATM   20  C18 UNL     1      14.250  65.102  15.432  1.00  0.00     0.297 C 
BRANCH  19  21
HETATM   21  N2  UNL     1      14.359  63.838  17.545  1.00  0.00    -0.411 N 
HETATM   22  C12 UNL     1      13.842  62.668  18.114  1.00  0.00     0.143 C 
BRANCH  21  23
HETATM   23  C13 UNL     1      15.168  64.612  18.417  1.00  0.00     0.118 C 
BRANCH  23  24
HETATM   24  C14 UNL     1      14.459  65.798  19.002  1.00  0.00     0.049 C 
BRANCH  24  25
HETATM   25  C15 UNL     1      15.421  66.476  19.953  1.00  0.00     0.273 C 
BRANCH  25  26
HETATM   26  N3  UNL     1      15.201  67.901  20.027  1.00  0.00     0.080 N 
HETATM   27  C16 UNL     1      16.340  68.586  20.580  1.00  0.00     0.309 C 
HETATM   28  C17 UNL     1      14.839  68.510  18.787  1.00  0.00     0.309 C 
ENDBRANCH  25  26
ENDBRANCH  24  25
ENDBRANCH  23  24
ENDBRANCH  21  23
ENDBRANCH  19  21
ENDBRANCH  14  15
ENDBRANCH  13  14
ENDBRANCH   1  13
BRANCH   1  29
HETATM   29  C19 UNL     1      17.457  67.081  12.328  1.00  0.00    -0.044 A 
HETATM   30  C20 UNL     1      17.032  68.373  12.504  1.00  0.00     0.047 A 
HETATM   31  C21 UNL     1      17.380  69.401  11.666  1.00  0.00     0.102 A 
HETATM   32  C22 UNL     1      18.204  69.091  10.595  1.00  0.00     0.131 A 
HETATM   33  C23 UNL     1      18.644  67.789  10.403  1.00  0.00     0.102 A 
HETATM   34  O4  UNL     1      18.595  70.075   9.712  1.00  0.00    -0.337 OA
HETATM   35  C24 UNL     1      18.279  66.777  11.260  1.00  0.00     0.043 A 
HETATM   36  N4  UNL     1      19.489  67.507   9.292  1.00  0.00    -0.187 N 
HETATM   37  C25 UNL     1      19.850  68.573   8.419  1.00  0.00     0.272 C 
HETATM   38  O3  UNL     1      20.869  68.494   7.687  1.00  0.00    -0.268 OA
HETATM   39  C26 UNL     1      18.997  69.804   8.381  1.00  0.00     0.281 C 
BRANCH  31  40
HETATM   40  O1  UNL     1      16.937  70.712  11.859  1.00  0.00    -0.358 OA
ATOM     41  H1  UNL     1      17.510  71.464  11.768  1.00  0.00     0.217 HD
ENDBRANCH  31  40
BRANCH  36  42
HETATM   42  O2  UNL     1      19.950  66.246   9.059  1.00  0.00    -0.280 OA
ATOM     43  H2  UNL     1      19.576  65.706   8.372  1.00  0.00     0.245 HD
ENDBRANCH  36  42
ENDBRANCH   1  29
TORSDOF 13
ENDMDL
MODEL 2
REMARK VINA RESULT: -7.836992410      3.187      7.181
REMARK  13 active torsions:
REMARK  status: ('A' for Active; 'I' for Inactive)
REMARK    1  A    between atoms: C2_2  and  C3_3 
REMARK    2  A    between atoms: C4_4  and  C5_5 
REMARK    3  A    between atoms: C5_5  and  C6_6 
REMARK    4  A    between atoms: C5_5  and  C19_22 
REMARK    5  A    between atoms: C6_6  and  C7_7 
REMARK    6  A    between atoms: C7_7  and  N1_8 
REMARK    7  A    between atoms: C11_12  and  N2_13 
REMARK    8  A    between atoms: N2_13  and  C13_15 
REMARK    9  A    between atoms: C13_15  and  C14_16 
REMARK   10  A    between atoms: C14_16  and  C15_17 
REMARK   11  A    between atoms: C15_17  and  N3_18 
REMARK   12  A    between atoms: C21_24  and  O1_25 
REMARK   13  A    between atoms: N4_30  and  O2_31 
ROOT
HETATM    1  C5  UNL     1      16.887  65.583  14.493  1.00  0.00     0.054 C 
ENDROOT
BRANCH   1   2
HETATM    2  C4  UNL     1      18.015  65.604  13.563  1.00  0.00    -0.036 A 
HETATM    3  C3  UNL     1      18.123  66.500  12.545  1.00  0.00     0.017 A 
HETATM    4  C30 UNL     1      19.259  66.435  11.718  1.00  0.00     0.252 A 
HETATM    5  N5  UNL     1      20.234  65.552  11.868  1.00  0.00    -0.327 N 
HETATM    6  O5  UNL     1      19.379  67.262  10.763  1.00  0.00    -0.268 OA
HETATM    7  C28 UNL     1      20.158  64.657  12.859  1.00  0.00     0.009 A 
ATOM      8  H5  UNL     1      21.034  65.554  11.236  1.00  0.00     0.169 HD
HETATM    9  C27 UNL     1      19.061  64.684  13.695  1.00  0.00     0.033 A 
HETATM   10  C29 UNL     1      21.244  63.659  13.040  1.00  0.00     0.068 C 
BRANCH   3  11
HETATM   11  C2  UNL     1      17.103  67.507  12.268  1.00  0.00     0.040 C 
HETATM   12  C1  UNL     1      17.512  68.892  12.785  1.00  0.00     0.010 C 
ENDBRANCH   3  11
ENDBRANCH   1   2
BRANCH   1  13
HETATM   13  C6  UNL     1      16.534  64.174  14.979  1.00  0.00     0.044 C 
BRANCH  13  14
HETATM   14  C7  UNL     1      15.187  63.826  14.384  1.00  0.00     0.273 C 
BRANCH  14  15
HETATM   15  N1  UNL     1      14.176  63.609  15.400  1.00  0.00     0.090 N 
HETATM   16  C8  UNL     1      14.723  63.180  16.618  1.00  0.00     0.272 C 
HETATM   17  C9  UNL     1      13.806  62.489  17.567  1.00  0.00     0.032 C 
HETATM   18  C10 UNL     1      12.696  61.721  16.925  1.00  0.00     0.028 C 
HETATM   19  C11 UNL     1      12.043  62.379  15.754  1.00  0.00     0.107 C 
HETATM   20  C18 UNL     1      13.084  62.922  14.856  1.00  0.00     0.297 C 
BRANCH  19  21
HETATM   21  N2  UNL     1      10.960  63.245  16.065  1.00  0.00    -0.411 N 
HETATM   22  C12 UNL     1      11.204  64.456  16.723  1.00  0.00     0.143 C 
BRANCH  21  23
HETATM   23  C13 UNL     1       9.766  62.587  16.461  1.00  0.00     0.118 C 
BRANCH  23  24
HETATM   24  C14 UNL     1       9.285  61.566  15.473  1.00  0.00     0.049 C 
BRANCH  24  25
HETATM   25  C15 UNL     1       8.867  60.341  16.257  1.00  0.00     0.273 C 
BRANCH  25  26
HETATM   26  N3  UNL     1       9.316  59.117  15.638  1.00  0.00     0.080 N 
HETATM   27  C16 UNL     1       8.235  58.183  15.461  1.00  0.00     0.309 C 
HETATM   28  C17 UNL     1       9.994  59.297  14.394  1.00  0.00     0.309 C 
ENDBRANCH  25  26
ENDBRANCH  24  25
ENDBRANCH  23  24
ENDBRANCH  21  23
ENDBRANCH  19  21
ENDBRANCH  14  15
ENDBRANCH  13  14
ENDBRANCH   1  13
BRANCH   1  29
HETATM   29  C19 UNL     1      17.131  66.352  15.768  1.00  0.00    -0.044 A 
HETATM   30  C20 UNL     1      18.138  67.276  15.876  1.00  0.00     0.047 A 
HETATM   31  C21 UNL     1      18.387  67.988  17.021  1.00  0.00     0.102 A 
HETATM   32  C22 UNL     1      17.564  67.742  18.109  1.00  0.00     0.131 A 
HETATM   33  C23 UNL     1      16.539  66.811  18.016  1.00  0.00     0.102 A 
HETATM   34  O4  UNL     1      17.756  68.422  19.293  1.00  0.00    -0.337 OA
HETATM   35  C24 UNL     1      16.313  66.110  16.854  1.00  0.00     0.043 A 
HETATM   36  N4  UNL     1      15.714  66.583  19.155  1.00  0.00    -0.187 N 
HETATM   37  C25 UNL     1      15.972  67.320  20.345  1.00  0.00     0.272 C 
HETATM   38  O3  UNL     1      15.083  67.469  21.221  1.00  0.00    -0.268 OA
HETATM   39  C26 UNL     1      17.328  67.925  20.548  1.00  0.00     0.281 C 
BRANCH  31  40
HETATM   40  O1  UNL     1      19.418  68.925  17.114  1.00  0.00    -0.358 OA
ATOM     41  H1  UNL     1      20.005  69.113  16.390  1.00  0.00     0.217 HD
ENDBRANCH  31  40
BRANCH  36  42
HETATM   42  O2  UNL     1      14.694  65.680  19.116  1.00  0.00    -0.280 OA
ATOM     43  H2  UNL     1      14.555  65.066  19.828  1.00  0.00     0.245 HD
ENDBRANCH  36  42
ENDBRANCH   1  29
TORSDOF 13
ENDMDL
MODEL 3
REMARK VINA RESULT: -7.833308579      3.121      6.492
REMARK  13 active torsions:
REMARK  status: ('A' for Active; 'I' for Inactive)
REMARK    1  A    between atoms: C2_2  and  C3_3 
REMARK    2  A    between atoms: C4_4  and  C5_5 
REMARK    3  A    between atoms: C5_5  and  C6_6 
REMARK    4  A    between atoms: C5_5  and  C19_22 
REMARK    5  A    between atoms: C6_6  and  C7_7 
REMARK    6  A    between atoms: C7_7  and  N1_8 
REMARK    7  A    between atoms: C11_12  and  N2_13 
REMARK    8  A    between atoms: N2_13  and  C13_15 
REMARK    9  A    between atoms: C13_15  and  C14_16 
REMARK   10  A    between atoms: C14_16  and  C15_17 
REMARK   11  A    between atoms: C15_17  and  N3_18 
REMARK   12  A    between atoms: C21_24  and  O1_25 
REMARK   13  A    between atoms: N4_30  and  O2_31 
ROOT
HETATM    1  C5  UNL     1      16.728  65.898  14.492  1.00  0.00     0.054 C 
ENDROOT
BRANCH   1   2
HETATM    2  C4  UNL     1      17.881  65.802  13.598  1.00  0.00    -0.036 A 
HETATM    3  C3  UNL     1      18.077  66.636  12.543  1.00  0.00     0.017 A 
HETATM    4  C30 UNL     1      19.230  66.458  11.756  1.00  0.00     0.252 A 
HETATM    5  N5  UNL     1      20.141  65.524  11.981  1.00  0.00    -0.327 N 
HETATM    6  O5  UNL     1      19.431  67.227  10.767  1.00  0.00    -0.268 OA
HETATM    7  C28 UNL     1      19.978  64.687  13.011  1.00  0.00     0.009 A 
ATOM      8  H5  UNL     1      20.958  65.444  11.375  1.00  0.00     0.169 HD
HETATM    9  C27 UNL     1      18.861  64.825  13.809  1.00  0.00     0.033 A 
HETATM   10  C29 UNL     1      20.992  63.633  13.275  1.00  0.00     0.068 C 
BRANCH   3  11
HETATM   11  C2  UNL     1      17.132  67.690  12.184  1.00  0.00     0.040 C 
HETATM   12  C1  UNL     1      17.563  69.056  12.735  1.00  0.00     0.010 C 
ENDBRANCH   3  11
ENDBRANCH   1   2
BRANCH   1  13
HETATM   13  C6  UNL     1      16.166  64.533  14.900  1.00  0.00     0.044 C 
BRANCH  13  14
HETATM   14  C7  UNL     1      14.785  64.424  14.292  1.00  0.00     0.273 C 
BRANCH  14  15
HETATM   15  N1  UNL     1      13.868  63.685  15.137  1.00  0.00     0.090 N 
HETATM   16  C8  UNL     1      12.901  62.988  14.398  1.00  0.00     0.272 C 
HETATM   17  C9  UNL     1      11.657  62.589  15.115  1.00  0.00     0.032 C 
HETATM   18  C10 UNL     1      11.247  63.504  16.224  1.00  0.00     0.028 C 
HETATM   19  C11 UNL     1      12.354  64.021  17.082  1.00  0.00     0.107 C 
HETATM   20  C18 UNL     1      13.468  64.475  16.222  1.00  0.00     0.297 C 
BRANCH  19  21
HETATM   21  N2  UNL     1      12.702  63.204  18.191  1.00  0.00    -0.411 N 
HETATM   22  C12 UNL     1      13.878  62.446  18.155  1.00  0.00     0.143 C 
BRANCH  21  23
HETATM   23  C13 UNL     1      11.606  62.565  18.827  1.00  0.00     0.118 C 
BRANCH  23  24
HETATM   24  C14 UNL     1      11.263  63.147  20.166  1.00  0.00     0.049 C 
BRANCH  24  25
HETATM   25  C15 UNL     1      10.901  61.997  21.080  1.00  0.00     0.273 C 
BRANCH  25  26
HETATM   26  N3  UNL     1       9.693  62.255  21.828  1.00  0.00     0.080 N 
HETATM   27  C16 UNL     1       9.324  63.645  21.779  1.00  0.00     0.309 C 
HETATM   28  C17 UNL     1       8.576  61.455  21.442  1.00  0.00     0.309 C 
ENDBRANCH  25  26
ENDBRANCH  24  25
ENDBRANCH  23  24
ENDBRANCH  21  23
ENDBRANCH  19  21
ENDBRANCH  14  15
ENDBRANCH  13  14
ENDBRANCH   1  13
BRANCH   1  29
HETATM   29  C19 UNL     1      17.028  66.571  15.808  1.00  0.00    -0.044 A 
HETATM   30  C20 UNL     1      18.064  67.458  15.949  1.00  0.00     0.047 A 
HETATM   31  C21 UNL     1      18.364  68.083  17.132  1.00  0.00     0.102 A 
HETATM   32  C22 UNL     1      17.565  67.785  18.224  1.00  0.00     0.131 A 
HETATM   33  C23 UNL     1      16.512  66.890  18.099  1.00  0.00     0.102 A 
HETATM   34  O4  UNL     1      17.808  68.377  19.446  1.00  0.00    -0.337 OA
HETATM   35  C24 UNL     1      16.233  66.277  16.899  1.00  0.00     0.043 A 
HETATM   36  N4  UNL     1      15.711  66.607  19.243  1.00  0.00    -0.187 N 
HETATM   37  C25 UNL     1      16.023  67.253  20.472  1.00  0.00     0.272 C 
HETATM   38  O3  UNL     1      15.162  67.365  21.382  1.00  0.00    -0.268 OA
HETATM   39  C26 UNL     1      17.401  67.806  20.676  1.00  0.00     0.281 C 
BRANCH  31  40
HETATM   40  O1  UNL     1      19.424  68.984  17.258  1.00  0.00    -0.358 OA
ATOM     41  H1  UNL     1      19.499  69.585  17.990  1.00  0.00     0.217 HD
ENDBRANCH  31  40
BRANCH  36  42
HETATM   42  O2  UNL     1      14.665  65.736  19.173  1.00  0.00    -0.280 OA
ATOM     43  H2  UNL     1      14.606  64.992  19.761  1.00  0.00     0.245 HD
ENDBRANCH  36  42
ENDBRANCH   1  29
TORSDOF 13
ENDMDL
MODEL 4
REMARK VINA RESULT: -7.793595663      7.614     12.512
REMARK  13 active torsions:
REMARK  status: ('A' for Active; 'I' for Inactive)
REMARK    1  A    between atoms: C2_2  and  C3_3 
REMARK    2  A    between atoms: C4_4  and  C5_5 
REMARK    3  A    between atoms: C5_5  and  C6_6 
REMARK    4  A    between atoms: C5_5  and  C19_22 
REMARK    5  A    between atoms: C6_6  and  C7_7 
REMARK    6  A    between atoms: C7_7  and  N1_8 
REMARK    7  A    between atoms: C11_12  and  N2_13 
REMARK    8  A    between atoms: N2_13  and  C13_15 
REMARK    9  A    between atoms: C13_15  and  C14_16 
REMARK   10  A    between atoms: C14_16  and  C15_17 
REMARK   11  A    between atoms: C15_17  and  N3_18 
REMARK   12  A    between atoms: C21_24  and  O1_25 
REMARK   13  A    between atoms: N4_30  and  O2_31 
ROOT
HETATM    1  C5  UNL     1       7.674  61.569  19.907  1.00  0.00     0.054 C 
ENDROOT
BRANCH   1   2
HETATM    2  C4  UNL     1       6.957  61.106  21.095  1.00  0.00    -0.036 A 
HETATM    3  C3  UNL     1       5.675  61.461  21.375  1.00  0.00     0.017 A 
HETATM    4  C30 UNL     1       5.080  60.944  22.542  1.00  0.00     0.252 A 
HETATM    5  N5  UNL     1       5.694  60.132  23.387  1.00  0.00    -0.327 N 
HETATM    6  O5  UNL     1       3.884  61.263  22.821  1.00  0.00    -0.268 OA
HETATM    7  C28 UNL     1       6.956  59.764  23.140  1.00  0.00     0.009 A 
ATOM      8  H5  UNL     1       5.210  59.789  24.217  1.00  0.00     0.169 HD
HETATM    9  C27 UNL     1       7.579  60.247  22.007  1.00  0.00     0.033 A 
HETATM   10  C29 UNL     1       7.659  58.854  24.081  1.00  0.00     0.068 C 
BRANCH   3  11
HETATM   11  C2  UNL     1       4.903  62.366  20.529  1.00  0.00     0.040 C 
HETATM   12  C1  UNL     1       3.957  61.604  19.591  1.00  0.00     0.010 C 
ENDBRANCH   3  11
ENDBRANCH   1   2
BRANCH   1  13
HETATM   13  C6  UNL     1       9.170  61.787  20.154  1.00  0.00     0.044 C 
BRANCH  13  14
HETATM   14  C7  UNL     1       9.434  63.267  19.988  1.00  0.00     0.273 C 
BRANCH  14  15
HETATM   15  N1  UNL     1      10.761  63.535  19.468  1.00  0.00     0.090 N 
HETATM   16  C8  UNL     1      11.303  64.727  19.972  1.00  0.00     0.272 C 
HETATM   17  C9  UNL     1      12.413  65.348  19.195  1.00  0.00     0.032 C 
HETATM   18  C10 UNL     1      12.366  65.101  17.721  1.00  0.00     0.028 C 
HETATM   19  C11 UNL     1      11.975  63.721  17.305  1.00  0.00     0.107 C 
HETATM   20  C18 UNL     1      10.800  63.289  18.090  1.00  0.00     0.297 C 
BRANCH  19  21
HETATM   21  N2  UNL     1      13.043  62.789  17.198  1.00  0.00    -0.411 N 
HETATM   22  C12 UNL     1      13.152  61.746  18.125  1.00  0.00     0.143 C 
BRANCH  21  23
HETATM   23  C13 UNL     1      14.281  63.346  16.786  1.00  0.00     0.118 C 
BRANCH  23  24
HETATM   24  C14 UNL     1      14.716  62.907  15.420  1.00  0.00     0.049 C 
BRANCH  24  25
HETATM   25  C15 UNL     1      15.519  64.038  14.815  1.00  0.00     0.273 C 
BRANCH  25  26
HETATM   26  N3  UNL     1      14.691  64.958  14.071  1.00  0.00     0.080 N 
HETATM   27  C16 UNL     1      15.478  65.968  13.415  1.00  0.00     0.309 C 
HETATM   28  C17 UNL     1      13.826  64.339  13.119  1.00  0.00     0.309 C 
ENDBRANCH  25  26
ENDBRANCH  24  25
ENDBRANCH  23  24
ENDBRANCH  21  23
ENDBRANCH  19  21
ENDBRANCH  14  15
ENDBRANCH  13  14
ENDBRANCH   1  13
BRANCH   1  29
HETATM   29  C19 UNL     1       7.637  60.600  18.753  1.00  0.00    -0.044 A 
HETATM   30  C20 UNL     1       6.633  59.677  18.614  1.00  0.00     0.047 A 
HETATM   31  C21 UNL     1       6.573  58.780  17.577  1.00  0.00     0.102 A 
HETATM   32  C22 UNL     1       7.592  58.831  16.639  1.00  0.00     0.131 A 
HETATM   33  C23 UNL     1       8.615  59.759  16.765  1.00  0.00     0.102 A 
HETATM   34  O4  UNL     1       7.596  57.959  15.570  1.00  0.00    -0.337 OA
HETATM   35  C24 UNL     1       8.650  60.647  17.815  1.00  0.00     0.043 A 
HETATM   36  N4  UNL     1       9.646  59.781  15.782  1.00  0.00    -0.187 N 
HETATM   37  C25 UNL     1       9.587  58.850  14.708  1.00  0.00     0.272 C 
HETATM   38  O3  UNL     1      10.204  59.060  13.633  1.00  0.00    -0.268 OA
HETATM   39  C26 UNL     1       8.773  57.602  14.869  1.00  0.00     0.281 C 
BRANCH  31  40
HETATM   40  O1  UNL     1       5.542  57.846  17.451  1.00  0.00    -0.358 OA
ATOM     41  H1  UNL     1       5.465  57.090  18.021  1.00  0.00     0.217 HD
ENDBRANCH  31  40
BRANCH  36  42
HETATM   42  O2  UNL     1      10.674  60.674  15.859  1.00  0.00    -0.280 OA
ATOM     43  H2  UNL     1      11.417  60.518  16.430  1.00  0.00     0.245 HD
ENDBRANCH  36  42
ENDBRANCH   1  29
TORSDOF 13
ENDMDL
MODEL 5
REMARK VINA RESULT: -7.771021181      1.295      2.176
REMARK  13 active torsions:
REMARK  status: ('A' for Active; 'I' for Inactive)
REMARK    1  A    between atoms: C2_2  and  C3_3 
REMARK    2  A    between atoms: C4_4  and  C5_5 
REMARK    3  A    between atoms: C5_5  and  C6_6 
REMARK    4  A    between atoms: C5_5  and  C19_22 
REMARK    5  A    between atoms: C6_6  and  C7_7 
REMARK    6  A    between atoms: C7_7  and  N1_8 
REMARK    7  A    between atoms: C11_12  and  N2_13 
REMARK    8  A    between atoms: N2_13  and  C13_15 
REMARK    9  A    between atoms: C13_15  and  C14_16 
REMARK   10  A    between atoms: C14_16  and  C15_17 
REMARK   11  A    between atoms: C15_17  and  N3_18 
REMARK   12  A    between atoms: C21_24  and  O1_25 
REMARK   13  A    between atoms: N4_30  and  O2_31 
ROOT
HETATM    1  C5  UNL     1      17.306  66.129  13.197  1.00  0.00     0.054 C 
ENDROOT
BRANCH   1   2
HETATM    2  C4  UNL     1      18.070  65.917  14.426  1.00  0.00    -0.036 A 
HETATM    3  C3  UNL     1      19.052  64.985  14.540  1.00  0.00     0.017 A 
HETATM    4  C30 UNL     1      19.730  64.877  15.769  1.00  0.00     0.252 A 
HETATM    5  N5  UNL     1      19.469  65.630  16.826  1.00  0.00    -0.327 N 
HETATM    6  O5  UNL     1      20.650  64.013  15.895  1.00  0.00    -0.268 OA
HETATM    7  C28 UNL     1      18.508  66.556  16.746  1.00  0.00     0.009 A 
ATOM      8  H5  UNL     1      19.995  65.505  17.691  1.00  0.00     0.169 HD
HETATM    9  C27 UNL     1      17.817  66.697  15.560  1.00  0.00     0.033 A 
HETATM   10  C29 UNL     1      18.202  67.409  17.925  1.00  0.00     0.068 C 
BRANCH   3  11
HETATM   11  C2  UNL     1      19.416  64.083  13.450  1.00  0.00     0.040 C 
HETATM   12  C1  UNL     1      20.586  64.630  12.622  1.00  0.00     0.010 C 
ENDBRANCH   3  11
ENDBRANCH   1   2
BRANCH   1  13
HETATM   13  C6  UNL     1      15.858  66.558  13.453  1.00  0.00     0.044 C 
BRANCH  13  14
HETATM   14  C7  UNL     1      14.972  65.427  12.981  1.00  0.00     0.273 C 
BRANCH  14  15
HETATM   15  N1  UNL     1      14.532  64.580  14.072  1.00  0.00     0.090 N 
HETATM   16  C8  UNL     1      13.516  63.694  13.686  1.00  0.00     0.272 C 
HETATM   17  C9  UNL     1      12.670  63.118  14.770  1.00  0.00     0.032 C 
HETATM   18  C10 UNL     1      12.494  63.998  15.966  1.00  0.00     0.028 C 
HETATM   19  C11 UNL     1      13.711  64.736  16.415  1.00  0.00     0.107 C 
HETATM   20  C18 UNL     1      14.380  65.336  15.240  1.00  0.00     0.297 C 
BRANCH  19  21
HETATM   21  N2  UNL     1      14.545  64.041  17.332  1.00  0.00    -0.411 N 
HETATM   22  C12 UNL     1      14.085  62.865  17.935  1.00  0.00     0.143 C 
BRANCH  21  23
HETATM   23  C13 UNL     1      15.325  64.873  18.176  1.00  0.00     0.118 C 
BRANCH  23  24
HETATM   24  C14 UNL     1      14.512  65.807  19.022  1.00  0.00     0.049 C 
BRANCH  24  25
HETATM   25  C15 UNL     1      15.460  66.487  19.984  1.00  0.00     0.273 C 
BRANCH  25  26
HETATM   26  N3  UNL     1      15.232  67.912  20.059  1.00  0.00     0.080 N 
HETATM   27  C16 UNL     1      16.366  68.602  20.614  1.00  0.00     0.309 C 
HETATM   28  C17 UNL     1      14.868  68.519  18.819  1.00  0.00     0.309 C 
ENDBRANCH  25  26
ENDBRANCH  24  25
ENDBRANCH  23  24
ENDBRANCH  21  23
ENDBRANCH  19  21
ENDBRANCH  14  15
ENDBRANCH  13  14
ENDBRANCH   1  13
BRANCH   1  29
HETATM   29  C19 UNL     1      17.855  67.224  12.316  1.00  0.00    -0.044 A 
HETATM   30  C20 UNL     1      18.133  67.016  10.990  1.00  0.00     0.047 A 
HETATM   31  C21 UNL     1      18.636  67.990  10.164  1.00  0.00     0.102 A 
HETATM   32  C22 UNL     1      18.864  69.236  10.725  1.00  0.00     0.131 A 
HETATM   33  C23 UNL     1      18.588  69.464  12.065  1.00  0.00     0.102 A 
HETATM   34  O4  UNL     1      19.368  70.262   9.954  1.00  0.00    -0.337 OA
HETATM   35  C24 UNL     1      18.084  68.468  12.870  1.00  0.00     0.043 A 
HETATM   36  N4  UNL     1      18.836  70.757  12.608  1.00  0.00    -0.187 N 
HETATM   37  C25 UNL     1      19.360  71.768  11.753  1.00  0.00     0.272 C 
HETATM   38  O3  UNL     1      19.232  72.986  12.036  1.00  0.00    -0.268 OA
HETATM   39  C26 UNL     1      20.072  71.364  10.498  1.00  0.00     0.281 C 
BRANCH  31  40
HETATM   40  O1  UNL     1      18.914  67.760   8.815  1.00  0.00    -0.358 OA
ATOM     41  H1  UNL     1      18.781  68.422   8.146  1.00  0.00     0.217 HD
ENDBRANCH  31  40
BRANCH  36  42
HETATM   42  O2  UNL     1      18.581  71.033  13.918  1.00  0.00    -0.280 OA
ATOM     43  H2  UNL     1      18.622  70.352  14.579  1.00  0.00     0.245 HD
ENDBRANCH  36  42
ENDBRANCH   1  29
TORSDOF 13
ENDMDL
