MODEL 1
REMARK VINA RESULT: -9.443245965      0.000      0.000
REMARK  12 active torsions:
REMARK  status: ('A' for Active; 'I' for Inactive)
REMARK    1  A    between atoms: O1_2  and  C2_3 
REMARK    2  A    between atoms: C2_3  and  C3_4 
REMARK    3  A    between atoms: C3_4  and  C4_5 
REMARK    4  A    between atoms: C4_5  and  N1_6 
REMARK    5  A    between atoms: C11_14  and  N2_15 
REMARK    6  A    between atoms: N2_15  and  C12_17 
REMARK    7  A    between atoms: C13_20  and  O3_21 
REMARK    8  A    between atoms: O3_21  and  C14_22 
REMARK    9  A    between atoms: C14_22  and  C15_23 
REMARK   10  A    between atoms: C15_23  and  C16_24 
REMARK   11  A    between atoms: C16_24  and  C17_25 
REMARK   12  A    between atoms: C17_25  and  N4_26 
ROOT
HETATM    1  C12 UNL     1      13.637  62.531  17.313  1.00  0.00     0.686 A 
HETATM    2  N3  UNL     1      13.066  63.510  18.032  1.00  0.00    -0.170 N 
ATOM      3  H3  UNL     1      13.629  64.309  18.325  1.00  0.00     0.186 HD
HETATM    4  C13 UNL     1      11.756  63.460  18.378  1.00  0.00     0.169 A 
HETATM    5  C20 UNL     1      11.047  62.356  17.953  1.00  0.00     0.062 A 
HETATM    6  C21 UNL     1      11.663  61.366  17.216  1.00  0.00     0.172 A 
HETATM    7  N5  UNL     1      12.947  61.441  16.893  1.00  0.00    -0.169 N 
ATOM      8  H5  UNL     1      13.400  60.706  16.348  1.00  0.00     0.186 HD
HETATM    9  O4  UNL     1      10.812  60.302  16.854  1.00  0.00    -0.303 OA
HETATM   10  C22 UNL     1       9.493  60.587  16.395  1.00  0.00     0.141 C 
HETATM   11  C23 UNL     1       8.610  59.369  16.512  1.00  0.00     0.088 C 
HETATM   12  C24 UNL     1       7.790  59.134  15.260  1.00  0.00     0.237 C 
HETATM   13  N6  UNL     1       7.229  60.338  14.715  1.00  0.00    -0.075 N 
ATOM     14  H61 UNL     1       6.481  60.692  15.312  1.00  0.00     0.277 HD
ATOM     15  H62 UNL     1       6.691  60.139  13.873  1.00  0.00     0.277 HD
HETATM   16  C25 UNL     1       8.214  61.364  14.465  1.00  0.00     0.237 C 
HETATM   17  C26 UNL     1       9.595  60.920  14.901  1.00  0.00     0.088 C 
HETATM   18  N7  UNL     1       8.909  61.707  17.051  1.00  0.00    -0.387 N 
ATOM     19  H7  UNL     1       8.066  62.166  16.706  1.00  0.00     0.156 HD
HETATM   20  C27 UNL     1       9.601  62.146  18.243  1.00  0.00     0.164 C 
ENDROOT
BRANCH   1  21
HETATM   21  N2  UNL     1      14.890  62.662  17.019  1.00  0.00    -0.192 N 
ATOM     22  H2  UNL     1      15.599  62.107  17.498  1.00  0.00     0.184 HD
BRANCH  21  23
HETATM   23  C11 UNL     1      15.258  63.600  16.009  1.00  0.00     0.051 A 
HETATM   24  C10 UNL     1      14.530  63.649  14.813  1.00  0.00     0.030 A 
HETATM   25  C9  UNL     1      14.877  64.536  13.834  1.00  0.00     0.012 A 
HETATM   26  C8  UNL     1      15.943  65.416  13.971  1.00  0.00    -0.030 A 
HETATM   27  C7  UNL     1      16.236  66.323  12.820  1.00  0.00     0.050 C 
HETATM   28  C29 UNL     1      16.668  65.383  15.140  1.00  0.00     0.050 A 
HETATM   29  C6  UNL     1      16.884  67.573  13.345  1.00  0.00     0.108 C 
HETATM   30  C5  UNL     1      18.051  67.139  14.158  1.00  0.00     0.228 C 
HETATM   31  N1  UNL     1      17.769  66.270  15.267  1.00  0.00    -0.296 N 
HETATM   32  O2  UNL     1      19.183  67.525  13.864  1.00  0.00    -0.273 OA
HETATM   33  C28 UNL     1      16.308  64.482  16.118  1.00  0.00     0.060 A 
BRANCH  31  34
HETATM   34  C4  UNL     1      18.603  66.307  16.403  1.00  0.00     0.075 C 
BRANCH  34  35
HETATM   35  C3  UNL     1      18.330  67.360  17.434  1.00  0.00     0.071 C 
BRANCH  35  36
HETATM   36  C2  UNL     1      17.389  67.042  18.518  1.00  0.00     0.172 C 
BRANCH  36  37
HETATM   37  O1  UNL     1      17.891  67.408  19.750  1.00  0.00    -0.396 OA
HETATM   38  C1  UNL     1      16.985  67.772  20.702  1.00  0.00     0.201 C 
ENDBRANCH  36  37
ENDBRANCH  35  36
ENDBRANCH  34  35
ENDBRANCH  31  34
ENDBRANCH  21  23
ENDBRANCH   1  21
BRANCH   4  39
HETATM   39  O3  UNL     1      11.087  64.402  19.103  1.00  0.00    -0.335 OA
BRANCH  39  40
HETATM   40  C14 UNL     1      11.005  64.539  20.487  1.00  0.00     0.178 C 
BRANCH  40  41
HETATM   41  C15 UNL     1       9.495  64.712  20.794  1.00  0.00     0.032 C 
BRANCH  41  42
HETATM   42  C16 UNL     1       9.243  63.876  21.994  1.00  0.00     0.046 C 
BRANCH  42  43
HETATM   43  C17 UNL     1       9.438  62.430  21.789  1.00  0.00     0.057 C 
BRANCH  43  44
HETATM   44  N4  UNL     1       8.282  61.648  21.888  1.00  0.00    -0.402 N 
HETATM   45  C18 UNL     1       7.012  62.231  21.844  1.00  0.00     0.148 C 
HETATM   46  C19 UNL     1       8.400  60.355  21.286  1.00  0.00     0.148 C 
ENDBRANCH  43  44
ENDBRANCH  42  43
ENDBRANCH  41  42
ENDBRANCH  40  41
ENDBRANCH  39  40
ENDBRANCH   4  39
TORSDOF 12
ENDMDL
MODEL 2
REMARK VINA RESULT: -9.085320890      1.261      4.277
REMARK  12 active torsions:
REMARK  status: ('A' for Active; 'I' for Inactive)
REMARK    1  A    between atoms: O1_2  and  C2_3 
REMARK    2  A    between atoms: C2_3  and  C3_4 
REMARK    3  A    between atoms: C3_4  and  C4_5 
REMARK    4  A    between atoms: C4_5  and  N1_6 
REMARK    5  A    between atoms: C11_14  and  N2_15 
REMARK    6  A    between atoms: N2_15  and  C12_17 
REMARK    7  A    between atoms: C13_20  and  O3_21 
REMARK    8  A    between atoms: O3_21  and  C14_22 
REMARK    9  A    between atoms: C14_22  and  C15_23 
REMARK   10  A    between atoms: C15_23  and  C16_24 
REMARK   11  A    between atoms: C16_24  and  C17_25 
REMARK   12  A    between atoms: C17_25  and  N4_26 
ROOT
HETATM    1  C12 UNL     1      13.769  62.958  16.477  1.00  0.00     0.686 A 
HETATM    2  N3  UNL     1      12.962  62.215  15.703  1.00  0.00    -0.170 N 
ATOM      3  H3  UNL     1      13.357  61.713  14.907  1.00  0.00     0.186 HD
HETATM    4  C13 UNL     1      11.634  62.117  15.956  1.00  0.00     0.169 A 
HETATM    5  C20 UNL     1      11.160  62.817  17.046  1.00  0.00     0.062 A 
HETATM    6  C21 UNL     1      12.015  63.573  17.823  1.00  0.00     0.172 A 
HETATM    7  N5  UNL     1      13.311  63.651  17.549  1.00  0.00    -0.169 N 
ATOM      8  H5  UNL     1      13.939  64.212  18.124  1.00  0.00     0.186 HD
HETATM    9  O4  UNL     1      11.387  64.230  18.899  1.00  0.00    -0.303 OA
HETATM   10  C22 UNL     1      10.416  63.532  19.674  1.00  0.00     0.141 C 
HETATM   11  C23 UNL     1       9.543  64.498  20.437  1.00  0.00     0.088 C 
HETATM   12  C24 UNL     1       9.358  64.084  21.883  1.00  0.00     0.237 C 
HETATM   13  N6  UNL     1       9.127  62.676  22.044  1.00  0.00    -0.075 N 
ATOM     14  H61 UNL     1       8.201  62.420  21.702  1.00  0.00     0.277 HD
ATOM     15  H62 UNL     1       9.014  62.438  23.029  1.00  0.00     0.277 HD
HETATM   16  C25 UNL     1      10.145  61.857  21.431  1.00  0.00     0.237 C 
HETATM   17  C26 UNL     1      11.179  62.704  20.717  1.00  0.00     0.088 C 
HETATM   18  N7  UNL     1       9.630  62.635  18.898  1.00  0.00    -0.387 N 
ATOM     19  H7  UNL     1       9.038  61.919  19.320  1.00  0.00     0.156 HD
HETATM   20  C27 UNL     1       9.731  62.815  17.466  1.00  0.00     0.164 C 
ENDROOT
BRANCH   1  21
HETATM   21  N2  UNL     1      15.024  62.990  16.169  1.00  0.00    -0.192 N 
ATOM     22  H2  UNL     1      15.667  62.284  16.529  1.00  0.00     0.184 HD
BRANCH  21  23
HETATM   23  C11 UNL     1      15.491  64.033  15.315  1.00  0.00     0.051 A 
HETATM   24  C10 UNL     1      14.880  64.231  14.070  1.00  0.00     0.030 A 
HETATM   25  C9  UNL     1      15.322  65.221  13.238  1.00  0.00     0.012 A 
HETATM   26  C8  UNL     1      16.375  66.062  13.577  1.00  0.00    -0.030 A 
HETATM   27  C7  UNL     1      16.780  67.092  12.572  1.00  0.00     0.050 C 
HETATM   28  C29 UNL     1      16.986  65.882  14.797  1.00  0.00     0.050 A 
HETATM   29  C6  UNL     1      17.381  68.262  13.298  1.00  0.00     0.108 C 
HETATM   30  C5  UNL     1      18.464  67.718  14.161  1.00  0.00     0.228 C 
HETATM   31  N1  UNL     1      18.074  66.731  15.129  1.00  0.00    -0.296 N 
HETATM   32  O2  UNL     1      19.621  68.118  14.021  1.00  0.00    -0.273 OA
HETATM   33  C28 UNL     1      16.530  64.879  15.624  1.00  0.00     0.060 A 
BRANCH  31  34
HETATM   34  C4  UNL     1      18.797  66.623  16.335  1.00  0.00     0.075 C 
BRANCH  34  35
HETATM   35  C3  UNL     1      18.424  67.545  17.456  1.00  0.00     0.071 C 
BRANCH  35  36
HETATM   36  C2  UNL     1      17.512  67.042  18.494  1.00  0.00     0.172 C 
BRANCH  36  37
HETATM   37  O1  UNL     1      17.928  67.409  19.757  1.00  0.00    -0.396 OA
HETATM   38  C1  UNL     1      16.955  67.673  20.675  1.00  0.00     0.201 C 
ENDBRANCH  36  37
ENDBRANCH  35  36
ENDBRANCH  34  35
ENDBRANCH  31  34
ENDBRANCH  21  23
ENDBRANCH   1  21
BRANCH   4  39
HETATM   39  O3  UNL     1      10.736  61.390  15.232  1.00  0.00    -0.335 OA
BRANCH  39  40
HETATM   40  C14 UNL     1      10.472  60.024  15.291  1.00  0.00     0.178 C 
BRANCH  40  41
HETATM   41  C15 UNL     1       9.574  59.725  14.062  1.00  0.00     0.032 C 
BRANCH  41  42
HETATM   42  C16 UNL     1       8.270  59.299  14.627  1.00  0.00     0.046 C 
BRANCH  42  43
HETATM   43  C17 UNL     1       8.331  58.099  15.479  1.00  0.00     0.057 C 
BRANCH  43  44
HETATM   44  N4  UNL     1       7.549  58.144  16.638  1.00  0.00    -0.402 N 
HETATM   45  C18 UNL     1       8.038  58.720  17.815  1.00  0.00     0.148 C 
HETATM   46  C19 UNL     1       6.150  58.314  16.392  1.00  0.00     0.148 C 
ENDBRANCH  43  44
ENDBRANCH  42  43
ENDBRANCH  41  42
ENDBRANCH  40  41
ENDBRANCH  39  40
ENDBRANCH   4  39
TORSDOF 12
ENDMDL
MODEL 3
REMARK VINA RESULT: -9.016024008      2.082      3.654
REMARK  12 active torsions:
REMARK  status: ('A' for Active; 'I' for Inactive)
REMARK    1  A    between atoms: O1_2  and  C2_3 
REMARK    2  A    between atoms: C2_3  and  C3_4 
REMARK    3  A    between atoms: C3_4  and  C4_5 
REMARK    4  A    between atoms: C4_5  and  N1_6 
REMARK    5  A    between atoms: C11_14  and  N2_15 
REMARK    6  A    between atoms: N2_15  and  C12_17 
REMARK    7  A    between atoms: C13_20  and  O3_21 
REMARK    8  A    between atoms: O3_21  and  C14_22 
REMARK    9  A    between atoms: C14_22  and  C15_23 
REMARK   10  A    between atoms: C15_23  and  C16_24 
REMARK   11  A    between atoms: C16_24  and  C17_25 
REMARK   12  A    between atoms: C17_25  and  N4_26 
ROOT
HETATM    1  C12 UNL     1      13.721  62.525  15.763  1.00  0.00     0.686 A 
HETATM    2  N3  UNL     1      13.316  63.681  16.313  1.00  0.00    -0.170 N 
ATOM      3  H3  UNL     1      13.919  64.502  16.252  1.00  0.00     0.186 HD
HETATM    4  C13 UNL     1      12.122  63.781  16.947  1.00  0.00     0.169 A 
HETATM    5  C20 UNL     1      11.351  62.638  16.995  1.00  0.00     0.062 A 
HETATM    6  C21 UNL     1      11.795  61.464  16.420  1.00  0.00     0.172 A 
HETATM    7  N5  UNL     1      12.970  61.396  15.807  1.00  0.00    -0.169 N 
ATOM      8  H5  UNL     1      13.296  60.527  15.385  1.00  0.00     0.186 HD
HETATM    9  O4  UNL     1      10.901  60.384  16.550  1.00  0.00    -0.303 OA
HETATM   10  C22 UNL     1       9.508  60.601  16.343  1.00  0.00     0.141 C 
HETATM   11  C23 UNL     1       8.694  59.495  16.969  1.00  0.00     0.088 C 
HETATM   12  C24 UNL     1       7.611  58.985  16.040  1.00  0.00     0.237 C 
HETATM   13  N6  UNL     1       6.922  60.033  15.343  1.00  0.00    -0.075 N 
ATOM     14  H61 UNL     1       6.326  60.561  15.981  1.00  0.00     0.277 HD
ATOM     15  H62 UNL     1       6.207  59.649  14.725  1.00  0.00     0.277 HD
HETATM   16  C25 UNL     1       7.807  60.914  14.619  1.00  0.00     0.237 C 
HETATM   17  C26 UNL     1       9.258  60.535  14.831  1.00  0.00     0.088 C 
HETATM   18  N7  UNL     1       9.073  61.877  16.800  1.00  0.00    -0.387 N 
ATOM     19  H7  UNL     1       8.166  62.270  16.548  1.00  0.00     0.156 HD
HETATM   20  C27 UNL     1      10.014  62.575  17.648  1.00  0.00     0.164 C 
ENDROOT
BRANCH   1  21
HETATM   21  N2  UNL     1      14.870  62.520  15.169  1.00  0.00    -0.192 N 
ATOM     22  H2  UNL     1      15.437  61.673  15.139  1.00  0.00     0.184 HD
BRANCH  21  23
HETATM   23  C11 UNL     1      15.327  63.725  14.558  1.00  0.00     0.051 A 
HETATM   24  C10 UNL     1      14.484  64.415  13.677  1.00  0.00     0.030 A 
HETATM   25  C9  UNL     1      14.912  65.566  13.077  1.00  0.00     0.012 A 
HETATM   26  C8  UNL     1      16.174  66.099  13.306  1.00  0.00    -0.030 A 
HETATM   27  C7  UNL     1      16.533  67.352  12.574  1.00  0.00     0.050 C 
HETATM   28  C29 UNL     1      17.015  65.435  14.170  1.00  0.00     0.050 A 
HETATM   29  C6  UNL     1      17.538  68.114  13.389  1.00  0.00     0.108 C 
HETATM   30  C5  UNL     1      18.654  67.175  13.677  1.00  0.00     0.228 C 
HETATM   31  N1  UNL     1      18.310  65.973  14.385  1.00  0.00    -0.296 N 
HETATM   32  O2  UNL     1      19.798  67.449  13.312  1.00  0.00    -0.273 OA
HETATM   33  C28 UNL     1      16.571  64.275  14.766  1.00  0.00     0.060 A 
BRANCH  31  34
HETATM   34  C4  UNL     1      19.269  65.367  15.222  1.00  0.00     0.075 C 
BRANCH  34  35
HETATM   35  C3  UNL     1      19.329  65.814  16.651  1.00  0.00     0.071 C 
BRANCH  35  36
HETATM   36  C2  UNL     1      18.194  66.578  17.188  1.00  0.00     0.172 C 
BRANCH  36  37
HETATM   37  O1  UNL     1      18.601  67.784  17.723  1.00  0.00    -0.396 OA
HETATM   38  C1  UNL     1      18.394  68.897  16.963  1.00  0.00     0.201 C 
ENDBRANCH  36  37
ENDBRANCH  35  36
ENDBRANCH  34  35
ENDBRANCH  31  34
ENDBRANCH  21  23
ENDBRANCH   1  21
BRANCH   4  39
HETATM   39  O3  UNL     1      11.623  64.906  17.534  1.00  0.00    -0.335 OA
BRANCH  39  40
HETATM   40  C14 UNL     1      12.317  65.985  18.076  1.00  0.00     0.178 C 
BRANCH  40  41
HETATM   41  C15 UNL     1      13.145  65.396  19.247  1.00  0.00     0.032 C 
BRANCH  41  42
HETATM   42  C16 UNL     1      14.550  65.777  18.962  1.00  0.00     0.046 C 
BRANCH  42  43
HETATM   43  C17 UNL     1      15.177  66.629  19.987  1.00  0.00     0.057 C 
BRANCH  43  44
HETATM   44  N4  UNL     1      15.715  67.833  19.520  1.00  0.00    -0.402 N 
HETATM   45  C18 UNL     1      14.992  68.655  18.649  1.00  0.00     0.148 C 
HETATM   46  C19 UNL     1      16.552  68.505  20.466  1.00  0.00     0.148 C 
ENDBRANCH  43  44
ENDBRANCH  42  43
ENDBRANCH  41  42
ENDBRANCH  40  41
ENDBRANCH  39  40
ENDBRANCH   4  39
TORSDOF 12
ENDMDL
MODEL 4
REMARK VINA RESULT: -8.888249406      1.921      2.442
REMARK  12 active torsions:
REMARK  status: ('A' for Active; 'I' for Inactive)
REMARK    1  A    between atoms: O1_2  and  C2_3 
REMARK    2  A    between atoms: C2_3  and  C3_4 
REMARK    3  A    between atoms: C3_4  and  C4_5 
REMARK    4  A    between atoms: C4_5  and  N1_6 
REMARK    5  A    between atoms: C11_14  and  N2_15 
REMARK    6  A    between atoms: N2_15  and  C12_17 
REMARK    7  A    between atoms: C13_20  and  O3_21 
REMARK    8  A    between atoms: O3_21  and  C14_22 
REMARK    9  A    between atoms: C14_22  and  C15_23 
REMARK   10  A    between atoms: C15_23  and  C16_24 
REMARK   11  A    between atoms: C16_24  and  C17_25 
REMARK   12  A    between atoms: C17_25  and  N4_26 
ROOT
HETATM    1  C12 UNL     1      11.419  63.583  16.619  1.00  0.00     0.686 A 
HETATM    2  N3  UNL     1      11.176  63.376  17.923  1.00  0.00    -0.170 N 
ATOM      3  H3  UNL     1      11.371  64.121  18.593  1.00  0.00     0.186 HD
HETATM    4  C13 UNL     1      10.676  62.198  18.369  1.00  0.00     0.169 A 
HETATM    5  C20 UNL     1      10.431  61.230  17.417  1.00  0.00     0.062 A 
HETATM    6  C21 UNL     1      10.692  61.473  16.084  1.00  0.00     0.172 A 
HETATM    7  N5  UNL     1      11.183  62.637  15.676  1.00  0.00    -0.169 N 
ATOM      8  H5  UNL     1      11.376  62.813  14.690  1.00  0.00     0.186 HD
HETATM    9  O4  UNL     1      10.393  60.393  15.231  1.00  0.00    -0.303 OA
HETATM   10  C22 UNL     1       9.186  59.661  15.427  1.00  0.00     0.141 C 
HETATM   11  C23 UNL     1       9.265  58.308  14.764  1.00  0.00     0.088 C 
HETATM   12  C24 UNL     1       8.015  57.985  13.971  1.00  0.00     0.237 C 
HETATM   13  N6  UNL     1       6.804  58.344  14.652  1.00  0.00    -0.075 N 
ATOM     14  H61 UNL     1       6.636  57.724  15.444  1.00  0.00     0.277 HD
ATOM     15  H62 UNL     1       5.987  58.117  14.085  1.00  0.00     0.277 HD
HETATM   16  C25 UNL     1       6.771  59.727  15.067  1.00  0.00     0.237 C 
HETATM   17  C26 UNL     1       8.065  60.436  14.723  1.00  0.00     0.088 C 
HETATM   18  N7  UNL     1       8.832  59.537  16.800  1.00  0.00    -0.387 N 
ATOM     19  H7  UNL     1       7.908  59.226  17.103  1.00  0.00     0.156 HD
HETATM   20  C27 UNL     1       9.880  59.884  17.736  1.00  0.00     0.164 C 
ENDROOT
BRANCH   1  21
HETATM   21  N2  UNL     1      11.888  64.739  16.278  1.00  0.00    -0.192 N 
ATOM     22  H2  UNL     1      11.275  65.552  16.214  1.00  0.00     0.184 HD
BRANCH  21  23
HETATM   23  C11 UNL     1      13.281  64.853  15.994  1.00  0.00     0.051 A 
HETATM   24  C10 UNL     1      13.793  64.300  14.813  1.00  0.00     0.030 A 
HETATM   25  C9  UNL     1      15.127  64.394  14.532  1.00  0.00     0.012 A 
HETATM   26  C8  UNL     1      16.023  65.029  15.383  1.00  0.00    -0.030 A 
HETATM   27  C7  UNL     1      17.461  65.046  14.976  1.00  0.00     0.050 C 
HETATM   28  C29 UNL     1      15.538  65.579  16.548  1.00  0.00     0.050 A 
HETATM   29  C6  UNL     1      18.114  66.261  15.569  1.00  0.00     0.108 C 
HETATM   30  C5  UNL     1      17.843  66.221  17.030  1.00  0.00     0.228 C 
HETATM   31  N1  UNL     1      16.460  66.208  17.423  1.00  0.00    -0.296 N 
HETATM   32  O2  UNL     1      18.780  66.200  17.830  1.00  0.00    -0.273 OA
HETATM   33  C28 UNL     1      14.191  65.475  16.818  1.00  0.00     0.060 A 
BRANCH  31  34
HETATM   34  C4  UNL     1      16.088  66.779  18.657  1.00  0.00     0.075 C 
BRANCH  34  35
HETATM   35  C3  UNL     1      15.860  68.261  18.699  1.00  0.00     0.071 C 
BRANCH  35  36
HETATM   36  C2  UNL     1      17.035  69.143  18.716  1.00  0.00     0.172 C 
BRANCH  36  37
HETATM   37  O1  UNL     1      17.273  69.697  17.475  1.00  0.00    -0.396 OA
HETATM   38  C1  UNL     1      18.567  70.004  17.175  1.00  0.00     0.201 C 
ENDBRANCH  36  37
ENDBRANCH  35  36
ENDBRANCH  34  35
ENDBRANCH  31  34
ENDBRANCH  21  23
ENDBRANCH   1  21
BRANCH   4  39
HETATM   39  O3  UNL     1      10.396  61.892  19.669  1.00  0.00    -0.335 OA
BRANCH  39  40
HETATM   40  C14 UNL     1      10.592  62.669  20.807  1.00  0.00     0.178 C 
BRANCH  40  41
HETATM   41  C15 UNL     1       9.587  62.123  21.855  1.00  0.00     0.032 C 
BRANCH  41  42
HETATM   42  C16 UNL     1       8.252  62.256  21.222  1.00  0.00     0.046 C 
BRANCH  42  43
HETATM   43  C17 UNL     1       7.217  61.364  21.773  1.00  0.00     0.057 C 
BRANCH  43  44
HETATM   44  N4  UNL     1       7.627  60.051  22.024  1.00  0.00    -0.402 N 
HETATM   45  C18 UNL     1       7.383  59.443  23.260  1.00  0.00     0.148 C 
HETATM   46  C19 UNL     1       7.568  59.192  20.880  1.00  0.00     0.148 C 
ENDBRANCH  43  44
ENDBRANCH  42  43
ENDBRANCH  41  42
ENDBRANCH  40  41
ENDBRANCH  39  40
ENDBRANCH   4  39
TORSDOF 12
ENDMDL
MODEL 5
REMARK VINA RESULT: -8.831885150      2.348      5.335
REMARK  12 active torsions:
REMARK  status: ('A' for Active; 'I' for Inactive)
REMARK    1  A    between atoms: O1_2  and  C2_3 
REMARK    2  A    between atoms: C2_3  and  C3_4 
REMARK    3  A    between atoms: C3_4  and  C4_5 
REMARK    4  A    between atoms: C4_5  and  N1_6 
REMARK    5  A    between atoms: C11_14  and  N2_15 
REMARK    6  A    between atoms: N2_15  and  C12_17 
REMARK    7  A    between atoms: C13_20  and  O3_21 
REMARK    8  A    between atoms: O3_21  and  C14_22 
REMARK    9  A    between atoms: C14_22  and  C15_23 
REMARK   10  A    between atoms: C15_23  and  C16_24 
REMARK   11  A    between atoms: C16_24  and  C17_25 
REMARK   12  A    between atoms: C17_25  and  N4_26 
ROOT
HETATM    1  C12 UNL     1      15.099  65.132  18.148  1.00  0.00     0.686 A 
HETATM    2  N3  UNL     1      14.656  64.902  16.901  1.00  0.00    -0.170 N 
ATOM      3  H3  UNL     1      15.327  64.845  16.134  1.00  0.00     0.186 HD
HETATM    4  C13 UNL     1      13.335  64.743  16.639  1.00  0.00     0.169 A 
HETATM    5  C20 UNL     1      12.477  64.830  17.715  1.00  0.00     0.062 A 
HETATM    6  C21 UNL     1      12.963  65.068  18.985  1.00  0.00     0.172 A 
HETATM    7  N5  UNL     1      14.261  65.220  19.211  1.00  0.00    -0.169 N 
ATOM      8  H5  UNL     1      14.617  65.397  20.151  1.00  0.00     0.186 HD
HETATM    9  O4  UNL     1      11.968  65.130  19.981  1.00  0.00    -0.303 OA
HETATM   10  C22 UNL     1      10.908  64.178  19.970  1.00  0.00     0.141 C 
HETATM   11  C23 UNL     1       9.735  64.673  20.780  1.00  0.00     0.088 C 
HETATM   12  C24 UNL     1       9.185  63.605  21.703  1.00  0.00     0.237 C 
HETATM   13  N6  UNL     1       9.095  62.313  21.085  1.00  0.00    -0.075 N 
ATOM     14  H61 UNL     1       8.351  62.297  20.387  1.00  0.00     0.277 HD
ATOM     15  H62 UNL     1       8.727  61.623  21.739  1.00  0.00     0.277 HD
HETATM   16  C25 UNL     1      10.343  61.865  20.514  1.00  0.00     0.237 C 
HETATM   17  C26 UNL     1      11.426  62.914  20.666  1.00  0.00     0.088 C 
HETATM   18  N7  UNL     1      10.504  63.815  18.654  1.00  0.00    -0.387 N 
ATOM     19  H7  UNL     1       9.909  63.008  18.466  1.00  0.00     0.156 HD
HETATM   20  C27 UNL     1      11.000  64.677  17.603  1.00  0.00     0.164 C 
ENDROOT
BRANCH   1  21
HETATM   21  N2  UNL     1      16.375  65.262  18.311  1.00  0.00    -0.192 N 
ATOM     22  H2  UNL     1      16.947  64.468  18.597  1.00  0.00     0.184 HD
BRANCH  21  23
HETATM   23  C11 UNL     1      16.964  66.540  18.081  1.00  0.00     0.051 A 
HETATM   24  C10 UNL     1      17.144  67.421  19.155  1.00  0.00     0.030 A 
HETATM   25  C9  UNL     1      17.700  68.652  18.948  1.00  0.00     0.012 A 
HETATM   26  C8  UNL     1      18.107  69.083  17.692  1.00  0.00    -0.030 A 
HETATM   27  C7  UNL     1      18.680  70.460  17.591  1.00  0.00     0.050 C 
HETATM   28  C29 UNL     1      17.939  68.230  16.625  1.00  0.00     0.050 A 
HETATM   29  C6  UNL     1      19.634  70.499  16.432  1.00  0.00     0.108 C 
HETATM   30  C5  UNL     1      18.886  70.007  15.245  1.00  0.00     0.228 C 
HETATM   31  N1  UNL     1      18.338  68.682  15.340  1.00  0.00    -0.296 N 
HETATM   32  O2  UNL     1      18.763  70.727  14.253  1.00  0.00    -0.273 OA
HETATM   33  C28 UNL     1      17.376  66.993  16.849  1.00  0.00     0.060 A 
BRANCH  31  34
HETATM   34  C4  UNL     1      18.188  67.912  14.169  1.00  0.00     0.075 C 
BRANCH  34  35
HETATM   35  C3  UNL     1      19.394  67.185  13.654  1.00  0.00     0.071 C 
BRANCH  35  36
HETATM   36  C2  UNL     1      19.255  65.761  13.317  1.00  0.00     0.172 C 
BRANCH  36  37
HETATM   37  O1  UNL     1      20.115  64.977  14.058  1.00  0.00    -0.396 OA
HETATM   38  C1  UNL     1      19.751  64.711  15.345  1.00  0.00     0.201 C 
ENDBRANCH  36  37
ENDBRANCH  35  36
ENDBRANCH  34  35
ENDBRANCH  31  34
ENDBRANCH  21  23
ENDBRANCH   1  21
BRANCH   4  39
HETATM   39  O3  UNL     1      12.790  64.507  15.412  1.00  0.00    -0.335 OA
BRANCH  39  40
HETATM   40  C14 UNL     1      12.956  63.400  14.584  1.00  0.00     0.178 C 
BRANCH  40  41
HETATM   41  C15 UNL     1      12.627  62.170  15.470  1.00  0.00     0.032 C 
BRANCH  41  42
HETATM   42  C16 UNL     1      11.176  61.926  15.274  1.00  0.00     0.046 C 
BRANCH  42  43
HETATM   43  C17 UNL     1      10.602  60.893  16.153  1.00  0.00     0.057 C 
BRANCH  43  44
HETATM   44  N4  UNL     1       9.906  59.869  15.502  1.00  0.00    -0.402 N 
HETATM   45  C18 UNL     1       8.929  59.124  16.170  1.00  0.00     0.148 C 
HETATM   46  C19 UNL     1       9.663  60.120  14.114  1.00  0.00     0.148 C 
ENDBRANCH  43  44
ENDBRANCH  42  43
ENDBRANCH  41  42
ENDBRANCH  40  41
ENDBRANCH  39  40
ENDBRANCH   4  39
TORSDOF 12
ENDMDL
