MODEL 1
REMARK VINA RESULT: -8.375824379      0.000      0.000
REMARK  14 active torsions:
REMARK  status: ('A' for Active; 'I' for Inactive)
REMARK    1  A    between atoms: C2_2  and  C3_3 
REMARK    2  A    between atoms: C3_3  and  O1_4 
REMARK    3  A    between atoms: O1_4  and  C4_5 
REMARK    4  A    between atoms: C4_5  and  C5_7 
REMARK    5  A    between atoms: C5_7  and  C6_8 
REMARK       I    between atoms: N1_12  and  C10_13 
REMARK    6  A    between atoms: C10_13  and  C11_15 
REMARK    7  A    between atoms: C11_15  and  C12_16 
REMARK    8  A    between atoms: C11_15  and  N2_24 
REMARK    9  A    between atoms: C12_16  and  C13_17 
REMARK   10  A    between atoms: C13_17  and  O5_19 
REMARK   11  A    between atoms: O5_19  and  C14_20 
REMARK       I    between atoms: N2_24  and  C18_26 
REMARK   12  A    between atoms: C18_26  and  C19_28 
REMARK   13  A    between atoms: C19_28  and  N3_29 
REMARK       I    between atoms: N3_29  and  C20_31 
REMARK   14  A    between atoms: C20_31  and  C21_33 
ROOT
HETATM    1  C11 UNL     1       7.937  60.789  18.993  1.00  0.00     0.186 C 
ENDROOT
BRANCH   1   2
HETATM    2  C10 UNL     1       8.969  61.820  18.974  1.00  0.00     0.243 C 
HETATM    3  N1  UNL     1       9.264  62.671  20.050  1.00  0.00    -0.345 N 
HETATM    4  C6  UNL     1      10.308  63.653  20.213  1.00  0.00     0.096 C 
HETATM    5  C9  UNL     1       8.451  62.648  21.287  1.00  0.00     0.126 C 
HETATM    6  C7  UNL     1       9.708  64.604  21.221  1.00  0.00     0.027 C 
HETATM    7  C8  UNL     1       9.229  63.546  22.248  1.00  0.00     0.022 C 
HETATM    8  O3  UNL     1       9.661  61.930  17.890  1.00  0.00    -0.271 OA
BRANCH   4   9
HETATM    9  C5  UNL     1      10.901  64.251  19.012  1.00  0.00     0.136 C 
BRANCH   9  10
HETATM   10  C4  UNL     1      12.332  64.039  18.817  1.00  0.00     0.260 C 
HETATM   11  O2  UNL     1      13.134  64.850  19.272  1.00  0.00    -0.265 OA
BRANCH  10  12
HETATM   12  O1  UNL     1      12.805  62.941  18.126  1.00  0.00    -0.321 OA
BRANCH  12  13
HETATM   13  C3  UNL     1      13.451  63.064  16.901  1.00  0.00     0.178 C 
BRANCH  13  14
HETATM   14  C2  UNL     1      12.627  63.663  15.797  1.00  0.00     0.022 C 
HETATM   15  C1  UNL     1      11.795  62.555  15.184  1.00  0.00     0.007 C 
ENDBRANCH  13  14
ENDBRANCH  12  13
ENDBRANCH  10  12
ENDBRANCH   9  10
ENDBRANCH   4   9
ENDBRANCH   1   2
BRANCH   1  16
HETATM   16  C12 UNL     1       6.650  61.090  19.622  1.00  0.00     0.146 C 
BRANCH  16  17
HETATM   17  C13 UNL     1       5.894  60.029  20.242  1.00  0.00     0.262 C 
HETATM   18  O4  UNL     1       6.178  58.816  19.872  1.00  0.00    -0.265 OA
BRANCH  17  19
HETATM   19  O5  UNL     1       4.897  60.046  21.171  1.00  0.00    -0.311 OA
BRANCH  19  20
HETATM   20  C14 UNL     1       5.105  60.454  22.499  1.00  0.00     0.060 C 
HETATM   21  C15 UNL     1       6.406  59.916  23.052  1.00  0.00     0.045 C 
HETATM   22  C16 UNL     1       3.975  59.999  23.370  1.00  0.00     0.045 C 
HETATM   23  C17 UNL     1       5.157  61.967  22.625  1.00  0.00     0.045 C 
ENDBRANCH  19  20
ENDBRANCH  17  19
ENDBRANCH  16  17
ENDBRANCH   1  16
BRANCH   1  24
HETATM   24  N2  UNL     1       7.698  60.486  17.539  1.00  0.00    -0.345 N 
HETATM   25  C18 UNL     1       7.931  59.202  17.021  1.00  0.00     0.246 C 
HETATM   26  O6  UNL     1       8.342  58.311  17.792  1.00  0.00    -0.271 OA
ATOM     27  H2  UNL     1       7.363  61.224  16.920  1.00  0.00     0.163 HD
BRANCH  25  28
HETATM   28  C19 UNL     1       7.703  58.900  15.600  1.00  0.00     0.114 C 
HETATM   29  C23 UNL     1       8.843  58.012  15.146  1.00  0.00     0.041 C 
HETATM   30  C24 UNL     1       9.657  58.786  14.156  1.00  0.00     0.003 C 
HETATM   31  C25 UNL     1       9.113  60.175  14.107  1.00  0.00     0.003 C 
HETATM   32  C26 UNL     1       7.775  60.165  14.795  1.00  0.00     0.041 C 
BRANCH  28  33
HETATM   33  N3  UNL     1       6.422  58.248  15.453  1.00  0.00    -0.342 N 
HETATM   34  C20 UNL     1       5.173  58.805  15.780  1.00  0.00     0.233 C 
HETATM   35  O7  UNL     1       5.109  59.958  16.246  1.00  0.00    -0.272 OA
ATOM     36  H3  UNL     1       6.424  57.299  15.079  1.00  0.00     0.163 HD
BRANCH  34  37
HETATM   37  C21 UNL     1       3.942  58.025  15.568  1.00  0.00     0.146 C 
HETATM   38  C22 UNL     1       3.772  56.976  16.672  1.00  0.00     0.032 C 
HETATM   39  S1  UNL     1       2.459  59.082  15.496  1.00  0.00    -0.083 SA
ENDBRANCH  34  37
ENDBRANCH  28  33
ENDBRANCH  25  28
ENDBRANCH   1  24
TORSDOF 14
ENDMDL
MODEL 2
REMARK VINA RESULT: -8.374002827      2.212      3.563
REMARK  14 active torsions:
REMARK  status: ('A' for Active; 'I' for Inactive)
REMARK    1  A    between atoms: C2_2  and  C3_3 
REMARK    2  A    between atoms: C3_3  and  O1_4 
REMARK    3  A    between atoms: O1_4  and  C4_5 
REMARK    4  A    between atoms: C4_5  and  C5_7 
REMARK    5  A    between atoms: C5_7  and  C6_8 
REMARK       I    between atoms: N1_12  and  C10_13 
REMARK    6  A    between atoms: C10_13  and  C11_15 
REMARK    7  A    between atoms: C11_15  and  C12_16 
REMARK    8  A    between atoms: C11_15  and  N2_24 
REMARK    9  A    between atoms: C12_16  and  C13_17 
REMARK   10  A    between atoms: C13_17  and  O5_19 
REMARK   11  A    between atoms: O5_19  and  C14_20 
REMARK       I    between atoms: N2_24  and  C18_26 
REMARK   12  A    between atoms: C18_26  and  C19_28 
REMARK   13  A    between atoms: C19_28  and  N3_29 
REMARK       I    between atoms: N3_29  and  C20_31 
REMARK   14  A    between atoms: C20_31  and  C21_33 
ROOT
HETATM    1  C11 UNL     1       9.583  61.980  18.631  1.00  0.00     0.186 C 
ENDROOT
BRANCH   1   2
HETATM    2  C10 UNL     1      10.304  63.212  18.327  1.00  0.00     0.243 C 
HETATM    3  N1  UNL     1      11.174  63.377  17.239  1.00  0.00    -0.345 N 
HETATM    4  C6  UNL     1      11.867  64.548  16.760  1.00  0.00     0.096 C 
HETATM    5  C9  UNL     1      11.510  62.242  16.350  1.00  0.00     0.126 C 
HETATM    6  C7  UNL     1      13.054  63.954  16.041  1.00  0.00     0.027 C 
HETATM    7  C8  UNL     1      12.287  62.895  15.208  1.00  0.00     0.022 C 
HETATM    8  O3  UNL     1      10.101  64.213  19.116  1.00  0.00    -0.271 OA
BRANCH   4   9
HETATM    9  C5  UNL     1      12.143  65.635  17.705  1.00  0.00     0.136 C 
BRANCH   9  10
HETATM   10  C4  UNL     1      13.353  65.507  18.511  1.00  0.00     0.260 C 
HETATM   11  O2  UNL     1      13.419  64.638  19.377  1.00  0.00    -0.265 OA
BRANCH  10  12
HETATM   12  O1  UNL     1      14.432  66.348  18.321  1.00  0.00    -0.321 OA
BRANCH  12  13
HETATM   13  C3  UNL     1      15.471  66.431  19.240  1.00  0.00     0.178 C 
BRANCH  13  14
HETATM   14  C2  UNL     1      15.340  67.526  20.261  1.00  0.00     0.022 C 
HETATM   15  C1  UNL     1      16.711  67.772  20.858  1.00  0.00     0.007 C 
ENDBRANCH  13  14
ENDBRANCH  12  13
ENDBRANCH  10  12
ENDBRANCH   9  10
ENDBRANCH   4   9
ENDBRANCH   1   2
BRANCH   1  16
HETATM   16  C12 UNL     1       8.562  62.000  19.678  1.00  0.00     0.146 C 
BRANCH  16  17
HETATM   17  C13 UNL     1       8.893  61.546  21.007  1.00  0.00     0.262 C 
HETATM   18  O4  UNL     1      10.157  61.457  21.295  1.00  0.00    -0.265 OA
BRANCH  17  19
HETATM   19  O5  UNL     1       8.114  61.171  22.061  1.00  0.00    -0.311 OA
BRANCH  19  20
HETATM   20  C14 UNL     1       7.374  59.977  22.069  1.00  0.00     0.060 C 
HETATM   21  C15 UNL     1       5.944  60.203  21.633  1.00  0.00     0.045 C 
HETATM   22  C16 UNL     1       7.380  59.368  23.438  1.00  0.00     0.045 C 
HETATM   23  C17 UNL     1       7.967  58.936  21.137  1.00  0.00     0.045 C 
ENDBRANCH  19  20
ENDBRANCH  17  19
ENDBRANCH  16  17
ENDBRANCH   1  16
BRANCH   1  24
HETATM   24  N2  UNL     1       8.925  61.613  17.329  1.00  0.00    -0.345 N 
HETATM   25  C18 UNL     1       8.674  60.272  16.999  1.00  0.00     0.246 C 
HETATM   26  O6  UNL     1       9.009  59.383  17.810  1.00  0.00    -0.271 OA
ATOM     27  H2  UNL     1       8.658  62.349  16.676  1.00  0.00     0.163 HD
BRANCH  25  28
HETATM   28  C19 UNL     1       8.035  59.906  15.726  1.00  0.00     0.114 C 
HETATM   29  C23 UNL     1       8.450  58.483  15.414  1.00  0.00     0.041 C 
HETATM   30  C24 UNL     1       9.315  58.518  14.193  1.00  0.00     0.003 C 
HETATM   31  C25 UNL     1       9.548  59.950  13.842  1.00  0.00     0.003 C 
HETATM   32  C26 UNL     1       8.564  60.777  14.625  1.00  0.00     0.041 C 
BRANCH  28  33
HETATM   33  N3  UNL     1       6.602  60.031  15.863  1.00  0.00    -0.342 N 
HETATM   34  C20 UNL     1       5.735  59.047  16.370  1.00  0.00     0.233 C 
HETATM   35  O7  UNL     1       6.191  57.950  16.744  1.00  0.00    -0.272 OA
ATOM     36  H3  UNL     1       6.182  60.911  15.564  1.00  0.00     0.163 HD
BRANCH  34  37
HETATM   37  C21 UNL     1       4.290  59.316  16.461  1.00  0.00     0.146 C 
HETATM   38  C22 UNL     1       3.511  58.397  15.515  1.00  0.00     0.032 C 
HETATM   39  S1  UNL     1       3.657  59.124  18.159  1.00  0.00    -0.083 SA
ENDBRANCH  34  37
ENDBRANCH  28  33
ENDBRANCH  25  28
ENDBRANCH   1  24
TORSDOF 14
ENDMDL
MODEL 3
REMARK VINA RESULT: -8.330612290      2.456      3.510
REMARK  14 active torsions:
REMARK  status: ('A' for Active; 'I' for Inactive)
REMARK    1  A    between atoms: C2_2  and  C3_3 
REMARK    2  A    between atoms: C3_3  and  O1_4 
REMARK    3  A    between atoms: O1_4  and  C4_5 
REMARK    4  A    between atoms: C4_5  and  C5_7 
REMARK    5  A    between atoms: C5_7  and  C6_8 
REMARK       I    between atoms: N1_12  and  C10_13 
REMARK    6  A    between atoms: C10_13  and  C11_15 
REMARK    7  A    between atoms: C11_15  and  C12_16 
REMARK    8  A    between atoms: C11_15  and  N2_24 
REMARK    9  A    between atoms: C12_16  and  C13_17 
REMARK   10  A    between atoms: C13_17  and  O5_19 
REMARK   11  A    between atoms: O5_19  and  C14_20 
REMARK       I    between atoms: N2_24  and  C18_26 
REMARK   12  A    between atoms: C18_26  and  C19_28 
REMARK   13  A    between atoms: C19_28  and  N3_29 
REMARK       I    between atoms: N3_29  and  C20_31 
REMARK   14  A    between atoms: C20_31  and  C21_33 
ROOT
HETATM    1  C11 UNL     1       9.289  62.174  19.135  1.00  0.00     0.186 C 
ENDROOT
BRANCH   1   2
HETATM    2  C10 UNL     1      10.285  63.226  18.965  1.00  0.00     0.243 C 
HETATM    3  N1  UNL     1      11.609  63.009  18.553  1.00  0.00    -0.345 N 
HETATM    4  C6  UNL     1      12.663  63.945  18.247  1.00  0.00     0.096 C 
HETATM    5  C9  UNL     1      12.131  61.639  18.352  1.00  0.00     0.126 C 
HETATM    6  C7  UNL     1      13.908  63.132  18.507  1.00  0.00     0.027 C 
HETATM    7  C8  UNL     1      13.501  61.865  17.713  1.00  0.00     0.022 C 
HETATM    8  O3  UNL     1       9.899  64.435  19.199  1.00  0.00    -0.271 OA
BRANCH   4   9
HETATM    9  C5  UNL     1      12.608  65.282  18.847  1.00  0.00     0.136 C 
BRANCH   9  10
HETATM   10  C4  UNL     1      13.812  66.099  18.729  1.00  0.00     0.260 C 
HETATM   11  O2  UNL     1      14.058  66.672  17.671  1.00  0.00    -0.265 OA
BRANCH  10  12
HETATM   12  O1  UNL     1      14.687  66.241  19.788  1.00  0.00    -0.321 OA
BRANCH  12  13
HETATM   13  C3  UNL     1      15.132  67.488  20.213  1.00  0.00     0.178 C 
BRANCH  13  14
HETATM   14  C2  UNL     1      16.507  67.508  20.817  1.00  0.00     0.022 C 
HETATM   15  C1  UNL     1      17.461  68.070  19.783  1.00  0.00     0.007 C 
ENDBRANCH  13  14
ENDBRANCH  12  13
ENDBRANCH  10  12
ENDBRANCH   9  10
ENDBRANCH   4   9
ENDBRANCH   1   2
BRANCH   1  16
HETATM   16  C12 UNL     1       8.098  62.453  19.938  1.00  0.00     0.146 C 
BRANCH  16  17
HETATM   17  C13 UNL     1       8.144  62.276  21.369  1.00  0.00     0.262 C 
HETATM   18  O4  UNL     1       8.030  63.348  22.094  1.00  0.00    -0.265 OA
BRANCH  17  19
HETATM   19  O5  UNL     1       8.296  61.164  22.144  1.00  0.00    -0.311 OA
BRANCH  19  20
HETATM   20  C14 UNL     1       7.324  60.153  22.218  1.00  0.00     0.060 C 
HETATM   21  C15 UNL     1       7.435  59.186  21.060  1.00  0.00     0.045 C 
HETATM   22  C16 UNL     1       5.950  60.749  22.232  1.00  0.00     0.045 C 
HETATM   23  C17 UNL     1       7.448  59.339  23.494  1.00  0.00     0.045 C 
ENDBRANCH  19  20
ENDBRANCH  17  19
ENDBRANCH  16  17
ENDBRANCH   1  16
BRANCH   1  24
HETATM   24  N2  UNL     1       8.854  61.854  17.730  1.00  0.00    -0.345 N 
HETATM   25  C18 UNL     1       8.764  60.526  17.286  1.00  0.00     0.246 C 
HETATM   26  O6  UNL     1       9.053  59.608  18.082  1.00  0.00    -0.271 OA
ATOM     27  H2  UNL     1       8.621  62.614  17.092  1.00  0.00     0.163 HD
BRANCH  25  28
HETATM   28  C19 UNL     1       8.343  60.207  15.914  1.00  0.00     0.114 C 
HETATM   29  C23 UNL     1       8.958  58.869  15.560  1.00  0.00     0.041 C 
HETATM   30  C24 UNL     1       9.965  59.103  14.477  1.00  0.00     0.003 C 
HETATM   31  C25 UNL     1      10.073  60.576  14.267  1.00  0.00     0.003 C 
HETATM   32  C26 UNL     1       8.906  61.222  14.963  1.00  0.00     0.041 C 
BRANCH  28  33
HETATM   33  N3  UNL     1       6.900  60.167  15.858  1.00  0.00    -0.342 N 
HETATM   34  C20 UNL     1       6.092  59.082  16.238  1.00  0.00     0.233 C 
HETATM   35  O7  UNL     1       6.616  58.034  16.661  1.00  0.00    -0.272 OA
ATOM     36  H3  UNL     1       6.425  61.002  15.512  1.00  0.00     0.163 HD
BRANCH  34  37
HETATM   37  C21 UNL     1       4.626  59.185  16.136  1.00  0.00     0.146 C 
HETATM   38  C22 UNL     1       4.003  57.803  15.916  1.00  0.00     0.032 C 
HETATM   39  S1  UNL     1       3.884  59.962  17.608  1.00  0.00    -0.083 SA
ENDBRANCH  34  37
ENDBRANCH  28  33
ENDBRANCH  25  28
ENDBRANCH   1  24
TORSDOF 14
ENDMDL
MODEL 4
REMARK VINA RESULT: -8.317001091      1.148      1.705
REMARK  14 active torsions:
REMARK  status: ('A' for Active; 'I' for Inactive)
REMARK    1  A    between atoms: C2_2  and  C3_3 
REMARK    2  A    between atoms: C3_3  and  O1_4 
REMARK    3  A    between atoms: O1_4  and  C4_5 
REMARK    4  A    between atoms: C4_5  and  C5_7 
REMARK    5  A    between atoms: C5_7  and  C6_8 
REMARK       I    between atoms: N1_12  and  C10_13 
REMARK    6  A    between atoms: C10_13  and  C11_15 
REMARK    7  A    between atoms: C11_15  and  C12_16 
REMARK    8  A    between atoms: C11_15  and  N2_24 
REMARK    9  A    between atoms: C12_16  and  C13_17 
REMARK   10  A    between atoms: C13_17  and  O5_19 
REMARK   11  A    between atoms: O5_19  and  C14_20 
REMARK       I    between atoms: N2_24  and  C18_26 
REMARK   12  A    between atoms: C18_26  and  C19_28 
REMARK   13  A    between atoms: C19_28  and  N3_29 
REMARK       I    between atoms: N3_29  and  C20_31 
REMARK   14  A    between atoms: C20_31  and  C21_33 
ROOT
HETATM    1  C11 UNL     1       7.935  60.762  19.000  1.00  0.00     0.186 C 
ENDROOT
BRANCH   1   2
HETATM    2  C10 UNL     1       8.976  61.785  18.984  1.00  0.00     0.243 C 
HETATM    3  N1  UNL     1       9.260  62.648  20.052  1.00  0.00    -0.345 N 
HETATM    4  C6  UNL     1      10.309  63.625  20.218  1.00  0.00     0.096 C 
HETATM    5  C9  UNL     1       8.427  62.649  21.276  1.00  0.00     0.126 C 
HETATM    6  C7  UNL     1       9.701  64.594  21.203  1.00  0.00     0.027 C 
HETATM    7  C8  UNL     1       9.198  63.554  22.237  1.00  0.00     0.022 C 
HETATM    8  O3  UNL     1       9.685  61.874  17.909  1.00  0.00    -0.271 OA
BRANCH   4   9
HETATM    9  C5  UNL     1      10.925  64.201  19.018  1.00  0.00     0.136 C 
BRANCH   9  10
HETATM   10  C4  UNL     1      12.374  64.376  19.050  1.00  0.00     0.260 C 
HETATM   11  O2  UNL     1      13.108  63.407  18.873  1.00  0.00    -0.265 OA
BRANCH  10  12
HETATM   12  O1  UNL     1      12.940  65.614  19.278  1.00  0.00    -0.321 OA
BRANCH  12  13
HETATM   13  C3  UNL     1      14.218  65.933  18.834  1.00  0.00     0.178 C 
BRANCH  13  14
HETATM   14  C2  UNL     1      14.861  67.108  19.514  1.00  0.00     0.022 C 
HETATM   15  C1  UNL     1      14.593  68.337  18.669  1.00  0.00     0.007 C 
ENDBRANCH  13  14
ENDBRANCH  12  13
ENDBRANCH  10  12
ENDBRANCH   9  10
ENDBRANCH   4   9
ENDBRANCH   1   2
BRANCH   1  16
HETATM   16  C12 UNL     1       6.653  61.070  19.634  1.00  0.00     0.146 C 
BRANCH  16  17
HETATM   17  C13 UNL     1       5.887  60.012  20.246  1.00  0.00     0.262 C 
HETATM   18  O4  UNL     1       6.151  58.800  19.859  1.00  0.00    -0.265 OA
BRANCH  17  19
HETATM   19  O5  UNL     1       4.896  60.030  21.183  1.00  0.00    -0.311 OA
BRANCH  19  20
HETATM   20  C14 UNL     1       5.111  60.452  22.505  1.00  0.00     0.060 C 
HETATM   21  C15 UNL     1       6.413  59.916  23.058  1.00  0.00     0.045 C 
HETATM   22  C16 UNL     1       3.984  60.009  23.386  1.00  0.00     0.045 C 
HETATM   23  C17 UNL     1       5.168  61.966  22.615  1.00  0.00     0.045 C 
ENDBRANCH  19  20
ENDBRANCH  17  19
ENDBRANCH  16  17
ENDBRANCH   1  16
BRANCH   1  24
HETATM   24  N2  UNL     1       7.691  60.467  17.545  1.00  0.00    -0.345 N 
HETATM   25  C18 UNL     1       7.918  59.186  17.019  1.00  0.00     0.246 C 
HETATM   26  O6  UNL     1       8.330  58.289  17.784  1.00  0.00    -0.271 OA
ATOM     27  H2  UNL     1       7.355  61.209  16.932  1.00  0.00     0.163 HD
BRANCH  25  28
HETATM   28  C19 UNL     1       7.684  58.892  15.598  1.00  0.00     0.114 C 
HETATM   29  C23 UNL     1       8.823  58.008  15.134  1.00  0.00     0.041 C 
HETATM   30  C24 UNL     1       9.632  58.788  14.145  1.00  0.00     0.003 C 
HETATM   31  C25 UNL     1       9.087  60.177  14.107  1.00  0.00     0.003 C 
HETATM   32  C26 UNL     1       7.752  60.162  14.801  1.00  0.00     0.041 C 
BRANCH  28  33
HETATM   33  N3  UNL     1       6.403  58.240  15.452  1.00  0.00    -0.342 N 
HETATM   34  C20 UNL     1       5.153  58.804  15.761  1.00  0.00     0.233 C 
HETATM   35  O7  UNL     1       5.088  59.965  16.209  1.00  0.00    -0.272 OA
ATOM     36  H3  UNL     1       6.406  57.285  15.094  1.00  0.00     0.163 HD
BRANCH  34  37
HETATM   37  C21 UNL     1       3.922  58.023  15.554  1.00  0.00     0.146 C 
HETATM   38  C22 UNL     1       3.750  56.983  16.665  1.00  0.00     0.032 C 
HETATM   39  S1  UNL     1       2.439  59.080  15.472  1.00  0.00    -0.083 SA
ENDBRANCH  34  37
ENDBRANCH  28  33
ENDBRANCH  25  28
ENDBRANCH   1  24
TORSDOF 14
ENDMDL
MODEL 5
REMARK VINA RESULT: -8.229559149      1.351      1.574
REMARK  14 active torsions:
REMARK  status: ('A' for Active; 'I' for Inactive)
REMARK    1  A    between atoms: C2_2  and  C3_3 
REMARK    2  A    between atoms: C3_3  and  O1_4 
REMARK    3  A    between atoms: O1_4  and  C4_5 
REMARK    4  A    between atoms: C4_5  and  C5_7 
REMARK    5  A    between atoms: C5_7  and  C6_8 
REMARK       I    between atoms: N1_12  and  C10_13 
REMARK    6  A    between atoms: C10_13  and  C11_15 
REMARK    7  A    between atoms: C11_15  and  C12_16 
REMARK    8  A    between atoms: C11_15  and  N2_24 
REMARK    9  A    between atoms: C12_16  and  C13_17 
REMARK   10  A    between atoms: C13_17  and  O5_19 
REMARK   11  A    between atoms: O5_19  and  C14_20 
REMARK       I    between atoms: N2_24  and  C18_26 
REMARK   12  A    between atoms: C18_26  and  C19_28 
REMARK   13  A    between atoms: C19_28  and  N3_29 
REMARK       I    between atoms: N3_29  and  C20_31 
REMARK   14  A    between atoms: C20_31  and  C21_33 
ROOT
HETATM    1  C11 UNL     1       7.734  60.785  19.111  1.00  0.00     0.186 C 
ENDROOT
BRANCH   1   2
HETATM    2  C10 UNL     1       8.806  61.772  19.035  1.00  0.00     0.243 C 
HETATM    3  N1  UNL     1       9.157  62.647  20.074  1.00  0.00    -0.345 N 
HETATM    4  C6  UNL     1      10.243  63.591  20.181  1.00  0.00     0.096 C 
HETATM    5  C9  UNL     1       8.370  62.700  21.327  1.00  0.00     0.126 C 
HETATM    6  C7  UNL     1       9.704  64.599  21.166  1.00  0.00     0.027 C 
HETATM    7  C8  UNL     1       9.204  63.598  22.240  1.00  0.00     0.022 C 
HETATM    8  O3  UNL     1       9.478  61.815  17.934  1.00  0.00    -0.271 OA
BRANCH   4   9
HETATM    9  C5  UNL     1      10.834  64.121  18.948  1.00  0.00     0.136 C 
BRANCH   9  10
HETATM   10  C4  UNL     1      12.248  63.834  18.727  1.00  0.00     0.260 C 
HETATM   11  O2  UNL     1      13.102  64.583  19.193  1.00  0.00    -0.265 OA
BRANCH  10  12
HETATM   12  O1  UNL     1      12.648  62.731  17.998  1.00  0.00    -0.321 OA
BRANCH  12  13
HETATM   13  C3  UNL     1      13.212  62.850  16.732  1.00  0.00     0.178 C 
BRANCH  13  14
HETATM   14  C2  UNL     1      12.242  63.138  15.622  1.00  0.00     0.022 C 
HETATM   15  C1  UNL     1      13.043  63.528  14.396  1.00  0.00     0.007 C 
ENDBRANCH  13  14
ENDBRANCH  12  13
ENDBRANCH  10  12
ENDBRANCH   9  10
ENDBRANCH   4   9
ENDBRANCH   1   2
BRANCH   1  16
HETATM   16  C12 UNL     1       6.465  61.168  19.732  1.00  0.00     0.146 C 
BRANCH  16  17
HETATM   17  C13 UNL     1       5.249  60.499  19.340  1.00  0.00     0.262 C 
HETATM   18  O4  UNL     1       5.190  59.219  19.558  1.00  0.00    -0.265 OA
BRANCH  17  19
HETATM   19  O5  UNL     1       4.104  60.958  18.758  1.00  0.00    -0.311 OA
BRANCH  19  20
HETATM   20  C14 UNL     1       3.229  61.846  19.404  1.00  0.00     0.060 C 
HETATM   21  C15 UNL     1       3.210  61.622  20.900  1.00  0.00     0.045 C 
HETATM   22  C16 UNL     1       1.839  61.695  18.867  1.00  0.00     0.045 C 
HETATM   23  C17 UNL     1       3.619  63.296  19.174  1.00  0.00     0.045 C 
ENDBRANCH  19  20
ENDBRANCH  17  19
ENDBRANCH  16  17
ENDBRANCH   1  16
BRANCH   1  24
HETATM   24  N2  UNL     1       7.472  60.421  17.675  1.00  0.00    -0.345 N 
HETATM   25  C18 UNL     1       7.795  59.147  17.182  1.00  0.00     0.246 C 
HETATM   26  O6  UNL     1       8.309  58.316  17.961  1.00  0.00    -0.271 OA
ATOM     27  H2  UNL     1       7.053  61.109  17.051  1.00  0.00     0.163 HD
BRANCH  25  28
HETATM   28  C19 UNL     1       7.545  58.785  15.779  1.00  0.00     0.114 C 
HETATM   29  C23 UNL     1       8.677  57.878  15.346  1.00  0.00     0.041 C 
HETATM   30  C24 UNL     1       9.476  58.607  14.311  1.00  0.00     0.003 C 
HETATM   31  C25 UNL     1       8.933  59.994  14.212  1.00  0.00     0.003 C 
HETATM   32  C26 UNL     1       7.606  60.015  14.921  1.00  0.00     0.041 C 
BRANCH  28  33
HETATM   33  N3  UNL     1       6.261  58.130  15.680  1.00  0.00    -0.342 N 
HETATM   34  C20 UNL     1       5.008  58.766  15.708  1.00  0.00     0.233 C 
HETATM   35  O7  UNL     1       4.942  60.004  15.834  1.00  0.00    -0.272 OA
ATOM     36  H3  UNL     1       6.265  57.115  15.581  1.00  0.00     0.163 HD
BRANCH  34  37
HETATM   37  C21 UNL     1       3.776  57.970  15.587  1.00  0.00     0.146 C 
HETATM   38  C22 UNL     1       3.674  56.958  16.733  1.00  0.00     0.032 C 
HETATM   39  S1  UNL     1       2.280  59.011  15.558  1.00  0.00    -0.083 SA
ENDBRANCH  34  37
ENDBRANCH  28  33
ENDBRANCH  25  28
ENDBRANCH   1  24
TORSDOF 14
ENDMDL
