MODEL 1
REMARK VINA RESULT: -8.037700898      0.000      0.000
REMARK  14 active torsions:
REMARK  status: ('A' for Active; 'I' for Inactive)
REMARK    1  A    between atoms: C3_3  and  C4_4 
REMARK    2  A    between atoms: C4_4  and  C5_5 
REMARK    3  A    between atoms: C5_5  and  N1_7 
REMARK       I    between atoms: N1_7  and  C8_9 
REMARK    4  A    between atoms: C8_9  and  C9_11 
REMARK    5  A    between atoms: C14_16  and  C15_17 
REMARK    6  A    between atoms: C18_26  and  N5_27 
REMARK    7  A    between atoms: N5_27  and  C20_29 
REMARK    8  A    between atoms: C20_29  and  C21_30 
REMARK    9  A    between atoms: C21_30  and  O4_32 
REMARK   10  A    between atoms: C23_36  and  N7_37 
REMARK   11  A    between atoms: N7_37  and  C24_39 
REMARK   12  A    between atoms: C24_39  and  C25_40 
REMARK   13  A    between atoms: C24_39  and  C27_42 
REMARK   14  A    between atoms: C27_42  and  O5_43 
ROOT
HETATM    1  C1  UNL     1      11.714  19.181  13.052  1.00  0.00     0.096 C 
HETATM    2  C2  UNL     1      12.734  19.742  13.416  1.00  0.00    -0.188 C 
HETATM    3  C3  UNL     1      13.973  20.401  13.835  1.00  0.00     0.081 C 
ENDROOT
BRANCH   3   4
HETATM    4  C4  UNL     1      14.011  20.641  15.302  1.00  0.00     0.036 C 
BRANCH   4   5
HETATM    5  C5  UNL     1      15.090  21.535  15.807  1.00  0.00     0.083 C 
HETATM    6  C6  UNL     1      15.896  21.966  14.562  1.00  0.00     0.032 C 
BRANCH   5   7
HETATM    7  N1  UNL     1      14.562  22.700  16.513  1.00  0.00    -0.348 N 
HETATM    8  C7  UNL     1      13.560  23.506  15.840  1.00  0.00     0.153 C 
HETATM    9  C8  UNL     1      15.013  23.116  17.794  1.00  0.00     0.254 C 
HETATM   10  O1  UNL     1      14.389  24.060  18.342  1.00  0.00    -0.267 OA
BRANCH   9  11
HETATM   11  C9  UNL     1      16.155  22.528  18.500  1.00  0.00     0.050 A 
HETATM   12  C10 UNL     1      17.344  23.294  18.471  1.00  0.00     0.033 A 
HETATM   13  C11 UNL     1      18.466  22.835  19.067  1.00  0.00     0.009 A 
HETATM   14  C12 UNL     1      18.428  21.614  19.698  1.00  0.00     0.046 A 
HETATM   15  C28 UNL     1      19.756  23.371  19.192  1.00  0.00     0.065 A 
HETATM   16  C13 UNL     1      17.243  20.862  19.724  1.00  0.00     0.049 A 
HETATM   17  N3  UNL     1      19.658  21.400  20.192  1.00  0.00    -0.340 N 
HETATM   18  C14 UNL     1      16.098  21.330  19.122  1.00  0.00     0.064 A 
HETATM   19  C17 UNL     1      20.466  22.435  19.900  1.00  0.00     0.136 A 
ATOM     20  H3  UNL     1      19.939  20.570  20.713  1.00  0.00     0.167 HD
HETATM   21  N4  UNL     1      21.774  22.726  20.170  1.00  0.00    -0.175 N 
HETATM   22  C18 UNL     1      22.336  23.872  19.767  1.00  0.00     0.683 A 
ATOM     23  H4  UNL     1      22.335  22.053  20.693  1.00  0.00     0.186 HD
HETATM   24  N6  UNL     1      21.597  24.782  19.069  1.00  0.00    -0.176 N 
HETATM   25  C23 UNL     1      20.323  24.587  18.762  1.00  0.00     0.132 A 
ATOM     26  H6  UNL     1      22.044  25.649  18.772  1.00  0.00     0.186 HD
BRANCH  18  27
HETATM   27  C15 UNL     1      14.834  20.517  19.209  1.00  0.00     0.321 C 
HETATM   28  O2  UNL     1      13.808  21.128  19.527  1.00  0.00    -0.251 OA
HETATM   29  N2  UNL     1      14.949  19.181  18.937  1.00  0.00    -0.416 NA
HETATM   30  C16 UNL     1      15.061  17.841  18.664  1.00  0.00     0.264 C 
ENDBRANCH  18  27
BRANCH  22  31
HETATM   31  N5  UNL     1      23.674  24.261  20.042  1.00  0.00    -0.213 N 
HETATM   32  C19 UNL     1      24.771  23.372  19.661  1.00  0.00     0.169 C 
BRANCH  31  33
HETATM   33  C20 UNL     1      23.993  25.519  20.684  1.00  0.00     0.251 C 
BRANCH  33  34
HETATM   34  C21 UNL     1      24.521  26.496  19.696  1.00  0.00     0.277 C 
HETATM   35  O3  UNL     1      25.590  27.086  19.976  1.00  0.00    -0.263 OA
BRANCH  34  36
HETATM   36  O4  UNL     1      23.864  26.755  18.505  1.00  0.00    -0.325 OA
HETATM   37  C22 UNL     1      24.566  26.531  17.267  1.00  0.00     0.213 C 
ENDBRANCH  34  36
ENDBRANCH  33  34
ENDBRANCH  31  33
ENDBRANCH  22  31
BRANCH  25  38
HETATM   38  N7  UNL     1      19.531  25.405  18.237  1.00  0.00    -0.368 N 
ATOM     39  H7  UNL     1      18.778  25.669  18.872  1.00  0.00     0.161 HD
BRANCH  38  40
HETATM   40  C24 UNL     1      19.423  26.047  16.998  1.00  0.00     0.106 C 
BRANCH  40  41
HETATM   41  C25 UNL     1      19.181  25.150  15.810  1.00  0.00     0.023 C 
HETATM   42  C26 UNL     1      17.744  25.168  15.352  1.00  0.00     0.007 C 
ENDBRANCH  40  41
BRANCH  40  43
HETATM   43  C27 UNL     1      20.688  26.831  16.625  1.00  0.00     0.189 C 
BRANCH  43  44
HETATM   44  O5  UNL     1      21.126  27.654  17.643  1.00  0.00    -0.399 OA
ATOM     45  H5  UNL     1      21.858  28.201  17.384  1.00  0.00     0.209 HD
ENDBRANCH  43  44
ENDBRANCH  40  43
ENDBRANCH  38  40
ENDBRANCH  25  38
ENDBRANCH   9  11
ENDBRANCH   5   7
ENDBRANCH   4   5
ENDBRANCH   3   4
TORSDOF 13
ENDMDL
MODEL 2
REMARK VINA RESULT: -7.767414843      1.245      1.697
REMARK  14 active torsions:
REMARK  status: ('A' for Active; 'I' for Inactive)
REMARK    1  A    between atoms: C3_3  and  C4_4 
REMARK    2  A    between atoms: C4_4  and  C5_5 
REMARK    3  A    between atoms: C5_5  and  N1_7 
REMARK       I    between atoms: N1_7  and  C8_9 
REMARK    4  A    between atoms: C8_9  and  C9_11 
REMARK    5  A    between atoms: C14_16  and  C15_17 
REMARK    6  A    between atoms: C18_26  and  N5_27 
REMARK    7  A    between atoms: N5_27  and  C20_29 
REMARK    8  A    between atoms: C20_29  and  C21_30 
REMARK    9  A    between atoms: C21_30  and  O4_32 
REMARK   10  A    between atoms: C23_36  and  N7_37 
REMARK   11  A    between atoms: N7_37  and  C24_39 
REMARK   12  A    between atoms: C24_39  and  C25_40 
REMARK   13  A    between atoms: C24_39  and  C27_42 
REMARK   14  A    between atoms: C27_42  and  O5_43 
ROOT
HETATM    1  C1  UNL     1      11.794  19.202  13.043  1.00  0.00     0.096 C 
HETATM    2  C2  UNL     1      12.787  19.806  13.416  1.00  0.00    -0.188 C 
HETATM    3  C3  UNL     1      13.994  20.518  13.843  1.00  0.00     0.081 C 
ENDROOT
BRANCH   3   4
HETATM    4  C4  UNL     1      14.079  20.638  15.323  1.00  0.00     0.036 C 
BRANCH   4   5
HETATM    5  C5  UNL     1      15.133  21.540  15.862  1.00  0.00     0.083 C 
HETATM    6  C6  UNL     1      15.944  22.019  14.638  1.00  0.00     0.032 C 
BRANCH   5   7
HETATM    7  N1  UNL     1      14.573  22.677  16.590  1.00  0.00    -0.348 N 
HETATM    8  C7  UNL     1      13.533  23.454  15.940  1.00  0.00     0.153 C 
HETATM    9  C8  UNL     1      15.026  23.093  17.871  1.00  0.00     0.254 C 
HETATM   10  O1  UNL     1      14.375  24.007  18.438  1.00  0.00    -0.267 OA
BRANCH   9  11
HETATM   11  C9  UNL     1      16.197  22.539  18.554  1.00  0.00     0.050 A 
HETATM   12  C10 UNL     1      17.375  23.317  18.466  1.00  0.00     0.033 A 
HETATM   13  C11 UNL     1      18.521  22.888  19.037  1.00  0.00     0.009 A 
HETATM   14  C12 UNL     1      18.520  21.684  19.701  1.00  0.00     0.046 A 
HETATM   15  C28 UNL     1      19.807  23.443  19.105  1.00  0.00     0.065 A 
HETATM   16  C13 UNL     1      17.346  20.919  19.786  1.00  0.00     0.049 A 
HETATM   17  N3  UNL     1      19.767  21.499  20.160  1.00  0.00    -0.340 N 
HETATM   18  C14 UNL     1      16.176  21.357  19.209  1.00  0.00     0.064 A 
HETATM   19  C17 UNL     1      20.552  22.535  19.815  1.00  0.00     0.136 A 
ATOM     20  H3  UNL     1      20.076  20.687  20.694  1.00  0.00     0.167 HD
HETATM   21  N4  UNL     1      21.864  22.849  20.034  1.00  0.00    -0.175 N 
HETATM   22  C18 UNL     1      22.397  23.990  19.582  1.00  0.00     0.683 A 
ATOM     23  H4  UNL     1      22.450  22.197  20.555  1.00  0.00     0.186 HD
HETATM   24  N6  UNL     1      21.625  24.872  18.885  1.00  0.00    -0.176 N 
HETATM   25  C23 UNL     1      20.344  24.654  18.624  1.00  0.00     0.132 A 
ATOM     26  H6  UNL     1      22.051  25.737  18.550  1.00  0.00     0.186 HD
BRANCH  18  27
HETATM   27  C15 UNL     1      14.926  20.532  19.360  1.00  0.00     0.321 C 
HETATM   28  O2  UNL     1      13.932  21.115  19.805  1.00  0.00    -0.251 OA
HETATM   29  N2  UNL     1      15.018  19.215  18.997  1.00  0.00    -0.416 NA
HETATM   30  C16 UNL     1      15.107  17.896  18.633  1.00  0.00     0.264 C 
ENDBRANCH  18  27
BRANCH  22  31
HETATM   31  N5  UNL     1      23.739  24.403  19.802  1.00  0.00    -0.213 N 
HETATM   32  C19 UNL     1      24.147  25.752  19.415  1.00  0.00     0.169 C 
BRANCH  31  33
HETATM   33  C20 UNL     1      24.723  23.528  20.407  1.00  0.00     0.251 C 
BRANCH  33  34
HETATM   34  C21 UNL     1      25.431  22.734  19.368  1.00  0.00     0.277 C 
HETATM   35  O3  UNL     1      26.510  23.189  18.924  1.00  0.00    -0.263 OA
BRANCH  34  36
HETATM   36  O4  UNL     1      24.924  21.535  18.896  1.00  0.00    -0.325 OA
HETATM   37  C22 UNL     1      25.847  20.526  18.446  1.00  0.00     0.213 C 
ENDBRANCH  34  36
ENDBRANCH  33  34
ENDBRANCH  31  33
ENDBRANCH  22  31
BRANCH  25  38
HETATM   38  N7  UNL     1      19.525  25.448  18.105  1.00  0.00    -0.368 N 
ATOM     39  H7  UNL     1      18.787  25.716  18.755  1.00  0.00     0.161 HD
BRANCH  38  40
HETATM   40  C24 UNL     1      19.371  26.058  16.854  1.00  0.00     0.106 C 
BRANCH  40  41
HETATM   41  C25 UNL     1      19.106  25.131  15.696  1.00  0.00     0.023 C 
HETATM   42  C26 UNL     1      19.342  25.790  14.359  1.00  0.00     0.007 C 
ENDBRANCH  40  41
BRANCH  40  43
HETATM   43  C27 UNL     1      20.615  26.850  16.425  1.00  0.00     0.189 C 
BRANCH  43  44
HETATM   44  O5  UNL     1      21.083  27.687  17.417  1.00  0.00    -0.399 OA
ATOM     45  H5  UNL     1      22.020  27.833  17.362  1.00  0.00     0.209 HD
ENDBRANCH  43  44
ENDBRANCH  40  43
ENDBRANCH  38  40
ENDBRANCH  25  38
ENDBRANCH   9  11
ENDBRANCH   5   7
ENDBRANCH   4   5
ENDBRANCH   3   4
TORSDOF 13
ENDMDL
MODEL 3
REMARK VINA RESULT: -7.748328005      0.991      1.395
REMARK  14 active torsions:
REMARK  status: ('A' for Active; 'I' for Inactive)
REMARK    1  A    between atoms: C3_3  and  C4_4 
REMARK    2  A    between atoms: C4_4  and  C5_5 
REMARK    3  A    between atoms: C5_5  and  N1_7 
REMARK       I    between atoms: N1_7  and  C8_9 
REMARK    4  A    between atoms: C8_9  and  C9_11 
REMARK    5  A    between atoms: C14_16  and  C15_17 
REMARK    6  A    between atoms: C18_26  and  N5_27 
REMARK    7  A    between atoms: N5_27  and  C20_29 
REMARK    8  A    between atoms: C20_29  and  C21_30 
REMARK    9  A    between atoms: C21_30  and  O4_32 
REMARK   10  A    between atoms: C23_36  and  N7_37 
REMARK   11  A    between atoms: N7_37  and  C24_39 
REMARK   12  A    between atoms: C24_39  and  C25_40 
REMARK   13  A    between atoms: C24_39  and  C27_42 
REMARK   14  A    between atoms: C27_42  and  O5_43 
ROOT
HETATM    1  C1  UNL     1      11.458  19.366  17.531  1.00  0.00     0.096 C 
HETATM    2  C2  UNL     1      12.149  19.869  16.661  1.00  0.00    -0.188 C 
HETATM    3  C3  UNL     1      12.961  20.465  15.597  1.00  0.00     0.081 C 
ENDROOT
BRANCH   3   4
HETATM    4  C4  UNL     1      14.418  20.350  15.874  1.00  0.00     0.036 C 
BRANCH   4   5
HETATM    5  C5  UNL     1      15.226  21.592  15.733  1.00  0.00     0.083 C 
HETATM    6  C6  UNL     1      15.288  21.884  14.217  1.00  0.00     0.032 C 
BRANCH   5   7
HETATM    7  N1  UNL     1      14.644  22.720  16.456  1.00  0.00    -0.348 N 
HETATM    8  C7  UNL     1      13.649  23.525  15.771  1.00  0.00     0.153 C 
HETATM    9  C8  UNL     1      15.036  23.103  17.767  1.00  0.00     0.254 C 
HETATM   10  O1  UNL     1      14.368  24.013  18.321  1.00  0.00    -0.267 OA
BRANCH   9  11
HETATM   11  C9  UNL     1      16.163  22.518  18.497  1.00  0.00     0.050 A 
HETATM   12  C10 UNL     1      17.355  23.280  18.482  1.00  0.00     0.033 A 
HETATM   13  C11 UNL     1      18.465  22.822  19.101  1.00  0.00     0.009 A 
HETATM   14  C12 UNL     1      18.413  21.607  19.742  1.00  0.00     0.046 A 
HETATM   15  C28 UNL     1      19.754  23.356  19.244  1.00  0.00     0.065 A 
HETATM   16  C13 UNL     1      17.225  20.859  19.753  1.00  0.00     0.049 A 
HETATM   17  N3  UNL     1      19.633  21.394  20.258  1.00  0.00    -0.340 N 
HETATM   18  C14 UNL     1      16.092  21.325  19.127  1.00  0.00     0.064 A 
HETATM   19  C17 UNL     1      20.449  22.423  19.972  1.00  0.00     0.136 A 
ATOM     20  H3  UNL     1      19.903  20.567  20.791  1.00  0.00     0.167 HD
HETATM   21  N4  UNL     1      21.753  22.713  20.262  1.00  0.00    -0.175 N 
HETATM   22  C18 UNL     1      22.325  23.854  19.859  1.00  0.00     0.683 A 
ATOM     23  H4  UNL     1      22.303  22.043  20.800  1.00  0.00     0.186 HD
HETATM   24  N6  UNL     1      21.601  24.761  19.141  1.00  0.00    -0.176 N 
HETATM   25  C23 UNL     1      20.332  24.567  18.813  1.00  0.00     0.132 A 
ATOM     26  H6  UNL     1      22.056  25.624  18.844  1.00  0.00     0.186 HD
BRANCH  18  27
HETATM   27  C15 UNL     1      14.825  20.516  19.200  1.00  0.00     0.321 C 
HETATM   28  O2  UNL     1      13.792  21.136  19.480  1.00  0.00    -0.251 OA
HETATM   29  N2  UNL     1      14.943  19.175  18.958  1.00  0.00    -0.416 NA
HETATM   30  C16 UNL     1      15.058  17.830  18.715  1.00  0.00     0.264 C 
ENDBRANCH  18  27
BRANCH  22  31
HETATM   31  N5  UNL     1      23.660  24.242  20.153  1.00  0.00    -0.213 N 
HETATM   32  C19 UNL     1      24.767  23.409  19.687  1.00  0.00     0.169 C 
BRANCH  31  33
HETATM   33  C20 UNL     1      23.964  25.446  20.900  1.00  0.00     0.251 C 
BRANCH  33  34
HETATM   34  C21 UNL     1      23.485  26.650  20.172  1.00  0.00     0.277 C 
HETATM   35  O3  UNL     1      23.919  26.840  19.013  1.00  0.00    -0.263 OA
BRANCH  34  36
HETATM   36  O4  UNL     1      22.592  27.540  20.745  1.00  0.00    -0.325 OA
HETATM   37  C22 UNL     1      21.738  27.073  21.806  1.00  0.00     0.213 C 
ENDBRANCH  34  36
ENDBRANCH  33  34
ENDBRANCH  31  33
ENDBRANCH  22  31
BRANCH  25  38
HETATM   38  N7  UNL     1      19.552  25.382  18.269  1.00  0.00    -0.368 N 
ATOM     39  H7  UNL     1      18.761  25.615  18.870  1.00  0.00     0.161 HD
BRANCH  38  40
HETATM   40  C24 UNL     1      19.495  26.054  17.042  1.00  0.00     0.106 C 
BRANCH  40  41
HETATM   41  C25 UNL     1      19.354  25.184  15.819  1.00  0.00     0.023 C 
HETATM   42  C26 UNL     1      17.917  24.997  15.400  1.00  0.00     0.007 C 
ENDBRANCH  40  41
BRANCH  40  43
HETATM   43  C27 UNL     1      20.753  26.889  16.765  1.00  0.00     0.189 C 
BRANCH  43  44
HETATM   44  O5  UNL     1      21.159  27.622  17.862  1.00  0.00    -0.399 OA
ATOM     45  H5  UNL     1      21.939  27.268  18.272  1.00  0.00     0.209 HD
ENDBRANCH  43  44
ENDBRANCH  40  43
ENDBRANCH  38  40
ENDBRANCH  25  38
ENDBRANCH   9  11
ENDBRANCH   5   7
ENDBRANCH   4   5
ENDBRANCH   3   4
TORSDOF 13
ENDMDL
MODEL 4
REMARK VINA RESULT: -7.709494654      2.164      9.539
REMARK  14 active torsions:
REMARK  status: ('A' for Active; 'I' for Inactive)
REMARK    1  A    between atoms: C3_3  and  C4_4 
REMARK    2  A    between atoms: C4_4  and  C5_5 
REMARK    3  A    between atoms: C5_5  and  N1_7 
REMARK       I    between atoms: N1_7  and  C8_9 
REMARK    4  A    between atoms: C8_9  and  C9_11 
REMARK    5  A    between atoms: C14_16  and  C15_17 
REMARK    6  A    between atoms: C18_26  and  N5_27 
REMARK    7  A    between atoms: N5_27  and  C20_29 
REMARK    8  A    between atoms: C20_29  and  C21_30 
REMARK    9  A    between atoms: C21_30  and  O4_32 
REMARK   10  A    between atoms: C23_36  and  N7_37 
REMARK   11  A    between atoms: N7_37  and  C24_39 
REMARK   12  A    between atoms: C24_39  and  C25_40 
REMARK   13  A    between atoms: C24_39  and  C27_42 
REMARK   14  A    between atoms: C27_42  and  O5_43 
ROOT
HETATM    1  C1  UNL     1      26.036  20.240  18.732  1.00  0.00     0.096 C 
HETATM    2  C2  UNL     1      26.180  21.451  18.759  1.00  0.00    -0.188 C 
HETATM    3  C3  UNL     1      26.380  22.902  18.786  1.00  0.00     0.081 C 
ENDROOT
BRANCH   3   4
HETATM    4  C4  UNL     1      25.590  23.556  19.863  1.00  0.00     0.036 C 
BRANCH   4   5
HETATM    5  C5  UNL     1      24.257  24.098  19.481  1.00  0.00     0.083 C 
HETATM    6  C6  UNL     1      23.229  23.028  19.910  1.00  0.00     0.032 C 
BRANCH   5   7
HETATM    7  N1  UNL     1      23.972  25.379  20.125  1.00  0.00    -0.348 N 
HETATM    8  C7  UNL     1      24.540  25.620  21.438  1.00  0.00     0.153 C 
HETATM    9  C8  UNL     1      23.130  26.374  19.561  1.00  0.00     0.254 C 
HETATM   10  O1  UNL     1      23.069  27.478  20.159  1.00  0.00    -0.267 OA
BRANCH   9  11
HETATM   11  C9  UNL     1      22.328  26.188  18.349  1.00  0.00     0.050 A 
HETATM   12  C10 UNL     1      21.108  25.496  18.530  1.00  0.00     0.033 A 
HETATM   13  C11 UNL     1      20.301  25.246  17.475  1.00  0.00     0.009 A 
HETATM   14  C12 UNL     1      20.691  25.675  16.228  1.00  0.00     0.046 A 
HETATM   15  C28 UNL     1      19.064  24.596  17.366  1.00  0.00     0.065 A 
HETATM   16  C13 UNL     1      21.902  26.364  16.058  1.00  0.00     0.049 A 
HETATM   17  N3  UNL     1      19.727  25.297  15.375  1.00  0.00    -0.340 N 
HETATM   18  C14 UNL     1      22.722  26.624  17.132  1.00  0.00     0.064 A 
HETATM   19  C17 UNL     1      18.747  24.651  16.032  1.00  0.00     0.136 A 
ATOM     20  H3  UNL     1      19.736  25.474  14.371  1.00  0.00     0.167 HD
HETATM   21  N4  UNL     1      17.561  24.086  15.655  1.00  0.00    -0.175 N 
HETATM   22  C18 UNL     1      16.743  23.511  16.545  1.00  0.00     0.683 A 
ATOM     23  H4  UNL     1      17.292  24.105  14.671  1.00  0.00     0.186 HD
HETATM   24  N6  UNL     1      17.089  23.480  17.865  1.00  0.00    -0.176 N 
HETATM   25  C23 UNL     1      18.218  24.002  18.323  1.00  0.00     0.132 A 
ATOM     26  H6  UNL     1      16.452  23.037  18.527  1.00  0.00     0.186 HD
BRANCH  18  27
HETATM   27  C15 UNL     1      23.991  27.404  16.918  1.00  0.00     0.321 C 
HETATM   28  O2  UNL     1      23.868  28.625  16.766  1.00  0.00    -0.251 OA
HETATM   29  N2  UNL     1      25.155  26.684  16.905  1.00  0.00    -0.416 NA
HETATM   30  C16 UNL     1      26.323  25.965  16.892  1.00  0.00     0.264 C 
ENDBRANCH  18  27
BRANCH  22  31
HETATM   31  N5  UNL     1      15.480  22.938  16.236  1.00  0.00    -0.213 N 
HETATM   32  C19 UNL     1      15.301  22.241  14.964  1.00  0.00     0.169 C 
BRANCH  31  33
HETATM   33  C20 UNL     1      14.357  23.016  17.148  1.00  0.00     0.251 C 
BRANCH  33  34
HETATM   34  C21 UNL     1      14.312  21.820  18.031  1.00  0.00     0.277 C 
HETATM   35  O3  UNL     1      14.842  21.913  19.162  1.00  0.00    -0.263 OA
BRANCH  34  36
HETATM   36  O4  UNL     1      13.711  20.640  17.628  1.00  0.00    -0.325 OA
HETATM   37  C22 UNL     1      13.119  19.791  18.629  1.00  0.00     0.213 C 
ENDBRANCH  34  36
ENDBRANCH  33  34
ENDBRANCH  31  33
ENDBRANCH  22  31
BRANCH  25  38
HETATM   38  N7  UNL     1      18.566  24.133  19.519  1.00  0.00    -0.368 N 
ATOM     39  H7  UNL     1      18.848  25.090  19.732  1.00  0.00     0.161 HD
BRANCH  38  40
HETATM   40  C24 UNL     1      18.666  23.295  20.636  1.00  0.00     0.106 C 
BRANCH  40  41
HETATM   41  C25 UNL     1      19.806  23.585  21.579  1.00  0.00     0.023 C 
HETATM   42  C26 UNL     1      20.437  22.331  22.130  1.00  0.00     0.007 C 
ENDBRANCH  40  41
BRANCH  40  43
HETATM   43  C27 UNL     1      18.861  21.821  20.254  1.00  0.00     0.189 C 
BRANCH  43  44
HETATM   44  O5  UNL     1      17.689  21.215  19.849  1.00  0.00    -0.399 OA
ATOM     45  H5  UNL     1      17.542  21.287  18.913  1.00  0.00     0.209 HD
ENDBRANCH  43  44
ENDBRANCH  40  43
ENDBRANCH  38  40
ENDBRANCH  25  38
ENDBRANCH   9  11
ENDBRANCH   5   7
ENDBRANCH   4   5
ENDBRANCH   3   4
TORSDOF 13
ENDMDL
MODEL 5
REMARK VINA RESULT: -7.687771762      2.194      9.389
REMARK  14 active torsions:
REMARK  status: ('A' for Active; 'I' for Inactive)
REMARK    1  A    between atoms: C3_3  and  C4_4 
REMARK    2  A    between atoms: C4_4  and  C5_5 
REMARK    3  A    between atoms: C5_5  and  N1_7 
REMARK       I    between atoms: N1_7  and  C8_9 
REMARK    4  A    between atoms: C8_9  and  C9_11 
REMARK    5  A    between atoms: C14_16  and  C15_17 
REMARK    6  A    between atoms: C18_26  and  N5_27 
REMARK    7  A    between atoms: N5_27  and  C20_29 
REMARK    8  A    between atoms: C20_29  and  C21_30 
REMARK    9  A    between atoms: C21_30  and  O4_32 
REMARK   10  A    between atoms: C23_36  and  N7_37 
REMARK   11  A    between atoms: N7_37  and  C24_39 
REMARK   12  A    between atoms: C24_39  and  C25_40 
REMARK   13  A    between atoms: C24_39  and  C27_42 
REMARK   14  A    between atoms: C27_42  and  O5_43 
ROOT
HETATM    1  C1  UNL     1      26.357  21.792  18.890  1.00  0.00     0.096 C 
HETATM    2  C2  UNL     1      25.658  22.579  19.507  1.00  0.00    -0.188 C 
HETATM    3  C3  UNL     1      24.805  23.501  20.260  1.00  0.00     0.081 C 
ENDROOT
BRANCH   3   4
HETATM    4  C4  UNL     1      24.423  24.693  19.456  1.00  0.00     0.036 C 
BRANCH   4   5
HETATM    5  C5  UNL     1      22.979  24.846  19.131  1.00  0.00     0.083 C 
HETATM    6  C6  UNL     1      22.279  23.604  19.728  1.00  0.00     0.032 C 
BRANCH   5   7
HETATM    7  N1  UNL     1      22.412  26.075  19.680  1.00  0.00    -0.348 N 
HETATM    8  C7  UNL     1      22.910  26.539  20.962  1.00  0.00     0.153 C 
HETATM    9  C8  UNL     1      21.367  26.809  19.057  1.00  0.00     0.254 C 
HETATM   10  O1  UNL     1      21.058  27.914  19.571  1.00  0.00    -0.267 OA
BRANCH   9  11
HETATM   11  C9  UNL     1      20.628  26.355  17.876  1.00  0.00     0.050 A 
HETATM   12  C10 UNL     1      19.520  25.516  18.140  1.00  0.00     0.033 A 
HETATM   13  C11 UNL     1      18.783  25.018  17.124  1.00  0.00     0.009 A 
HETATM   14  C12 UNL     1      19.132  25.340  15.833  1.00  0.00     0.046 A 
HETATM   15  C28 UNL     1      17.657  24.182  17.095  1.00  0.00     0.065 A 
HETATM   16  C13 UNL     1      20.232  26.175  15.580  1.00  0.00     0.049 A 
HETATM   17  N3  UNL     1      18.253  24.717  15.032  1.00  0.00    -0.340 N 
HETATM   18  C14 UNL     1      20.980  26.687  16.615  1.00  0.00     0.064 A 
HETATM   19  C17 UNL     1      17.366  24.020  15.764  1.00  0.00     0.136 A 
ATOM     20  H3  UNL     1      18.259  24.766  14.014  1.00  0.00     0.167 HD
HETATM   21  N4  UNL     1      16.284  23.242  15.459  1.00  0.00    -0.175 N 
HETATM   22  C18 UNL     1      15.542  22.668  16.412  1.00  0.00     0.683 A 
ATOM     23  H4  UNL     1      16.038  23.096  14.480  1.00  0.00     0.186 HD
HETATM   24  N6  UNL     1      15.858  22.855  17.726  1.00  0.00    -0.176 N 
HETATM   25  C23 UNL     1      16.887  23.593  18.117  1.00  0.00     0.132 A 
ATOM     26  H6  UNL     1      15.279  22.409  18.437  1.00  0.00     0.186 HD
BRANCH  18  27
HETATM   27  C15 UNL     1      22.125  27.615  16.307  1.00  0.00     0.321 C 
HETATM   28  O2  UNL     1      21.836  28.804  16.126  1.00  0.00    -0.251 OA
HETATM   29  N2  UNL     1      23.370  27.050  16.249  1.00  0.00    -0.416 NA
HETATM   30  C16 UNL     1      24.619  26.486  16.192  1.00  0.00     0.264 C 
ENDBRANCH  18  27
BRANCH  22  31
HETATM   31  N5  UNL     1      14.384  21.879  16.175  1.00  0.00    -0.213 N 
HETATM   32  C19 UNL     1      13.247  22.467  15.470  1.00  0.00     0.169 C 
BRANCH  31  33
HETATM   33  C20 UNL     1      14.293  20.499  16.607  1.00  0.00     0.251 C 
BRANCH  33  34
HETATM   34  C21 UNL     1      13.426  20.380  17.809  1.00  0.00     0.277 C 
HETATM   35  O3  UNL     1      12.346  19.756  17.687  1.00  0.00    -0.263 OA
BRANCH  34  36
HETATM   36  O4  UNL     1      13.786  20.935  19.024  1.00  0.00    -0.325 OA
HETATM   37  C22 UNL     1      14.633  20.175  19.906  1.00  0.00     0.213 C 
ENDBRANCH  34  36
ENDBRANCH  33  34
ENDBRANCH  31  33
ENDBRANCH  22  31
BRANCH  25  38
HETATM   38  N7  UNL     1      17.186  23.925  19.288  1.00  0.00    -0.368 N 
ATOM     39  H7  UNL     1      16.956  24.900  19.480  1.00  0.00     0.161 HD
BRANCH  38  40
HETATM   40  C24 UNL     1      17.758  23.292  20.398  1.00  0.00     0.106 C 
BRANCH  40  41
HETATM   41  C25 UNL     1      18.485  24.189  21.367  1.00  0.00     0.023 C 
HETATM   42  C26 UNL     1      19.782  23.591  21.851  1.00  0.00     0.007 C 
ENDBRANCH  40  41
BRANCH  40  43
HETATM   43  C27 UNL     1      18.803  22.238  20.005  1.00  0.00     0.189 C 
BRANCH  43  44
HETATM   44  O5  UNL     1      18.260  21.187  19.295  1.00  0.00    -0.399 OA
ATOM     45  H5  UNL     1      18.901  20.519  19.081  1.00  0.00     0.209 HD
ENDBRANCH  43  44
ENDBRANCH  40  43
ENDBRANCH  38  40
ENDBRANCH  25  38
ENDBRANCH   9  11
ENDBRANCH   5   7
ENDBRANCH   4   5
ENDBRANCH   3   4
TORSDOF 13
ENDMDL
