MODEL 1
REMARK VINA RESULT: -8.176884644      0.000      0.000
REMARK  8 active torsions:
REMARK  status: ('A' for Active; 'I' for Inactive)
REMARK    1  A    between atoms: N1_1  and  C1_4 
REMARK    2  A    between atoms: C3_8  and  S1_9 
REMARK    3  A    between atoms: S1_9  and  C4_10 
REMARK    4  A    between atoms: C4_10  and  C5_11 
REMARK       I    between atoms: C5_11  and  N3_13 
REMARK    5  A    between atoms: N3_13  and  C6_15 
REMARK    6  A    between atoms: C6_15  and  C7_16 
REMARK    7  A    between atoms: C6_15  and  C9_28 
REMARK    8  A    between atoms: C7_16  and  N4_17 
REMARK       I    between atoms: N4_17  and  C8_19 
REMARK       I    between atoms: C8_19  and  N5_20 
REMARK       I    between atoms: C8_19  and  N6_24 
ROOT
HETATM    1  C6  UNL     1      15.428  78.469  26.750  1.00  0.00     0.203 C 
ENDROOT
BRANCH   1   2
HETATM    2  N3  UNL     1      15.943  79.736  26.348  1.00  0.00    -0.344 N 
HETATM    3  C5  UNL     1      15.209  80.930  26.557  1.00  0.00     0.228 C 
HETATM    4  O1  UNL     1      14.087  80.867  27.116  1.00  0.00    -0.273 OA
ATOM      5  H3  UNL     1      16.858  79.784  25.900  1.00  0.00     0.163 HD
BRANCH   3   6
HETATM    6  C4  UNL     1      15.684  82.272  26.150  1.00  0.00     0.182 C 
BRANCH   6   7
HETATM    7  S1  UNL     1      16.282  82.173  24.437  1.00  0.00    -0.112 SA
BRANCH   7   8
HETATM    8  C3  UNL     1      17.169  83.692  24.019  1.00  0.00     0.060 A 
HETATM    9  C2  UNL     1      16.925  84.977  24.415  1.00  0.00     0.116 A 
HETATM   10  N2  UNL     1      17.720  85.914  23.990  1.00  0.00    -0.345 N 
HETATM   11  C1  UNL     1      18.733  85.582  23.192  1.00  0.00     0.143 A 
ATOM     12  H2  UNL     1      17.571  86.885  24.263  1.00  0.00     0.167 HD
HETATM   13  S2  UNL     1      18.561  83.890  23.031  1.00  0.00    -0.046 SA
BRANCH  11  14
HETATM   14  N1  UNL     1      19.647  86.366  22.658  1.00  0.00    -0.380 N 
ATOM     15  H12 UNL     1      19.846  87.344  22.871  1.00  0.00     0.158 HD
ATOM     16  H11 UNL     1      20.327  86.145  21.931  1.00  0.00     0.158 HD
ENDBRANCH  11  14
ENDBRANCH   7   8
ENDBRANCH   6   7
ENDBRANCH   3   6
ENDBRANCH   1   2
BRANCH   1  17
HETATM   17  C7  UNL     1      14.390  77.971  25.770  1.00  0.00     0.153 C 
BRANCH  17  18
HETATM   18  N4  UNL     1      13.186  77.738  26.508  1.00  0.00    -0.372 N 
HETATM   19  C8  UNL     1      11.972  78.112  25.834  1.00  0.00     0.476 C 
HETATM   20  N5  UNL     1      11.922  79.528  25.534  1.00  0.00    -0.033 N 
HETATM   21  N6  UNL     1      10.845  77.724  26.687  1.00  0.00    -0.033 N 
ATOM     22  H53 UNL     1      12.064  80.088  26.375  1.00  0.00     0.278 HD
ATOM     23  H52 UNL     1      12.743  79.821  25.004  1.00  0.00     0.278 HD
ATOM     24  H51 UNL     1      11.061  79.794  25.055  1.00  0.00     0.278 HD
ATOM     25  H63 UNL     1      10.867  76.737  26.945  1.00  0.00     0.278 HD
ATOM     26  H62 UNL     1      10.911  78.112  27.628  1.00  0.00     0.278 HD
ATOM     27  H61 UNL     1       9.984  77.989  26.208  1.00  0.00     0.278 HD
ATOM     28  H4  UNL     1      13.189  77.336  27.446  1.00  0.00     0.157 HD
ENDBRANCH  17  18
ENDBRANCH   1  17
BRANCH   1  29
HETATM   29  C9  UNL     1      16.442  77.471  27.106  1.00  0.00     0.198 C 
HETATM   30  O2  UNL     1      17.488  77.306  26.445  1.00  0.00    -0.646 OA
HETATM   31  O3  UNL     1      16.205  76.679  28.239  1.00  0.00    -0.646 OA
ENDBRANCH   1  29
TORSDOF 8
ENDMDL
MODEL 2
REMARK VINA RESULT: -8.151025867      1.980      2.444
REMARK  8 active torsions:
REMARK  status: ('A' for Active; 'I' for Inactive)
REMARK    1  A    between atoms: N1_1  and  C1_4 
REMARK    2  A    between atoms: C3_8  and  S1_9 
REMARK    3  A    between atoms: S1_9  and  C4_10 
REMARK    4  A    between atoms: C4_10  and  C5_11 
REMARK       I    between atoms: C5_11  and  N3_13 
REMARK    5  A    between atoms: N3_13  and  C6_15 
REMARK    6  A    between atoms: C6_15  and  C7_16 
REMARK    7  A    between atoms: C6_15  and  C9_28 
REMARK    8  A    between atoms: C7_16  and  N4_17 
REMARK       I    between atoms: N4_17  and  C8_19 
REMARK       I    between atoms: C8_19  and  N5_20 
REMARK       I    between atoms: C8_19  and  N6_24 
ROOT
HETATM    1  C6  UNL     1      15.285  79.205  25.715  1.00  0.00     0.203 C 
ENDROOT
BRANCH   1   2
HETATM    2  N3  UNL     1      15.777  80.489  25.338  1.00  0.00    -0.344 N 
HETATM    3  C5  UNL     1      14.900  81.582  25.131  1.00  0.00     0.228 C 
HETATM    4  O1  UNL     1      13.667  81.416  25.292  1.00  0.00    -0.273 OA
ATOM      5  H3  UNL     1      16.781  80.623  25.215  1.00  0.00     0.163 HD
BRANCH   3   6
HETATM    6  C4  UNL     1      15.349  82.934  24.726  1.00  0.00     0.182 C 
BRANCH   6   7
HETATM    7  S1  UNL     1      16.905  82.769  23.802  1.00  0.00    -0.112 SA
BRANCH   7   8
HETATM    8  C3  UNL     1      17.638  84.403  23.558  1.00  0.00     0.060 A 
HETATM    9  C2  UNL     1      17.368  85.581  24.198  1.00  0.00     0.116 A 
HETATM   10  N2  UNL     1      18.045  86.636  23.855  1.00  0.00    -0.345 N 
HETATM   11  C1  UNL     1      18.968  86.525  22.901  1.00  0.00     0.143 A 
ATOM     12  H2  UNL     1      17.873  87.534  24.308  1.00  0.00     0.167 HD
HETATM   13  S2  UNL     1      18.880  84.875  22.468  1.00  0.00    -0.046 SA
BRANCH  11  14
HETATM   14  N1  UNL     1      19.759  87.459  22.413  1.00  0.00    -0.380 N 
ATOM     15  H12 UNL     1      20.101  88.303  22.871  1.00  0.00     0.158 HD
ATOM     16  H11 UNL     1      20.176  87.515  21.484  1.00  0.00     0.158 HD
ENDBRANCH  11  14
ENDBRANCH   7   8
ENDBRANCH   6   7
ENDBRANCH   3   6
ENDBRANCH   1   2
BRANCH   1  17
HETATM   17  C7  UNL     1      15.162  78.298  24.512  1.00  0.00     0.153 C 
BRANCH  17  18
HETATM   18  N4  UNL     1      15.947  77.131  24.777  1.00  0.00    -0.372 N 
HETATM   19  C8  UNL     1      15.319  75.881  24.441  1.00  0.00     0.476 C 
HETATM   20  N5  UNL     1      14.103  75.655  25.195  1.00  0.00    -0.033 N 
HETATM   21  N6  UNL     1      16.289  74.811  24.690  1.00  0.00    -0.033 N 
ATOM     22  H53 UNL     1      14.274  75.724  26.198  1.00  0.00     0.278 HD
ATOM     23  H52 UNL     1      13.454  76.434  25.086  1.00  0.00     0.278 HD
ATOM     24  H51 UNL     1      13.658  74.769  24.956  1.00  0.00     0.278 HD
ATOM     25  H63 UNL     1      17.172  74.955  24.199  1.00  0.00     0.278 HD
ATOM     26  H62 UNL     1      16.659  74.825  25.640  1.00  0.00     0.278 HD
ATOM     27  H61 UNL     1      15.844  73.924  24.451  1.00  0.00     0.278 HD
ATOM     28  H4  UNL     1      16.884  77.183  25.177  1.00  0.00     0.157 HD
ENDBRANCH  17  18
ENDBRANCH   1  17
BRANCH   1  29
HETATM   29  C9  UNL     1      15.965  78.591  26.860  1.00  0.00     0.198 C 
HETATM   30  O2  UNL     1      17.140  78.869  27.176  1.00  0.00    -0.646 OA
HETATM   31  O3  UNL     1      15.246  77.653  27.616  1.00  0.00    -0.646 OA
ENDBRANCH   1  29
TORSDOF 8
ENDMDL
MODEL 3
REMARK VINA RESULT: -8.133699823      1.153      1.246
REMARK  8 active torsions:
REMARK  status: ('A' for Active; 'I' for Inactive)
REMARK    1  A    between atoms: N1_1  and  C1_4 
REMARK    2  A    between atoms: C3_8  and  S1_9 
REMARK    3  A    between atoms: S1_9  and  C4_10 
REMARK    4  A    between atoms: C4_10  and  C5_11 
REMARK       I    between atoms: C5_11  and  N3_13 
REMARK    5  A    between atoms: N3_13  and  C6_15 
REMARK    6  A    between atoms: C6_15  and  C7_16 
REMARK    7  A    between atoms: C6_15  and  C9_28 
REMARK    8  A    between atoms: C7_16  and  N4_17 
REMARK       I    between atoms: N4_17  and  C8_19 
REMARK       I    between atoms: C8_19  and  N5_20 
REMARK       I    between atoms: C8_19  and  N6_24 
ROOT
HETATM    1  C6  UNL     1      15.422  78.360  26.203  1.00  0.00     0.203 C 
ENDROOT
BRANCH   1   2
HETATM    2  N3  UNL     1      15.963  79.255  25.233  1.00  0.00    -0.344 N 
HETATM    3  C5  UNL     1      15.341  80.496  24.949  1.00  0.00     0.228 C 
HETATM    4  O1  UNL     1      14.298  80.813  25.570  1.00  0.00    -0.273 OA
ATOM      5  H3  UNL     1      16.814  78.997  24.735  1.00  0.00     0.163 HD
BRANCH   3   6
HETATM    6  C4  UNL     1      15.847  81.460  23.946  1.00  0.00     0.182 C 
BRANCH   6   7
HETATM    7  S1  UNL     1      15.837  83.119  24.689  1.00  0.00    -0.112 SA
BRANCH   7   8
HETATM    8  C3  UNL     1      17.182  84.103  23.989  1.00  0.00     0.060 A 
HETATM    9  C2  UNL     1      18.238  83.705  23.217  1.00  0.00     0.116 A 
HETATM   10  N2  UNL     1      19.080  84.609  22.813  1.00  0.00    -0.345 N 
HETATM   11  C1  UNL     1      18.878  85.877  23.167  1.00  0.00     0.143 A 
ATOM     12  H2  UNL     1      19.881  84.353  22.237  1.00  0.00     0.167 HD
HETATM   13  S2  UNL     1      17.452  85.796  24.103  1.00  0.00    -0.046 SA
BRANCH  11  14
HETATM   14  N1  UNL     1      19.600  86.938  22.866  1.00  0.00    -0.380 N 
ATOM     15  H12 UNL     1      19.314  87.774  22.358  1.00  0.00     0.158 HD
ATOM     16  H11 UNL     1      20.580  87.120  23.082  1.00  0.00     0.158 HD
ENDBRANCH  11  14
ENDBRANCH   7   8
ENDBRANCH   6   7
ENDBRANCH   3   6
ENDBRANCH   1   2
BRANCH   1  17
HETATM   17  C7  UNL     1      14.279  77.558  25.621  1.00  0.00     0.153 C 
BRANCH  17  18
HETATM   18  N4  UNL     1      13.153  77.732  26.487  1.00  0.00    -0.372 N 
HETATM   19  C8  UNL     1      11.894  77.937  25.821  1.00  0.00     0.476 C 
HETATM   20  N5  UNL     1      11.890  79.135  25.008  1.00  0.00    -0.033 N 
HETATM   21  N6  UNL     1      10.850  78.003  26.847  1.00  0.00    -0.033 N 
ATOM     22  H53 UNL     1      12.154  79.954  25.557  1.00  0.00     0.278 HD
ATOM     23  H52 UNL     1      12.662  79.130  24.342  1.00  0.00     0.278 HD
ATOM     24  H51 UNL     1      10.997  79.280  24.536  1.00  0.00     0.278 HD
ATOM     25  H63 UNL     1      10.846  77.187  27.460  1.00  0.00     0.278 HD
ATOM     26  H62 UNL     1      11.040  78.707  27.560  1.00  0.00     0.278 HD
ATOM     27  H61 UNL     1       9.957  78.148  26.375  1.00  0.00     0.278 HD
ATOM     28  H4  UNL     1      13.238  77.712  27.503  1.00  0.00     0.157 HD
ENDBRANCH  17  18
ENDBRANCH   1  17
BRANCH   1  29
HETATM   29  C9  UNL     1      16.411  77.553  26.924  1.00  0.00     0.198 C 
HETATM   30  O2  UNL     1      17.595  77.440  26.546  1.00  0.00    -0.646 OA
HETATM   31  O3  UNL     1      15.987  76.890  28.085  1.00  0.00    -0.646 OA
ENDBRANCH   1  29
TORSDOF 8
ENDMDL
MODEL 4
REMARK VINA RESULT: -7.966447467      1.077      1.121
REMARK  8 active torsions:
REMARK  status: ('A' for Active; 'I' for Inactive)
REMARK    1  A    between atoms: N1_1  and  C1_4 
REMARK    2  A    between atoms: C3_8  and  S1_9 
REMARK    3  A    between atoms: S1_9  and  C4_10 
REMARK    4  A    between atoms: C4_10  and  C5_11 
REMARK       I    between atoms: C5_11  and  N3_13 
REMARK    5  A    between atoms: N3_13  and  C6_15 
REMARK    6  A    between atoms: C6_15  and  C7_16 
REMARK    7  A    between atoms: C6_15  and  C9_28 
REMARK    8  A    between atoms: C7_16  and  N4_17 
REMARK       I    between atoms: N4_17  and  C8_19 
REMARK       I    between atoms: C8_19  and  N5_20 
REMARK       I    between atoms: C8_19  and  N6_24 
ROOT
HETATM    1  C6  UNL     1      15.539  78.558  26.599  1.00  0.00     0.203 C 
ENDROOT
BRANCH   1   2
HETATM    2  N3  UNL     1      16.008  79.354  25.513  1.00  0.00    -0.344 N 
HETATM    3  C5  UNL     1      15.894  80.765  25.531  1.00  0.00     0.228 C 
HETATM    4  O1  UNL     1      15.376  81.324  26.528  1.00  0.00    -0.273 OA
ATOM      5  H3  UNL     1      16.435  78.897  24.707  1.00  0.00     0.163 HD
BRANCH   3   6
HETATM    6  C4  UNL     1      16.350  81.644  24.430  1.00  0.00     0.182 C 
BRANCH   6   7
HETATM    7  S1  UNL     1      15.799  83.339  24.783  1.00  0.00    -0.112 SA
BRANCH   7   8
HETATM    8  C3  UNL     1      17.033  84.514  24.178  1.00  0.00     0.060 A 
HETATM    9  C2  UNL     1      17.166  85.848  24.444  1.00  0.00     0.116 A 
HETATM   10  N2  UNL     1      18.155  86.489  23.897  1.00  0.00    -0.345 N 
HETATM   11  C1  UNL     1      18.993  85.821  23.105  1.00  0.00     0.143 A 
ATOM     12  H2  UNL     1      18.288  87.485  24.070  1.00  0.00     0.167 HD
HETATM   13  S2  UNL     1      18.365  84.233  23.130  1.00  0.00    -0.046 SA
BRANCH  11  14
HETATM   14  N1  UNL     1      20.050  86.274  22.462  1.00  0.00    -0.380 N 
ATOM     15  H12 UNL     1      20.788  86.887  22.809  1.00  0.00     0.158 HD
ATOM     16  H11 UNL     1      20.329  86.099  21.497  1.00  0.00     0.158 HD
ENDBRANCH  11  14
ENDBRANCH   7   8
ENDBRANCH   6   7
ENDBRANCH   3   6
ENDBRANCH   1   2
BRANCH   1  17
HETATM   17  C7  UNL     1      14.143  78.042  26.329  1.00  0.00     0.153 C 
BRANCH  17  18
HETATM   18  N4  UNL     1      13.233  79.108  26.616  1.00  0.00    -0.372 N 
HETATM   19  C8  UNL     1      12.122  79.226  25.709  1.00  0.00     0.476 C 
HETATM   20  N5  UNL     1      12.546  79.493  24.350  1.00  0.00    -0.033 N 
HETATM   21  N6  UNL     1      11.252  80.298  26.201  1.00  0.00    -0.033 N 
ATOM     22  H53 UNL     1      13.146  80.318  24.308  1.00  0.00     0.278 HD
ATOM     23  H52 UNL     1      13.212  78.791  24.028  1.00  0.00     0.278 HD
ATOM     24  H51 UNL     1      11.758  79.577  23.707  1.00  0.00     0.278 HD
ATOM     25  H63 UNL     1      10.960  80.157  27.168  1.00  0.00     0.278 HD
ATOM     26  H62 UNL     1      11.749  81.179  26.335  1.00  0.00     0.278 HD
ATOM     27  H61 UNL     1      10.465  80.381  25.558  1.00  0.00     0.278 HD
ATOM     28  H4  UNL     1      13.362  79.739  27.406  1.00  0.00     0.157 HD
ENDBRANCH  17  18
ENDBRANCH   1  17
BRANCH   1  29
HETATM   29  C9  UNL     1      16.475  77.531  27.067  1.00  0.00     0.198 C 
HETATM   30  O2  UNL     1      17.547  77.277  26.480  1.00  0.00    -0.646 OA
HETATM   31  O3  UNL     1      16.131  76.817  28.225  1.00  0.00    -0.646 OA
ENDBRANCH   1  29
TORSDOF 8
ENDMDL
MODEL 5
REMARK VINA RESULT: -7.782154321      2.385      3.258
REMARK  8 active torsions:
REMARK  status: ('A' for Active; 'I' for Inactive)
REMARK    1  A    between atoms: N1_1  and  C1_4 
REMARK    2  A    between atoms: C3_8  and  S1_9 
REMARK    3  A    between atoms: S1_9  and  C4_10 
REMARK    4  A    between atoms: C4_10  and  C5_11 
REMARK       I    between atoms: C5_11  and  N3_13 
REMARK    5  A    between atoms: N3_13  and  C6_15 
REMARK    6  A    between atoms: C6_15  and  C7_16 
REMARK    7  A    between atoms: C6_15  and  C9_28 
REMARK    8  A    between atoms: C7_16  and  N4_17 
REMARK       I    between atoms: N4_17  and  C8_19 
REMARK       I    between atoms: C8_19  and  N5_20 
REMARK       I    between atoms: C8_19  and  N6_24 
ROOT
HETATM    1  C6  UNL     1      12.912  79.616  25.690  1.00  0.00     0.203 C 
ENDROOT
BRANCH   1   2
HETATM    2  N3  UNL     1      13.445  80.938  25.649  1.00  0.00    -0.344 N 
HETATM    3  C5  UNL     1      14.408  81.313  24.680  1.00  0.00     0.228 C 
HETATM    4  O1  UNL     1      14.791  80.465  23.838  1.00  0.00    -0.273 OA
ATOM      5  H3  UNL     1      13.127  81.626  26.331  1.00  0.00     0.163 HD
BRANCH   3   6
HETATM    6  C4  UNL     1      15.008  82.664  24.594  1.00  0.00     0.182 C 
BRANCH   6   7
HETATM    7  S1  UNL     1      16.730  82.493  24.039  1.00  0.00    -0.112 SA
BRANCH   7   8
HETATM    8  C3  UNL     1      17.441  84.132  23.763  1.00  0.00     0.060 A 
HETATM    9  C2  UNL     1      17.113  85.329  24.336  1.00  0.00     0.116 A 
HETATM   10  N2  UNL     1      17.785  86.384  23.984  1.00  0.00    -0.345 N 
HETATM   11  C1  UNL     1      18.759  86.254  23.085  1.00  0.00     0.143 A 
ATOM     12  H2  UNL     1      17.571  87.296  24.388  1.00  0.00     0.167 HD
HETATM   13  S2  UNL     1      18.728  84.586  22.719  1.00  0.00    -0.046 SA
BRANCH  11  14
HETATM   14  N1  UNL     1      19.555  87.184  22.597  1.00  0.00    -0.380 N 
ATOM     15  H12 UNL     1      19.758  87.396  21.620  1.00  0.00     0.158 HD
ATOM     16  H11 UNL     1      20.119  87.866  23.104  1.00  0.00     0.158 HD
ENDBRANCH  11  14
ENDBRANCH   7   8
ENDBRANCH   6   7
ENDBRANCH   3   6
ENDBRANCH   1   2
BRANCH   1  17
HETATM   17  C7  UNL     1      13.816  78.692  26.476  1.00  0.00     0.153 C 
BRANCH  17  18
HETATM   18  N4  UNL     1      13.721  77.395  25.878  1.00  0.00    -0.372 N 
HETATM   19  C8  UNL     1      14.970  76.828  25.443  1.00  0.00     0.476 C 
HETATM   20  N5  UNL     1      15.613  77.631  24.423  1.00  0.00    -0.033 N 
HETATM   21  N6  UNL     1      14.700  75.476  24.946  1.00  0.00    -0.033 N 
ATOM     22  H53 UNL     1      14.987  77.793  23.634  1.00  0.00     0.278 HD
ATOM     23  H52 UNL     1      15.734  78.594  24.735  1.00  0.00     0.278 HD
ATOM     24  H51 UNL     1      16.498  77.229  24.115  1.00  0.00     0.278 HD
ATOM     25  H63 UNL     1      14.217  74.893  25.629  1.00  0.00     0.278 HD
ATOM     26  H62 UNL     1      13.983  75.458  24.220  1.00  0.00     0.278 HD
ATOM     27  H61 UNL     1      15.586  75.074  24.638  1.00  0.00     0.278 HD
ATOM     28  H4  UNL     1      12.832  76.908  25.768  1.00  0.00     0.157 HD
ENDBRANCH  17  18
ENDBRANCH   1  17
BRANCH   1  29
HETATM   29  C9  UNL     1      11.497  79.528  26.065  1.00  0.00     0.198 C 
HETATM   30  O2  UNL     1      10.775  80.535  26.218  1.00  0.00    -0.646 OA
HETATM   31  O3  UNL     1      10.953  78.249  26.253  1.00  0.00    -0.646 OA
ENDBRANCH   1  29
TORSDOF 8
ENDMDL
