MODEL 1
REMARK VINA RESULT: -7.736908735      0.000      0.000
REMARK  11 active torsions:
REMARK  status: ('A' for Active; 'I' for Inactive)
REMARK    1  A    between atoms: N1_1  and  C1_4 
REMARK    2  A    between atoms: C1_4  and  C2_6 
REMARK    3  A    between atoms: C2_6  and  N3_7 
REMARK    4  A    between atoms: N3_7  and  C3_9 
REMARK    5  A    between atoms: C3_9  and  C4_10 
REMARK    6  A    between atoms: C4_10  and  O1_11 
REMARK    7  A    between atoms: O1_11  and  N4_12 
REMARK    8  A    between atoms: N4_12  and  C5_14 
REMARK    9  A    between atoms: C5_14  and  C6_15 
REMARK   10  A    between atoms: C5_14  and  C7_18 
REMARK   11  A    between atoms: C12_29  and  N9_30 
ROOT
HETATM    1  C5  UNL     1      14.581  79.555  26.086  1.00  0.00     0.231 C 
ENDROOT
BRANCH   1   2
HETATM    2  N4  UNL     1      13.464  79.301  26.821  1.00  0.00    -0.284 N 
ATOM      3  H4  UNL     1      13.496  78.723  27.661  1.00  0.00     0.189 HD
BRANCH   2   4
HETATM    4  O1  UNL     1      12.320  79.850  26.385  1.00  0.00    -0.282 OA
BRANCH   4   5
HETATM    5  C4  UNL     1      11.758  79.110  25.282  1.00  0.00     0.220 C 
BRANCH   5   6
HETATM    6  C3  UNL     1      11.519  77.756  25.983  1.00  0.00     0.148 C 
BRANCH   6   7
HETATM    7  N3  UNL     1      11.792  76.593  25.241  1.00  0.00    -0.394 N 
ATOM      8  H3  UNL     1      11.385  75.676  25.426  1.00  0.00     0.159 HD
BRANCH   7   9
HETATM    9  C2  UNL     1      12.720  76.876  24.189  1.00  0.00     0.128 C 
BRANCH   9  10
HETATM   10  C1  UNL     1      14.095  76.512  24.304  1.00  0.00     0.125 C 
HETATM   11  N2  UNL     1      15.191  76.987  23.575  1.00  0.00    -0.082 NA
BRANCH  10  12
HETATM   12  N1  UNL     1      14.397  75.505  25.125  1.00  0.00    -0.387 N 
ATOM     13  H12 UNL     1      14.511  75.724  26.114  1.00  0.00     0.157 HD
ATOM     14  H11 UNL     1      14.395  74.593  24.668  1.00  0.00     0.157 HD
ENDBRANCH  10  12
ENDBRANCH   9  10
ENDBRANCH   7   9
ENDBRANCH   6   7
ENDBRANCH   5   6
ENDBRANCH   4   5
ENDBRANCH   2   4
ENDBRANCH   1   2
BRANCH   1  15
HETATM   15  C6  UNL     1      15.697  78.849  26.878  1.00  0.00     0.260 C 
HETATM   16  N5  UNL     1      15.309  77.692  27.573  1.00  0.00    -0.060 NA
HETATM   17  O2  UNL     1      16.812  79.321  26.848  1.00  0.00    -0.274 OA
ENDBRANCH   1  15
BRANCH   1  18
HETATM   18  C7  UNL     1      15.065  80.882  25.783  1.00  0.00     0.019 A 
HETATM   19  C8  UNL     1      15.199  81.879  26.700  1.00  0.00     0.102 A 
HETATM   20  N6  UNL     1      15.853  83.009  26.451  1.00  0.00    -0.350 N 
HETATM   21  C9  UNL     1      16.430  83.230  25.251  1.00  0.00     0.135 A 
ATOM     22  H6  UNL     1      15.921  83.720  27.179  1.00  0.00     0.166 HD
HETATM   23  N7  UNL     1      17.161  84.250  24.747  1.00  0.00    -0.337 N 
HETATM   24  C11 UNL     1      16.338  82.265  24.254  1.00  0.00     0.104 A 
HETATM   25  C10 UNL     1      17.494  83.943  23.500  1.00  0.00     0.182 A 
ATOM     26  H7  UNL     1      17.412  85.106  25.239  1.00  0.00     0.168 HD
HETATM   27  N8  UNL     1      16.984  82.762  23.229  1.00  0.00    -0.347 N 
ATOM     28  H8  UNL     1      17.080  82.289  22.329  1.00  0.00     0.167 HD
HETATM   29  C12 UNL     1      15.637  81.089  24.552  1.00  0.00     0.067 A 
BRANCH  29  30
HETATM   30  N9  UNL     1      15.459  80.230  23.585  1.00  0.00    -0.397 N 
ATOM     31  H92 UNL     1      14.554  79.766  23.527  1.00  0.00     0.156 HD
ATOM     32  H91 UNL     1      16.228  79.984  22.962  1.00  0.00     0.156 HD
ENDBRANCH  29  30
ENDBRANCH   1  18
TORSDOF 11
ENDMDL
MODEL 2
REMARK VINA RESULT: -7.732747057      1.940      4.042
REMARK  11 active torsions:
REMARK  status: ('A' for Active; 'I' for Inactive)
REMARK    1  A    between atoms: N1_1  and  C1_4 
REMARK    2  A    between atoms: C1_4  and  C2_6 
REMARK    3  A    between atoms: C2_6  and  N3_7 
REMARK    4  A    between atoms: N3_7  and  C3_9 
REMARK    5  A    between atoms: C3_9  and  C4_10 
REMARK    6  A    between atoms: C4_10  and  O1_11 
REMARK    7  A    between atoms: O1_11  and  N4_12 
REMARK    8  A    between atoms: N4_12  and  C5_14 
REMARK    9  A    between atoms: C5_14  and  C6_15 
REMARK   10  A    between atoms: C5_14  and  C7_18 
REMARK   11  A    between atoms: C12_29  and  N9_30 
ROOT
HETATM    1  C5  UNL     1      15.933  82.006  25.223  1.00  0.00     0.231 C 
ENDROOT
BRANCH   1   2
HETATM    2  N4  UNL     1      16.190  80.680  25.394  1.00  0.00    -0.284 N 
ATOM      3  H4  UNL     1      16.705  80.140  24.698  1.00  0.00     0.189 HD
BRANCH   2   4
HETATM    4  O1  UNL     1      15.732  80.120  26.525  1.00  0.00    -0.282 OA
BRANCH   4   5
HETATM    5  C4  UNL     1      16.115  78.734  26.629  1.00  0.00     0.220 C 
BRANCH   5   6
HETATM    6  C3  UNL     1      14.859  78.081  26.013  1.00  0.00     0.148 C 
BRANCH   6   7
HETATM    7  N3  UNL     1      13.664  78.169  26.750  1.00  0.00    -0.394 N 
ATOM      8  H3  UNL     1      13.585  78.001  27.753  1.00  0.00     0.159 HD
BRANCH   7   9
HETATM    9  C2  UNL     1      12.573  78.527  25.895  1.00  0.00     0.128 C 
BRANCH   9  10
HETATM   10  C1  UNL     1      11.852  79.742  26.094  1.00  0.00     0.125 C 
HETATM   11  N2  UNL     1      10.504  80.014  25.833  1.00  0.00    -0.082 NA
BRANCH  10  12
HETATM   12  N1  UNL     1      12.549  80.816  26.467  1.00  0.00    -0.387 N 
ATOM     13  H12 UNL     1      13.531  80.678  26.709  1.00  0.00     0.157 HD
ATOM     14  H11 UNL     1      12.029  81.689  26.382  1.00  0.00     0.157 HD
ENDBRANCH  10  12
ENDBRANCH   9  10
ENDBRANCH   7   9
ENDBRANCH   6   7
ENDBRANCH   5   6
ENDBRANCH   4   5
ENDBRANCH   2   4
ENDBRANCH   1   2
BRANCH   1  15
HETATM   15  C6  UNL     1      14.614  82.014  24.430  1.00  0.00     0.260 C 
HETATM   16  N5  UNL     1      14.321  80.833  23.727  1.00  0.00    -0.060 NA
HETATM   17  O2  UNL     1      13.926  83.010  24.466  1.00  0.00    -0.274 OA
ENDBRANCH   1  15
BRANCH   1  18
HETATM   18  C7  UNL     1      16.825  82.923  24.551  1.00  0.00     0.019 A 
HETATM   19  C8  UNL     1      17.484  82.643  23.394  1.00  0.00     0.102 A 
HETATM   20  N6  UNL     1      18.114  83.569  22.677  1.00  0.00    -0.350 N 
HETATM   21  C9  UNL     1      18.132  84.861  23.070  1.00  0.00     0.135 A 
ATOM     22  H6  UNL     1      18.590  83.300  21.816  1.00  0.00     0.166 HD
HETATM   23  N7  UNL     1      18.658  85.986  22.535  1.00  0.00    -0.337 N 
HETATM   24  C11 UNL     1      17.486  85.233  24.244  1.00  0.00     0.104 A 
HETATM   25  C10 UNL     1      18.368  87.001  23.338  1.00  0.00     0.182 A 
ATOM     26  H7  UNL     1      19.186  86.044  21.665  1.00  0.00     0.168 HD
HETATM   27  N8  UNL     1      17.679  86.524  24.352  1.00  0.00    -0.347 N 
ATOM     28  H8  UNL     1      17.336  87.091  25.128  1.00  0.00     0.167 HD
HETATM   29  C12 UNL     1      16.837  84.229  24.975  1.00  0.00     0.067 A 
BRANCH  29  30
HETATM   30  N9  UNL     1      16.324  84.558  26.128  1.00  0.00    -0.397 N 
ATOM     31  H92 UNL     1      16.021  83.802  26.742  1.00  0.00     0.156 HD
ATOM     32  H91 UNL     1      16.166  85.536  26.366  1.00  0.00     0.156 HD
ENDBRANCH  29  30
ENDBRANCH   1  18
TORSDOF 11
ENDMDL
MODEL 3
REMARK VINA RESULT: -7.653165649      1.616      6.641
REMARK  11 active torsions:
REMARK  status: ('A' for Active; 'I' for Inactive)
REMARK    1  A    between atoms: N1_1  and  C1_4 
REMARK    2  A    between atoms: C1_4  and  C2_6 
REMARK    3  A    between atoms: C2_6  and  N3_7 
REMARK    4  A    between atoms: N3_7  and  C3_9 
REMARK    5  A    between atoms: C3_9  and  C4_10 
REMARK    6  A    between atoms: C4_10  and  O1_11 
REMARK    7  A    between atoms: O1_11  and  N4_12 
REMARK    8  A    between atoms: N4_12  and  C5_14 
REMARK    9  A    between atoms: C5_14  and  C6_15 
REMARK   10  A    between atoms: C5_14  and  C7_18 
REMARK   11  A    between atoms: C12_29  and  N9_30 
ROOT
HETATM    1  C5  UNL     1      15.621  78.542  26.525  1.00  0.00     0.231 C 
ENDROOT
BRANCH   1   2
HETATM    2  N4  UNL     1      16.499  79.455  26.028  1.00  0.00    -0.284 N 
ATOM      3  H4  UNL     1      17.143  79.223  25.272  1.00  0.00     0.189 HD
BRANCH   2   4
HETATM    4  O1  UNL     1      16.473  80.677  26.583  1.00  0.00    -0.282 OA
BRANCH   4   5
HETATM    5  C4  UNL     1      15.458  81.513  25.992  1.00  0.00     0.220 C 
BRANCH   5   6
HETATM    6  C3  UNL     1      16.076  81.705  24.591  1.00  0.00     0.148 C 
BRANCH   6   7
HETATM    7  N3  UNL     1      17.268  82.449  24.513  1.00  0.00    -0.394 N 
ATOM      8  H3  UNL     1      18.181  82.119  24.826  1.00  0.00     0.159 HD
BRANCH   7   9
HETATM    9  C2  UNL     1      17.021  83.733  23.933  1.00  0.00     0.128 C 
BRANCH   9  10
HETATM   10  C1  UNL     1      18.079  84.495  23.354  1.00  0.00     0.125 C 
HETATM   11  N2  UNL     1      18.400  85.843  23.554  1.00  0.00    -0.082 NA
BRANCH  10  12
HETATM   12  N1  UNL     1      18.811  83.909  22.406  1.00  0.00    -0.387 N 
ATOM     13  H12 UNL     1      19.811  84.107  22.394  1.00  0.00     0.157 HD
ATOM     14  H11 UNL     1      18.284  83.243  21.839  1.00  0.00     0.157 HD
ENDBRANCH  10  12
ENDBRANCH   9  10
ENDBRANCH   7   9
ENDBRANCH   6   7
ENDBRANCH   5   6
ENDBRANCH   4   5
ENDBRANCH   2   4
ENDBRANCH   1   2
BRANCH   1  15
HETATM   15  C6  UNL     1      16.535  77.438  27.089  1.00  0.00     0.260 C 
HETATM   16  N5  UNL     1      16.053  76.776  28.230  1.00  0.00    -0.060 NA
HETATM   17  O2  UNL     1      17.582  77.213  26.523  1.00  0.00    -0.274 OA
ENDBRANCH   1  15
BRANCH   1  18
HETATM   18  C7  UNL     1      14.610  77.877  25.734  1.00  0.00     0.019 A 
HETATM   19  C8  UNL     1      14.863  76.867  24.858  1.00  0.00     0.102 A 
HETATM   20  N6  UNL     1      13.904  76.122  24.315  1.00  0.00    -0.350 N 
HETATM   21  C9  UNL     1      12.604  76.336  24.612  1.00  0.00     0.135 A 
ATOM     22  H6  UNL     1      14.155  75.378  23.665  1.00  0.00     0.166 HD
HETATM   23  N7  UNL     1      11.456  75.730  24.237  1.00  0.00    -0.337 N 
HETATM   24  C11 UNL     1      12.257  77.353  25.495  1.00  0.00     0.104 A 
HETATM   25  C10 UNL     1      10.447  76.342  24.843  1.00  0.00     0.182 A 
ATOM     26  H7  UNL     1      11.378  74.938  23.599  1.00  0.00     0.168 HD
HETATM   27  N8  UNL     1      10.951  77.310  25.578  1.00  0.00    -0.347 N 
ATOM     28  H8  UNL     1      10.392  77.949  26.144  1.00  0.00     0.167 HD
HETATM   29  C12 UNL     1      13.295  78.119  26.044  1.00  0.00     0.067 A 
BRANCH  29  30
HETATM   30  N9  UNL     1      12.964  79.138  26.788  1.00  0.00    -0.397 N 
ATOM     31  H92 UNL     1      13.464  79.262  27.668  1.00  0.00     0.156 HD
ATOM     32  H91 UNL     1      12.182  79.738  26.528  1.00  0.00     0.156 HD
ENDBRANCH  29  30
ENDBRANCH   1  18
TORSDOF 11
ENDMDL
MODEL 4
REMARK VINA RESULT: -7.559658947      2.676      4.041
REMARK  11 active torsions:
REMARK  status: ('A' for Active; 'I' for Inactive)
REMARK    1  A    between atoms: N1_1  and  C1_4 
REMARK    2  A    between atoms: C1_4  and  C2_6 
REMARK    3  A    between atoms: C2_6  and  N3_7 
REMARK    4  A    between atoms: N3_7  and  C3_9 
REMARK    5  A    between atoms: C3_9  and  C4_10 
REMARK    6  A    between atoms: C4_10  and  O1_11 
REMARK    7  A    between atoms: O1_11  and  N4_12 
REMARK    8  A    between atoms: N4_12  and  C5_14 
REMARK    9  A    between atoms: C5_14  and  C6_15 
REMARK   10  A    between atoms: C5_14  and  C7_18 
REMARK   11  A    between atoms: C12_29  and  N9_30 
ROOT
HETATM    1  C5  UNL     1      12.991  78.702  25.782  1.00  0.00     0.231 C 
ENDROOT
BRANCH   1   2
HETATM    2  N4  UNL     1      12.985  77.353  25.596  1.00  0.00    -0.284 N 
ATOM      3  H4  UNL     1      12.124  76.842  25.403  1.00  0.00     0.189 HD
BRANCH   2   4
HETATM    4  O1  UNL     1      14.172  76.731  25.680  1.00  0.00    -0.282 OA
BRANCH   4   5
HETATM    5  C4  UNL     1      14.364  75.796  24.599  1.00  0.00     0.220 C 
BRANCH   5   6
HETATM    6  C3  UNL     1      15.897  75.635  24.675  1.00  0.00     0.148 C 
BRANCH   6   7
HETATM    7  N3  UNL     1      16.450  74.483  24.087  1.00  0.00    -0.394 N 
ATOM      8  H3  UNL     1      16.366  74.236  23.101  1.00  0.00     0.159 HD
BRANCH   7   9
HETATM    9  C2  UNL     1      17.148  73.707  25.066  1.00  0.00     0.128 C 
BRANCH   9  10
HETATM   10  C1  UNL     1      18.485  73.264  24.836  1.00  0.00     0.125 C 
HETATM   11  N2  UNL     1      19.646  74.028  24.674  1.00  0.00    -0.082 NA
BRANCH  10  12
HETATM   12  N1  UNL     1      18.672  71.960  24.627  1.00  0.00    -0.387 N 
ATOM     13  H12 UNL     1      18.391  71.584  23.722  1.00  0.00     0.157 HD
ATOM     14  H11 UNL     1      19.168  71.493  25.387  1.00  0.00     0.157 HD
ENDBRANCH  10  12
ENDBRANCH   9  10
ENDBRANCH   7   9
ENDBRANCH   6   7
ENDBRANCH   5   6
ENDBRANCH   4   5
ENDBRANCH   2   4
ENDBRANCH   1   2
BRANCH   1  15
HETATM   15  C6  UNL     1      11.690  79.161  25.098  1.00  0.00     0.260 C 
HETATM   16  N5  UNL     1      10.843  79.962  25.882  1.00  0.00    -0.060 NA
HETATM   17  O2  UNL     1      11.486  78.815  23.956  1.00  0.00    -0.274 OA
ENDBRANCH   1  15
BRANCH   1  18
HETATM   18  C7  UNL     1      14.037  79.579  25.311  1.00  0.00     0.019 A 
HETATM   19  C8  UNL     1      14.683  79.434  24.122  1.00  0.00     0.102 A 
HETATM   20  N6  UNL     1      15.474  80.372  23.608  1.00  0.00    -0.350 N 
HETATM   21  C9  UNL     1      15.681  81.539  24.254  1.00  0.00     0.135 A 
ATOM     22  H6  UNL     1      15.931  80.206  22.712  1.00  0.00     0.166 HD
HETATM   23  N7  UNL     1      16.394  82.649  23.959  1.00  0.00    -0.337 N 
HETATM   24  C11 UNL     1      15.062  81.768  25.479  1.00  0.00     0.104 A 
HETATM   25  C10 UNL     1      16.240  83.517  24.950  1.00  0.00     0.182 A 
ATOM     26  H7  UNL     1      16.954  82.794  23.119  1.00  0.00     0.168 HD
HETATM   27  N8  UNL     1      15.451  82.964  25.846  1.00  0.00    -0.347 N 
ATOM     28  H8  UNL     1      15.175  83.412  26.720  1.00  0.00     0.167 HD
HETATM   29  C12 UNL     1      14.240  80.755  25.990  1.00  0.00     0.067 A 
BRANCH  29  30
HETATM   30  N9  UNL     1      13.745  80.925  27.185  1.00  0.00    -0.397 N 
ATOM     31  H92 UNL     1      14.309  80.619  27.977  1.00  0.00     0.156 HD
ATOM     32  H91 UNL     1      12.798  81.283  27.309  1.00  0.00     0.156 HD
ENDBRANCH  29  30
ENDBRANCH   1  18
TORSDOF 11
ENDMDL
MODEL 5
REMARK VINA RESULT: -7.521068805      1.020      1.121
REMARK  11 active torsions:
REMARK  status: ('A' for Active; 'I' for Inactive)
REMARK    1  A    between atoms: N1_1  and  C1_4 
REMARK    2  A    between atoms: C1_4  and  C2_6 
REMARK    3  A    between atoms: C2_6  and  N3_7 
REMARK    4  A    between atoms: N3_7  and  C3_9 
REMARK    5  A    between atoms: C3_9  and  C4_10 
REMARK    6  A    between atoms: C4_10  and  O1_11 
REMARK    7  A    between atoms: O1_11  and  N4_12 
REMARK    8  A    between atoms: N4_12  and  C5_14 
REMARK    9  A    between atoms: C5_14  and  C6_15 
REMARK   10  A    between atoms: C5_14  and  C7_18 
REMARK   11  A    between atoms: C12_29  and  N9_30 
ROOT
HETATM    1  C5  UNL     1      14.719  79.791  25.576  1.00  0.00     0.231 C 
ENDROOT
BRANCH   1   2
HETATM    2  N4  UNL     1      13.468  79.456  25.998  1.00  0.00    -0.284 N 
ATOM      3  H4  UNL     1      13.279  79.209  26.969  1.00  0.00     0.189 HD
BRANCH   2   4
HETATM    4  O1  UNL     1      12.498  79.470  25.070  1.00  0.00    -0.282 OA
BRANCH   4   5
HETATM    5  C4  UNL     1      12.621  78.365  24.151  1.00  0.00     0.220 C 
BRANCH   5   6
HETATM    6  C3  UNL     1      12.441  77.195  25.141  1.00  0.00     0.148 C 
BRANCH   6   7
HETATM    7  N3  UNL     1      13.254  76.062  24.950  1.00  0.00    -0.394 N 
ATOM      8  H3  UNL     1      13.043  75.129  25.302  1.00  0.00     0.159 HD
BRANCH   7   9
HETATM    9  C2  UNL     1      14.419  76.404  24.191  1.00  0.00     0.128 C 
BRANCH   9  10
HETATM   10  C1  UNL     1      15.700  75.877  24.533  1.00  0.00     0.125 C 
HETATM   11  N2  UNL     1      16.505  74.992  23.808  1.00  0.00    -0.082 NA
BRANCH  10  12
HETATM   12  N1  UNL     1      16.172  76.151  25.750  1.00  0.00    -0.387 N 
ATOM     13  H12 UNL     1      16.583  77.073  25.898  1.00  0.00     0.157 HD
ATOM     14  H11 UNL     1      15.984  75.419  26.435  1.00  0.00     0.157 HD
ENDBRANCH  10  12
ENDBRANCH   9  10
ENDBRANCH   7   9
ENDBRANCH   6   7
ENDBRANCH   5   6
ENDBRANCH   4   5
ENDBRANCH   2   4
ENDBRANCH   1   2
BRANCH   1  15
HETATM   15  C6  UNL     1      15.637  79.106  26.606  1.00  0.00     0.260 C 
HETATM   16  N5  UNL     1      14.982  78.371  27.608  1.00  0.00    -0.060 NA
HETATM   17  O2  UNL     1      16.835  79.236  26.486  1.00  0.00    -0.274 OA
ENDBRANCH   1  15
BRANCH   1  18
HETATM   18  C7  UNL     1      15.191  81.150  25.441  1.00  0.00     0.019 A 
HETATM   19  C8  UNL     1      15.285  82.035  26.470  1.00  0.00     0.102 A 
HETATM   20  N6  UNL     1      15.929  83.195  26.371  1.00  0.00    -0.350 N 
HETATM   21  C9  UNL     1      16.533  83.560  25.220  1.00  0.00     0.135 A 
ATOM     22  H6  UNL     1      15.966  83.818  27.177  1.00  0.00     0.166 HD
HETATM   23  N7  UNL     1      17.261  84.639  24.857  1.00  0.00    -0.337 N 
HETATM   24  C11 UNL     1      16.481  82.714  24.116  1.00  0.00     0.104 A 
HETATM   25  C10 UNL     1      17.632  84.482  23.592  1.00  0.00     0.182 A 
ATOM     26  H7  UNL     1      17.487  85.436  25.451  1.00  0.00     0.168 HD
HETATM   27  N8  UNL     1      17.147  83.334  23.174  1.00  0.00    -0.347 N 
ATOM     28  H8  UNL     1      17.274  82.970  22.229  1.00  0.00     0.167 HD
HETATM   29  C12 UNL     1      15.791  81.503  24.258  1.00  0.00     0.067 A 
BRANCH  29  30
HETATM   30  N9  UNL     1      15.652  80.760  23.194  1.00  0.00    -0.397 N 
ATOM     31  H92 UNL     1      15.014  79.967  23.253  1.00  0.00     0.156 HD
ATOM     32  H91 UNL     1      16.220  80.929  22.365  1.00  0.00     0.156 HD
ENDBRANCH  29  30
ENDBRANCH   1  18
TORSDOF 11
ENDMDL
