MODEL 1
REMARK VINA RESULT: -7.621973372      0.000      0.000
REMARK  11 active torsions:
REMARK  status: ('A' for Active; 'I' for Inactive)
REMARK       I    between atoms: C1_4  and  N3_6 
REMARK    1  A    between atoms: N3_6  and  C2_8 
REMARK    2  A    between atoms: C2_8  and  C3_9 
REMARK    3  A    between atoms: C2_8  and  C5_17 
REMARK    4  A    between atoms: C3_9  and  N4_10 
REMARK    5  A    between atoms: C3_9  and  C4_14 
REMARK    6  A    between atoms: C5_17  and  O3_18 
REMARK    7  A    between atoms: C5_17  and  C6_20 
REMARK    8  A    between atoms: N5_24  and  C10_25 
REMARK    9  A    between atoms: C10_25  and  C11_26 
REMARK   10  A    between atoms: C11_26  and  N6_27 
REMARK   11  A    between atoms: C11_26  and  C12_31 
ROOT
HETATM    1  C5  UNL     1      16.265  78.574  26.931  1.00  0.00     0.189 C 
ENDROOT
BRANCH   1   2
HETATM    2  C2  UNL     1      16.654  77.165  26.531  1.00  0.00     0.061 C 
BRANCH   2   3
HETATM    3  N3  UNL     1      15.590  76.302  26.165  1.00  0.00    -0.333 N 
HETATM    4  C1  UNL     1      15.331  75.783  24.854  1.00  0.00     0.186 C 
HETATM    5  N1  UNL     1      16.222  75.057  24.297  1.00  0.00    -0.374 N 
HETATM    6  N2  UNL     1      14.126  76.037  24.148  1.00  0.00    -0.064 NA
ATOM      7  H12 UNL     1      16.038  74.689  23.365  1.00  0.00     0.158 HD
ATOM      8  H11 UNL     1      17.088  74.875  24.804  1.00  0.00     0.158 HD
ATOM      9  H3  UNL     1      14.947  76.024  26.906  1.00  0.00     0.168 HD
ENDBRANCH   2   3
BRANCH   2  10
HETATM   10  C3  UNL     1      17.700  76.583  27.443  1.00  0.00     0.331 C 
BRANCH  10  11
HETATM   11  N4  UNL     1      18.307  75.450  26.813  1.00  0.00    -0.060 N 
ATOM     12  H43 UNL     1      17.966  75.309  25.862  1.00  0.00     0.275 HD
ATOM     13  H42 UNL     1      19.290  75.612  26.593  1.00  0.00     0.275 HD
ATOM     14  H41 UNL     1      18.174  74.623  27.397  1.00  0.00     0.275 HD
ENDBRANCH  10  11
BRANCH  10  15
HETATM   15  C4  UNL     1      17.317  76.344  28.821  1.00  0.00     0.210 C 
HETATM   16  O1  UNL     1      18.222  76.503  29.714  1.00  0.00    -0.646 OA
HETATM   17  O2  UNL     1      16.087  75.964  29.293  1.00  0.00    -0.646 OA
ENDBRANCH  10  15
ENDBRANCH   2  10
ENDBRANCH   1   2
BRANCH   1  18
HETATM   18  O3  UNL     1      17.501  79.305  27.068  1.00  0.00    -0.388 OA
ATOM     19  H3  UNL     1      17.549  79.569  27.980  1.00  0.00     0.210 HD
ENDBRANCH   1  18
BRANCH   1  20
HETATM   20  C6  UNL     1      15.586  79.325  25.807  1.00  0.00     0.118 C 
HETATM   21  C7  UNL     1      16.273  80.656  25.604  1.00  0.00     0.030 C 
HETATM   22  C8  UNL     1      15.458  81.593  26.460  1.00  0.00     0.022 C 
HETATM   23  C9  UNL     1      14.135  80.888  26.691  1.00  0.00     0.122 C 
HETATM   24  N5  UNL     1      14.230  79.606  26.095  1.00  0.00    -0.383 N 
BRANCH  24  25
HETATM   25  C10 UNL     1      13.288  79.228  25.123  1.00  0.00     0.102 C 
BRANCH  25  26
HETATM   26  C11 UNL     1      12.006  78.620  25.575  1.00  0.00     0.321 C 
BRANCH  26  27
HETATM   27  N6  UNL     1      12.156  77.436  26.397  1.00  0.00    -0.061 N 
ATOM     28  H63 UNL     1      12.686  77.654  27.240  1.00  0.00     0.275 HD
ATOM     29  H62 UNL     1      11.261  77.179  26.814  1.00  0.00     0.275 HD
ATOM     30  H61 UNL     1      12.567  76.636  25.917  1.00  0.00     0.275 HD
ENDBRANCH  26  27
BRANCH  26  31
HETATM   31  C12 UNL     1      11.161  78.256  24.411  1.00  0.00     0.209 C 
HETATM   32  O4  UNL     1      11.304  78.871  23.332  1.00  0.00    -0.646 OA
HETATM   33  O5  UNL     1      10.213  77.252  24.477  1.00  0.00    -0.646 OA
ENDBRANCH  26  31
ENDBRANCH  25  26
ENDBRANCH  24  25
ENDBRANCH   1  20
TORSDOF 11
ENDMDL
MODEL 2
REMARK VINA RESULT: -7.425254019      3.730      5.929
REMARK  11 active torsions:
REMARK  status: ('A' for Active; 'I' for Inactive)
REMARK       I    between atoms: C1_4  and  N3_6 
REMARK    1  A    between atoms: N3_6  and  C2_8 
REMARK    2  A    between atoms: C2_8  and  C3_9 
REMARK    3  A    between atoms: C2_8  and  C5_17 
REMARK    4  A    between atoms: C3_9  and  N4_10 
REMARK    5  A    between atoms: C3_9  and  C4_14 
REMARK    6  A    between atoms: C5_17  and  O3_18 
REMARK    7  A    between atoms: C5_17  and  C6_20 
REMARK    8  A    between atoms: N5_24  and  C10_25 
REMARK    9  A    between atoms: C10_25  and  C11_26 
REMARK   10  A    between atoms: C11_26  and  N6_27 
REMARK   11  A    between atoms: C11_26  and  C12_31 
ROOT
HETATM    1  C5  UNL     1      15.722  81.142  26.433  1.00  0.00     0.189 C 
ENDROOT
BRANCH   1   2
HETATM    2  C2  UNL     1      14.917  79.937  25.988  1.00  0.00     0.061 C 
BRANCH   2   3
HETATM    3  N3  UNL     1      13.708  79.700  26.690  1.00  0.00    -0.333 N 
HETATM    4  C1  UNL     1      12.432  79.402  26.106  1.00  0.00     0.186 C 
HETATM    5  N1  UNL     1      12.320  78.353  25.388  1.00  0.00    -0.374 N 
HETATM    6  N2  UNL     1      11.288  80.220  26.295  1.00  0.00    -0.064 NA
ATOM      7  H12 UNL     1      11.413  78.141  24.973  1.00  0.00     0.158 HD
ATOM      8  H11 UNL     1      13.142  77.765  25.252  1.00  0.00     0.158 HD
ATOM      9  H3  UNL     1      13.749  79.745  27.708  1.00  0.00     0.168 HD
ENDBRANCH   2   3
BRANCH   2  10
HETATM   10  C3  UNL     1      15.785  78.736  25.732  1.00  0.00     0.331 C 
BRANCH  10  11
HETATM   11  N4  UNL     1      15.664  78.342  24.360  1.00  0.00    -0.060 N 
ATOM     12  H43 UNL     1      15.984  77.386  24.204  1.00  0.00     0.275 HD
ATOM     13  H42 UNL     1      14.691  78.219  24.079  1.00  0.00     0.275 HD
ATOM     14  H41 UNL     1      16.155  79.014  23.768  1.00  0.00     0.275 HD
ENDBRANCH  10  11
BRANCH  10  15
HETATM   15  C4  UNL     1      15.677  77.630  26.663  1.00  0.00     0.210 C 
HETATM   16  O1  UNL     1      15.981  76.466  26.224  1.00  0.00    -0.646 OA
HETATM   17  O2  UNL     1      15.284  77.678  27.976  1.00  0.00    -0.646 OA
ENDBRANCH  10  15
ENDBRANCH   2  10
ENDBRANCH   1   2
BRANCH   1  18
HETATM   18  O3  UNL     1      17.095  80.846  26.104  1.00  0.00    -0.388 OA
ATOM     19  H3  UNL     1      17.541  80.714  26.933  1.00  0.00     0.210 HD
ENDBRANCH   1  18
BRANCH   1  20
HETATM   20  C6  UNL     1      15.455  82.361  25.579  1.00  0.00     0.118 C 
HETATM   21  C7  UNL     1      14.195  82.142  24.771  1.00  0.00     0.030 C 
HETATM   22  C8  UNL     1      14.719  81.587  23.470  1.00  0.00     0.022 C 
HETATM   23  C9  UNL     1      16.186  81.968  23.425  1.00  0.00     0.122 C 
HETATM   24  N5  UNL     1      16.495  82.604  24.652  1.00  0.00    -0.383 N 
BRANCH  24  25
HETATM   25  C10 UNL     1      17.036  83.901  24.639  1.00  0.00     0.102 C 
BRANCH  25  26
HETATM   26  C11 UNL     1      17.625  84.413  23.371  1.00  0.00     0.321 C 
BRANCH  26  27
HETATM   27  N6  UNL     1      18.769  83.664  22.891  1.00  0.00    -0.061 N 
ATOM     28  H63 UNL     1      19.248  83.212  23.669  1.00  0.00     0.275 HD
ATOM     29  H62 UNL     1      18.461  82.841  22.373  1.00  0.00     0.275 HD
ATOM     30  H61 UNL     1      19.428  84.207  22.335  1.00  0.00     0.275 HD
ENDBRANCH  26  27
BRANCH  26  31
HETATM   31  C12 UNL     1      18.044  85.828  23.523  1.00  0.00     0.209 C 
HETATM   32  O4  UNL     1      17.374  86.593  24.250  1.00  0.00    -0.646 OA
HETATM   33  O5  UNL     1      19.160  86.335  22.884  1.00  0.00    -0.646 OA
ENDBRANCH  26  31
ENDBRANCH  25  26
ENDBRANCH  24  25
ENDBRANCH   1  20
TORSDOF 11
ENDMDL
MODEL 3
REMARK VINA RESULT: -7.290280368      2.250      3.827
REMARK  11 active torsions:
REMARK  status: ('A' for Active; 'I' for Inactive)
REMARK       I    between atoms: C1_4  and  N3_6 
REMARK    1  A    between atoms: N3_6  and  C2_8 
REMARK    2  A    between atoms: C2_8  and  C3_9 
REMARK    3  A    between atoms: C2_8  and  C5_17 
REMARK    4  A    between atoms: C3_9  and  N4_10 
REMARK    5  A    between atoms: C3_9  and  C4_14 
REMARK    6  A    between atoms: C5_17  and  O3_18 
REMARK    7  A    between atoms: C5_17  and  C6_20 
REMARK    8  A    between atoms: N5_24  and  C10_25 
REMARK    9  A    between atoms: C10_25  and  C11_26 
REMARK   10  A    between atoms: C11_26  and  N6_27 
REMARK   11  A    between atoms: C11_26  and  C12_31 
ROOT
HETATM    1  C5  UNL     1      13.658  78.515  26.872  1.00  0.00     0.189 C 
ENDROOT
BRANCH   1   2
HETATM    2  C2  UNL     1      14.738  77.691  26.198  1.00  0.00     0.061 C 
BRANCH   2   3
HETATM    3  N3  UNL     1      14.372  76.377  25.811  1.00  0.00    -0.333 N 
HETATM    4  C1  UNL     1      14.614  75.770  24.535  1.00  0.00     0.186 C 
HETATM    5  N1  UNL     1      15.821  75.641  24.139  1.00  0.00    -0.374 N 
HETATM    6  N2  UNL     1      13.572  75.302  23.693  1.00  0.00    -0.064 NA
ATOM      7  H12 UNL     1      15.993  75.209  23.232  1.00  0.00     0.158 HD
ATOM      8  H11 UNL     1      16.570  75.977  24.744  1.00  0.00     0.158 HD
ATOM      9  H3  UNL     1      13.891  75.809  26.508  1.00  0.00     0.168 HD
ENDBRANCH   2   3
BRANCH   2  10
HETATM   10  C3  UNL     1      16.072  77.839  26.877  1.00  0.00     0.331 C 
BRANCH  10  11
HETATM   11  N4  UNL     1      16.953  78.598  26.041  1.00  0.00    -0.060 N 
ATOM     12  H43 UNL     1      17.460  78.009  25.381  1.00  0.00     0.275 HD
ATOM     13  H42 UNL     1      16.445  79.170  25.366  1.00  0.00     0.275 HD
ATOM     14  H41 UNL     1      17.580  79.154  26.623  1.00  0.00     0.275 HD
ENDBRANCH  10  11
BRANCH  10  15
HETATM   15  C4  UNL     1      16.677  76.636  27.415  1.00  0.00     0.210 C 
HETATM   16  O1  UNL     1      16.396  76.334  28.627  1.00  0.00    -0.646 OA
HETATM   17  O2  UNL     1      17.526  75.770  26.775  1.00  0.00    -0.646 OA
ENDBRANCH  10  15
ENDBRANCH   2  10
ENDBRANCH   1   2
BRANCH   1  18
HETATM   18  O3  UNL     1      14.325  79.290  27.889  1.00  0.00    -0.388 OA
ATOM     19  H3  UNL     1      15.186  78.902  27.991  1.00  0.00     0.210 HD
ENDBRANCH   1  18
BRANCH   1  20
HETATM   20  C6  UNL     1      13.110  79.596  25.968  1.00  0.00     0.118 C 
HETATM   21  C7  UNL     1      11.602  79.496  25.921  1.00  0.00     0.030 C 
HETATM   22  C8  UNL     1      11.356  78.632  24.710  1.00  0.00     0.022 C 
HETATM   23  C9  UNL     1      12.634  78.700  23.894  1.00  0.00     0.122 C 
HETATM   24  N5  UNL     1      13.568  79.463  24.636  1.00  0.00    -0.383 N 
BRANCH  24  25
HETATM   25  C10 UNL     1      14.143  80.605  24.052  1.00  0.00     0.102 C 
BRANCH  25  26
HETATM   26  C11 UNL     1      14.437  81.777  24.921  1.00  0.00     0.321 C 
BRANCH  26  27
HETATM   27  N6  UNL     1      14.202  83.064  24.298  1.00  0.00    -0.061 N 
ATOM     28  H63 UNL     1      15.012  83.671  24.423  1.00  0.00     0.275 HD
ATOM     29  H62 UNL     1      14.207  82.972  23.283  1.00  0.00     0.275 HD
ATOM     30  H61 UNL     1      13.354  83.537  24.608  1.00  0.00     0.275 HD
ENDBRANCH  26  27
BRANCH  26  31
HETATM   31  C12 UNL     1      15.848  81.749  25.378  1.00  0.00     0.209 C 
HETATM   32  O4  UNL     1      16.109  81.383  26.545  1.00  0.00    -0.646 OA
HETATM   33  O5  UNL     1      16.895  82.115  24.552  1.00  0.00    -0.646 OA
ENDBRANCH  26  31
ENDBRANCH  25  26
ENDBRANCH  24  25
ENDBRANCH   1  20
TORSDOF 11
ENDMDL
MODEL 4
REMARK VINA RESULT: -7.251113105      3.166      6.087
REMARK  11 active torsions:
REMARK  status: ('A' for Active; 'I' for Inactive)
REMARK       I    between atoms: C1_4  and  N3_6 
REMARK    1  A    between atoms: N3_6  and  C2_8 
REMARK    2  A    between atoms: C2_8  and  C3_9 
REMARK    3  A    between atoms: C2_8  and  C5_17 
REMARK    4  A    between atoms: C3_9  and  N4_10 
REMARK    5  A    between atoms: C3_9  and  C4_14 
REMARK    6  A    between atoms: C5_17  and  O3_18 
REMARK    7  A    between atoms: C5_17  and  C6_20 
REMARK    8  A    between atoms: N5_24  and  C10_25 
REMARK    9  A    between atoms: C10_25  and  C11_26 
REMARK   10  A    between atoms: C11_26  and  N6_27 
REMARK   11  A    between atoms: C11_26  and  C12_31 
ROOT
HETATM    1  C5  UNL     1      13.232  77.083  24.570  1.00  0.00     0.189 C 
ENDROOT
BRANCH   1   2
HETATM    2  C2  UNL     1      12.028  77.885  24.116  1.00  0.00     0.061 C 
BRANCH   2   3
HETATM    3  N3  UNL     1      11.865  79.160  24.714  1.00  0.00    -0.333 N 
HETATM    4  C1  UNL     1      11.143  79.447  25.919  1.00  0.00     0.186 C 
HETATM    5  N1  UNL     1      11.524  78.894  27.005  1.00  0.00    -0.374 N 
HETATM    6  N2  UNL     1      10.026  80.321  25.959  1.00  0.00    -0.064 NA
ATOM      7  H12 UNL     1      11.011  79.098  27.862  1.00  0.00     0.158 HD
ATOM      8  H11 UNL     1      12.327  78.266  26.976  1.00  0.00     0.158 HD
ATOM      9  H3  UNL     1      12.304  79.950  24.240  1.00  0.00     0.168 HD
ENDBRANCH   2   3
BRANCH   2  10
HETATM   10  C3  UNL     1      10.790  77.038  24.006  1.00  0.00     0.331 C 
BRANCH  10  11
HETATM   11  N4  UNL     1      10.989  75.806  24.708  1.00  0.00    -0.060 N 
ATOM     12  H43 UNL     1      11.881  75.783  25.202  1.00  0.00     0.275 HD
ATOM     13  H42 UNL     1      10.372  75.719  25.516  1.00  0.00     0.275 HD
ATOM     14  H41 UNL     1      10.887  75.024  24.060  1.00  0.00     0.275 HD
ENDBRANCH  10  11
BRANCH  10  15
HETATM   15  C4  UNL     1      10.221  76.865  22.683  1.00  0.00     0.210 C 
HETATM   16  O1  UNL     1      11.037  76.626  21.724  1.00  0.00    -0.646 OA
HETATM   17  O2  UNL     1       8.899  76.927  22.327  1.00  0.00    -0.646 OA
ENDBRANCH  10  15
ENDBRANCH   2  10
ENDBRANCH   1   2
BRANCH   1  18
HETATM   18  O3  UNL     1      13.579  76.226  23.463  1.00  0.00    -0.388 OA
ATOM     19  H3  UNL     1      13.200  75.377  23.660  1.00  0.00     0.210 HD
ENDBRANCH   1  18
BRANCH   1  20
HETATM   20  C6  UNL     1      14.474  77.934  24.704  1.00  0.00     0.118 C 
HETATM   21  C7  UNL     1      15.692  77.104  24.368  1.00  0.00     0.030 C 
HETATM   22  C8  UNL     1      16.135  76.591  25.716  1.00  0.00     0.022 C 
HETATM   23  C9  UNL     1      15.486  77.508  26.735  1.00  0.00     0.122 C 
HETATM   24  N5  UNL     1      14.657  78.410  26.024  1.00  0.00    -0.383 N 
BRANCH  24  25
HETATM   25  C10 UNL     1      14.858  79.793  26.172  1.00  0.00     0.102 C 
BRANCH  25  26
HETATM   26  C11 UNL     1      15.631  80.515  25.125  1.00  0.00     0.321 C 
BRANCH  26  27
HETATM   27  N6  UNL     1      16.836  81.163  25.604  1.00  0.00    -0.061 N 
ATOM     28  H63 UNL     1      16.640  82.130  25.862  1.00  0.00     0.275 HD
ATOM     29  H62 UNL     1      17.102  80.788  26.514  1.00  0.00     0.275 HD
ATOM     30  H61 UNL     1      17.625  81.121  24.959  1.00  0.00     0.275 HD
ENDBRANCH  26  27
BRANCH  26  31
HETATM   31  C12 UNL     1      14.791  81.551  24.476  1.00  0.00     0.209 C 
HETATM   32  O4  UNL     1      13.856  81.202  23.723  1.00  0.00    -0.646 OA
HETATM   33  O5  UNL     1      15.007  82.902  24.675  1.00  0.00    -0.646 OA
ENDBRANCH  26  31
ENDBRANCH  25  26
ENDBRANCH  24  25
ENDBRANCH   1  20
TORSDOF 11
ENDMDL
MODEL 5
REMARK VINA RESULT: -7.249772718      1.523      5.279
REMARK  11 active torsions:
REMARK  status: ('A' for Active; 'I' for Inactive)
REMARK       I    between atoms: C1_4  and  N3_6 
REMARK    1  A    between atoms: N3_6  and  C2_8 
REMARK    2  A    between atoms: C2_8  and  C3_9 
REMARK    3  A    between atoms: C2_8  and  C5_17 
REMARK    4  A    between atoms: C3_9  and  N4_10 
REMARK    5  A    between atoms: C3_9  and  C4_14 
REMARK    6  A    between atoms: C5_17  and  O3_18 
REMARK    7  A    between atoms: C5_17  and  C6_20 
REMARK    8  A    between atoms: N5_24  and  C10_25 
REMARK    9  A    between atoms: C10_25  and  C11_26 
REMARK   10  A    between atoms: C11_26  and  N6_27 
REMARK   11  A    between atoms: C11_26  and  C12_31 
ROOT
HETATM    1  C5  UNL     1      13.538  79.544  25.098  1.00  0.00     0.189 C 
ENDROOT
BRANCH   1   2
HETATM    2  C2  UNL     1      13.156  78.078  25.079  1.00  0.00     0.061 C 
BRANCH   2   3
HETATM    3  N3  UNL     1      13.781  77.281  24.086  1.00  0.00    -0.333 N 
HETATM    4  C1  UNL     1      14.629  76.148  24.316  1.00  0.00     0.186 C 
HETATM    5  N1  UNL     1      14.150  75.143  24.940  1.00  0.00    -0.374 N 
HETATM    6  N2  UNL     1      15.978  76.093  23.878  1.00  0.00    -0.064 NA
ATOM      7  H12 UNL     1      14.753  74.338  25.104  1.00  0.00     0.158 HD
ATOM      8  H11 UNL     1      13.181  75.183  25.256  1.00  0.00     0.158 HD
ATOM      9  H3  UNL     1      13.610  77.539  23.114  1.00  0.00     0.168 HD
ENDBRANCH   2   3
BRANCH   2  10
HETATM   10  C3  UNL     1      11.677  77.873  25.264  1.00  0.00     0.331 C 
BRANCH  10  11
HETATM   11  N4  UNL     1      11.421  77.419  26.598  1.00  0.00    -0.060 N 
ATOM     12  H43 UNL     1      11.470  78.177  27.279  1.00  0.00     0.275 HD
ATOM     13  H42 UNL     1      10.443  77.162  26.736  1.00  0.00     0.275 HD
ATOM     14  H41 UNL     1      12.056  76.654  26.826  1.00  0.00     0.275 HD
ENDBRANCH  10  11
BRANCH  10  15
HETATM   15  C4  UNL     1      10.983  77.107  24.248  1.00  0.00     0.210 C 
HETATM   16  O1  UNL     1      11.131  75.835  24.274  1.00  0.00    -0.646 OA
HETATM   17  O2  UNL     1      10.175  77.584  23.249  1.00  0.00    -0.646 OA
ENDBRANCH  10  15
ENDBRANCH   2  10
ENDBRANCH   1   2
BRANCH   1  18
HETATM   18  O3  UNL     1      12.341  80.263  25.458  1.00  0.00    -0.388 OA
ATOM     19  H3  UNL     1      11.737  80.146  24.733  1.00  0.00     0.210 HD
ENDBRANCH   1  18
BRANCH   1  20
HETATM   20  C6  UNL     1      14.461  79.885  26.247  1.00  0.00     0.118 C 
HETATM   21  C7  UNL     1      14.254  81.328  26.648  1.00  0.00     0.030 C 
HETATM   22  C8  UNL     1      15.304  82.056  25.846  1.00  0.00     0.022 C 
HETATM   23  C9  UNL     1      16.315  81.000  25.443  1.00  0.00     0.122 C 
HETATM   24  N5  UNL     1      15.824  79.751  25.897  1.00  0.00    -0.383 N 
BRANCH  24  25
HETATM   25  C10 UNL     1      16.619  78.967  26.750  1.00  0.00     0.102 C 
BRANCH  25  26
HETATM   26  C11 UNL     1      16.334  77.509  26.847  1.00  0.00     0.321 C 
BRANCH  26  27
HETATM   27  N6  UNL     1      15.259  77.163  27.755  1.00  0.00    -0.061 N 
ATOM     28  H63 UNL     1      15.347  77.689  28.625  1.00  0.00     0.275 HD
ATOM     29  H62 UNL     1      14.374  77.536  27.414  1.00  0.00     0.275 HD
ATOM     30  H61 UNL     1      15.173  76.166  27.951  1.00  0.00     0.275 HD
ENDBRANCH  26  27
BRANCH  26  31
HETATM   31  C12 UNL     1      17.545  76.767  27.279  1.00  0.00     0.209 C 
HETATM   32  O4  UNL     1      18.337  77.301  28.085  1.00  0.00    -0.646 OA
HETATM   33  O5  UNL     1      17.831  75.496  26.818  1.00  0.00    -0.646 OA
ENDBRANCH  26  31
ENDBRANCH  25  26
ENDBRANCH  24  25
ENDBRANCH   1  20
TORSDOF 11
ENDMDL
