MODEL 1
REMARK VINA RESULT: -7.870058974      0.000      0.000
REMARK  12 active torsions:
REMARK  status: ('A' for Active; 'I' for Inactive)
REMARK    1  A    between atoms: C2_2  and  N1_3 
REMARK    2  A    between atoms: C2_2  and  C3_7 
REMARK       I    between atoms: C3_7  and  N2_9 
REMARK    3  A    between atoms: N2_9  and  C4_11 
REMARK    4  A    between atoms: C4_11  and  N3_12 
REMARK    5  A    between atoms: C4_11  and  C5_16 
REMARK    6  A    between atoms: C5_16  and  N4_17 
REMARK    7  A    between atoms: N4_17  and  C6_19 
REMARK    8  A    between atoms: C6_19  and  C7_20 
REMARK    9  A    between atoms: C6_19  and  C8_23 
REMARK   10  A    between atoms: C8_23  and  N5_24 
REMARK   11  A    between atoms: C8_23  and  C9_28 
REMARK   12  A    between atoms: C14_33  and  O4_34 
ROOT
HETATM    1  N4  UNL     1      15.171  80.017  24.610  1.00  0.00    -0.383 N 
ATOM      2  H4  UNL     1      15.948  79.470  24.978  1.00  0.00     0.159 HD
ENDROOT
BRANCH   1   3
HETATM    3  C5  UNL     1      15.423  81.137  23.792  1.00  0.00     0.110 C 
BRANCH   3   4
HETATM    4  C4  UNL     1      15.894  82.392  24.489  1.00  0.00     0.323 C 
BRANCH   4   5
HETATM    5  N2  UNL     1      17.020  82.916  23.724  1.00  0.00    -0.328 N 
HETATM    6  C3  UNL     1      17.477  84.231  23.984  1.00  0.00     0.249 C 
HETATM    7  O1  UNL     1      16.890  84.898  24.869  1.00  0.00    -0.271 OA
ATOM      8  H2  UNL     1      17.473  82.342  23.013  1.00  0.00     0.164 HD
BRANCH   6   9
HETATM    9  C2  UNL     1      18.605  84.854  23.269  1.00  0.00     0.270 C 
HETATM   10  C1  UNL     1      18.445  86.348  23.098  1.00  0.00     0.050 C 
BRANCH   9  11
HETATM   11  N1  UNL     1      18.745  84.252  21.961  1.00  0.00    -0.067 N 
ATOM     12  H13 UNL     1      19.337  84.802  21.338  1.00  0.00     0.275 HD
ATOM     13  H12 UNL     1      19.312  83.404  21.980  1.00  0.00     0.275 HD
ATOM     14  H11 UNL     1      17.815  84.092  21.575  1.00  0.00     0.275 HD
ENDBRANCH   9  11
ENDBRANCH   6   9
ENDBRANCH   4   5
BRANCH   4  15
HETATM   15  N3  UNL     1      16.435  82.151  25.813  1.00  0.00    -0.054 N 
ATOM     16  H33 UNL     1      17.264  82.703  26.031  1.00  0.00     0.277 HD
ATOM     17  H32 UNL     1      15.857  82.512  26.571  1.00  0.00     0.277 HD
ATOM     18  H31 UNL     1      16.585  81.142  25.848  1.00  0.00     0.277 HD
ENDBRANCH   4  15
ENDBRANCH   3   4
ENDBRANCH   1   3
BRANCH   1  19
HETATM   19  C6  UNL     1      13.838  79.651  24.921  1.00  0.00     0.217 C 
BRANCH  19  20
HETATM   20  C7  UNL     1      13.302  80.271  26.146  1.00  0.00     0.199 C 
HETATM   21  O2  UNL     1      12.080  80.460  26.262  1.00  0.00    -0.646 OA
HETATM   22  O3  UNL     1      14.143  80.643  27.165  1.00  0.00    -0.646 OA
ENDBRANCH  19  20
BRANCH  19  23
HETATM   23  C8  UNL     1      13.756  78.128  25.216  1.00  0.00     0.252 C 
BRANCH  23  24
HETATM   24  N5  UNL     1      13.437  78.043  26.638  1.00  0.00    -0.068 N 
ATOM     25  H53 UNL     1      12.674  78.654  26.930  1.00  0.00     0.275 HD
ATOM     26  H52 UNL     1      12.992  77.166  26.912  1.00  0.00     0.275 HD
ATOM     27  H51 UNL     1      14.321  78.225  27.114  1.00  0.00     0.275 HD
ENDBRANCH  23  24
BRANCH  23  28
HETATM   28  C9  UNL     1      12.780  77.434  24.394  1.00  0.00     0.008 A 
HETATM   29  C10 UNL     1      11.767  78.089  23.746  1.00  0.00     0.012 A 
HETATM   30  C11 UNL     1      10.827  77.395  22.971  1.00  0.00     0.001 A 
HETATM   31  C12 UNL     1      10.911  76.037  22.851  1.00  0.00     0.003 A 
HETATM   32  C13 UNL     1      11.923  75.367  23.497  1.00  0.00     0.037 A 
HETATM   33  C14 UNL     1      12.851  76.063  24.263  1.00  0.00     0.074 A 
BRANCH  33  34
HETATM   34  O4  UNL     1      13.841  75.313  24.883  1.00  0.00    -0.360 OA
ATOM     35  H4  UNL     1      13.683  74.838  25.690  1.00  0.00     0.217 HD
ENDBRANCH  33  34
ENDBRANCH  23  28
ENDBRANCH  19  23
ENDBRANCH   1  19
TORSDOF 12
ENDMDL
MODEL 2
REMARK VINA RESULT: -7.843083997      1.785      2.852
REMARK  12 active torsions:
REMARK  status: ('A' for Active; 'I' for Inactive)
REMARK    1  A    between atoms: C2_2  and  N1_3 
REMARK    2  A    between atoms: C2_2  and  C3_7 
REMARK       I    between atoms: C3_7  and  N2_9 
REMARK    3  A    between atoms: N2_9  and  C4_11 
REMARK    4  A    between atoms: C4_11  and  N3_12 
REMARK    5  A    between atoms: C4_11  and  C5_16 
REMARK    6  A    between atoms: C5_16  and  N4_17 
REMARK    7  A    between atoms: N4_17  and  C6_19 
REMARK    8  A    between atoms: C6_19  and  C7_20 
REMARK    9  A    between atoms: C6_19  and  C8_23 
REMARK   10  A    between atoms: C8_23  and  N5_24 
REMARK   11  A    between atoms: C8_23  and  C9_28 
REMARK   12  A    between atoms: C14_33  and  O4_34 
ROOT
HETATM    1  N4  UNL     1      16.337  80.891  26.061  1.00  0.00    -0.383 N 
ATOM      2  H4  UNL     1      17.129  81.158  26.645  1.00  0.00     0.159 HD
ENDROOT
BRANCH   1   3
HETATM    3  C5  UNL     1      16.095  81.568  24.849  1.00  0.00     0.110 C 
BRANCH   3   4
HETATM    4  C4  UNL     1      16.224  83.073  24.876  1.00  0.00     0.323 C 
BRANCH   4   5
HETATM    5  N2  UNL     1      17.401  83.421  24.089  1.00  0.00    -0.328 N 
HETATM    6  C3  UNL     1      17.682  84.786  23.838  1.00  0.00     0.249 C 
HETATM    7  O1  UNL     1      16.902  85.648  24.307  1.00  0.00    -0.271 OA
ATOM      8  H2  UNL     1      18.014  82.692  23.725  1.00  0.00     0.164 HD
BRANCH   6   9
HETATM    9  C2  UNL     1      18.844  85.245  23.056  1.00  0.00     0.270 C 
HETATM   10  C1  UNL     1      18.735  86.690  22.625  1.00  0.00     0.050 C 
BRANCH   9  11
HETATM   11  N1  UNL     1      18.993  84.422  21.875  1.00  0.00    -0.067 N 
ATOM     12  H13 UNL     1      18.381  84.716  21.114  1.00  0.00     0.275 HD
ATOM     13  H12 UNL     1      19.885  84.572  21.404  1.00  0.00     0.275 HD
ATOM     14  H11 UNL     1      18.848  83.447  22.138  1.00  0.00     0.275 HD
ENDBRANCH   9  11
ENDBRANCH   6   9
ENDBRANCH   4   5
BRANCH   4  15
HETATM   15  N3  UNL     1      16.499  83.607  26.197  1.00  0.00    -0.054 N 
ATOM     16  H33 UNL     1      16.606  82.895  26.919  1.00  0.00     0.277 HD
ATOM     17  H32 UNL     1      17.430  84.011  26.297  1.00  0.00     0.277 HD
ATOM     18  H31 UNL     1      15.739  84.265  26.369  1.00  0.00     0.277 HD
ENDBRANCH   4  15
ENDBRANCH   3   4
ENDBRANCH   1   3
BRANCH   1  19
HETATM   19  C6  UNL     1      15.480  79.839  26.471  1.00  0.00     0.217 C 
BRANCH  19  20
HETATM   20  C7  UNL     1      16.168  78.699  27.103  1.00  0.00     0.199 C 
HETATM   21  O2  UNL     1      17.406  78.619  27.058  1.00  0.00    -0.646 OA
HETATM   22  O3  UNL     1      15.450  77.722  27.746  1.00  0.00    -0.646 OA
ENDBRANCH  19  20
BRANCH  19  23
HETATM   23  C8  UNL     1      14.782  79.206  25.236  1.00  0.00     0.252 C 
BRANCH  23  24
HETATM   24  N5  UNL     1      15.613  78.057  24.889  1.00  0.00    -0.068 N 
ATOM     25  H53 UNL     1      15.169  77.156  25.064  1.00  0.00     0.275 HD
ATOM     26  H52 UNL     1      15.744  77.928  23.886  1.00  0.00     0.275 HD
ATOM     27  H51 UNL     1      16.481  78.200  25.405  1.00  0.00     0.275 HD
ENDBRANCH  23  24
BRANCH  23  28
HETATM   28  C9  UNL     1      13.401  78.827  25.487  1.00  0.00     0.008 A 
HETATM   29  C10 UNL     1      12.939  77.556  25.271  1.00  0.00     0.012 A 
HETATM   30  C11 UNL     1      11.598  77.218  25.506  1.00  0.00     0.001 A 
HETATM   31  C12 UNL     1      10.725  78.165  25.958  1.00  0.00     0.003 A 
HETATM   32  C13 UNL     1      11.176  79.445  26.178  1.00  0.00     0.037 A 
HETATM   33  C14 UNL     1      12.507  79.772  25.943  1.00  0.00     0.074 A 
BRANCH  33  34
HETATM   34  O4  UNL     1      12.884  81.085  26.190  1.00  0.00    -0.360 OA
ATOM     35  H4  UNL     1      12.247  81.772  26.343  1.00  0.00     0.217 HD
ENDBRANCH  33  34
ENDBRANCH  23  28
ENDBRANCH  19  23
ENDBRANCH   1  19
TORSDOF 12
ENDMDL
MODEL 3
REMARK VINA RESULT: -7.839104142      1.688      2.037
REMARK  12 active torsions:
REMARK  status: ('A' for Active; 'I' for Inactive)
REMARK    1  A    between atoms: C2_2  and  N1_3 
REMARK    2  A    between atoms: C2_2  and  C3_7 
REMARK       I    between atoms: C3_7  and  N2_9 
REMARK    3  A    between atoms: N2_9  and  C4_11 
REMARK    4  A    between atoms: C4_11  and  N3_12 
REMARK    5  A    between atoms: C4_11  and  C5_16 
REMARK    6  A    between atoms: C5_16  and  N4_17 
REMARK    7  A    between atoms: N4_17  and  C6_19 
REMARK    8  A    between atoms: C6_19  and  C7_20 
REMARK    9  A    between atoms: C6_19  and  C8_23 
REMARK   10  A    between atoms: C8_23  and  N5_24 
REMARK   11  A    between atoms: C8_23  and  C9_28 
REMARK   12  A    between atoms: C14_33  and  O4_34 
ROOT
HETATM    1  N4  UNL     1      16.134  80.666  25.303  1.00  0.00    -0.383 N 
ATOM      2  H4  UNL     1      17.147  80.662  25.424  1.00  0.00     0.159 HD
ENDROOT
BRANCH   1   3
HETATM    3  C5  UNL     1      15.518  81.693  24.559  1.00  0.00     0.110 C 
BRANCH   3   4
HETATM    4  C4  UNL     1      15.955  83.106  24.864  1.00  0.00     0.323 C 
BRANCH   4   5
HETATM    5  N2  UNL     1      17.178  83.355  24.109  1.00  0.00    -0.328 N 
HETATM    6  C3  UNL     1      17.603  84.690  23.907  1.00  0.00     0.249 C 
HETATM    7  O1  UNL     1      16.905  85.614  24.389  1.00  0.00    -0.271 OA
ATOM      8  H2  UNL     1      17.720  82.577  23.733  1.00  0.00     0.164 HD
BRANCH   6   9
HETATM    9  C2  UNL     1      18.821  85.049  23.160  1.00  0.00     0.270 C 
HETATM   10  C1  UNL     1      18.834  86.492  22.705  1.00  0.00     0.050 C 
BRANCH   9  11
HETATM   11  N1  UNL     1      18.949  84.198  21.997  1.00  0.00    -0.067 N 
ATOM     12  H13 UNL     1      19.823  84.351  21.494  1.00  0.00     0.275 HD
ATOM     13  H12 UNL     1      19.099  83.220  22.244  1.00  0.00     0.275 HD
ATOM     14  H11 UNL     1      18.129  84.330  21.405  1.00  0.00     0.275 HD
ENDBRANCH   9  11
ENDBRANCH   6   9
ENDBRANCH   4   5
BRANCH   4  15
HETATM   15  N3  UNL     1      16.336  83.309  26.249  1.00  0.00    -0.054 N 
ATOM     16  H33 UNL     1      17.120  82.731  26.554  1.00  0.00     0.277 HD
ATOM     17  H32 UNL     1      16.781  84.208  26.432  1.00  0.00     0.277 HD
ATOM     18  H31 UNL     1      15.476  83.155  26.776  1.00  0.00     0.277 HD
ENDBRANCH   4  15
ENDBRANCH   3   4
ENDBRANCH   1   3
BRANCH   1  19
HETATM   19  C6  UNL     1      15.348  79.640  25.884  1.00  0.00     0.217 C 
BRANCH  19  20
HETATM   20  C7  UNL     1      16.025  78.878  26.949  1.00  0.00     0.199 C 
HETATM   21  O2  UNL     1      17.242  79.027  27.140  1.00  0.00    -0.646 OA
HETATM   22  O3  UNL     1      15.319  78.003  27.735  1.00  0.00    -0.646 OA
ENDBRANCH  19  20
BRANCH  19  23
HETATM   23  C8  UNL     1      15.008  78.560  24.821  1.00  0.00     0.252 C 
BRANCH  23  24
HETATM   24  N5  UNL     1      15.972  77.490  25.058  1.00  0.00    -0.068 N 
ATOM     25  H53 UNL     1      16.157  76.909  24.241  1.00  0.00     0.275 HD
ATOM     26  H52 UNL     1      16.930  77.815  25.187  1.00  0.00     0.275 HD
ATOM     27  H51 UNL     1      15.597  76.976  25.857  1.00  0.00     0.275 HD
ENDBRANCH  23  24
BRANCH  23  28
HETATM   28  C9  UNL     1      13.635  78.088  24.899  1.00  0.00     0.008 A 
HETATM   29  C10 UNL     1      12.675  78.741  25.623  1.00  0.00     0.012 A 
HETATM   30  C11 UNL     1      11.361  78.257  25.696  1.00  0.00     0.001 A 
HETATM   31  C12 UNL     1      11.018  77.111  25.037  1.00  0.00     0.003 A 
HETATM   32  C13 UNL     1      11.974  76.444  24.307  1.00  0.00     0.037 A 
HETATM   33  C14 UNL     1      13.274  76.932  24.240  1.00  0.00     0.074 A 
BRANCH  33  34
HETATM   34  O4  UNL     1      14.180  76.201  23.483  1.00  0.00    -0.360 OA
ATOM     35  H4  UNL     1      14.850  75.660  23.882  1.00  0.00     0.217 HD
ENDBRANCH  33  34
ENDBRANCH  23  28
ENDBRANCH  19  23
ENDBRANCH   1  19
TORSDOF 12
ENDMDL
MODEL 4
REMARK VINA RESULT: -7.814514943      1.984      2.292
REMARK  12 active torsions:
REMARK  status: ('A' for Active; 'I' for Inactive)
REMARK    1  A    between atoms: C2_2  and  N1_3 
REMARK    2  A    between atoms: C2_2  and  C3_7 
REMARK       I    between atoms: C3_7  and  N2_9 
REMARK    3  A    between atoms: N2_9  and  C4_11 
REMARK    4  A    between atoms: C4_11  and  N3_12 
REMARK    5  A    between atoms: C4_11  and  C5_16 
REMARK    6  A    between atoms: C5_16  and  N4_17 
REMARK    7  A    between atoms: N4_17  and  C6_19 
REMARK    8  A    between atoms: C6_19  and  C7_20 
REMARK    9  A    between atoms: C6_19  and  C8_23 
REMARK   10  A    between atoms: C8_23  and  N5_24 
REMARK   11  A    between atoms: C8_23  and  C9_28 
REMARK   12  A    between atoms: C14_33  and  O4_34 
ROOT
HETATM    1  N4  UNL     1      15.865  79.094  24.589  1.00  0.00    -0.383 N 
ATOM      2  H4  UNL     1      16.744  78.748  24.206  1.00  0.00     0.159 HD
ENDROOT
BRANCH   1   3
HETATM    3  C5  UNL     1      15.360  80.344  24.176  1.00  0.00     0.110 C 
BRANCH   3   4
HETATM    4  C4  UNL     1      15.877  81.559  24.909  1.00  0.00     0.323 C 
BRANCH   4   5
HETATM    5  N2  UNL     1      16.525  82.416  23.923  1.00  0.00    -0.328 N 
HETATM    6  C3  UNL     1      16.852  83.748  24.277  1.00  0.00     0.249 C 
HETATM    7  O1  UNL     1      16.570  84.140  25.435  1.00  0.00    -0.271 OA
ATOM      8  H2  UNL     1      16.740  82.062  22.991  1.00  0.00     0.164 HD
BRANCH   6   9
HETATM    9  C2  UNL     1      17.506  84.695  23.357  1.00  0.00     0.270 C 
HETATM   10  C1  UNL     1      18.848  84.206  22.860  1.00  0.00     0.050 C 
BRANCH   9  11
HETATM   11  N1  UNL     1      17.696  85.967  24.020  1.00  0.00    -0.067 N 
ATOM     12  H13 UNL     1      18.384  86.554  23.550  1.00  0.00     0.275 HD
ATOM     13  H12 UNL     1      16.891  86.585  23.918  1.00  0.00     0.275 HD
ATOM     14  H11 UNL     1      17.933  85.792  24.997  1.00  0.00     0.275 HD
ENDBRANCH   9  11
ENDBRANCH   6   9
ENDBRANCH   4   5
BRANCH   4  15
HETATM   15  N3  UNL     1      16.922  81.255  25.868  1.00  0.00    -0.054 N 
ATOM     16  H33 UNL     1      17.370  82.078  26.270  1.00  0.00     0.277 HD
ATOM     17  H32 UNL     1      16.580  80.872  26.749  1.00  0.00     0.277 HD
ATOM     18  H31 UNL     1      17.559  80.637  25.365  1.00  0.00     0.277 HD
ENDBRANCH   4  15
ENDBRANCH   3   4
ENDBRANCH   1   3
BRANCH   1  19
HETATM   19  C6  UNL     1      15.152  78.318  25.536  1.00  0.00     0.217 C 
BRANCH  19  20
HETATM   20  C7  UNL     1      15.989  77.717  26.591  1.00  0.00     0.199 C 
HETATM   21  O2  UNL     1      15.505  77.486  27.710  1.00  0.00    -0.646 OA
HETATM   22  O3  UNL     1      17.303  77.408  26.346  1.00  0.00    -0.646 OA
ENDBRANCH  19  20
BRANCH  19  23
HETATM   23  C8  UNL     1      14.502  77.090  24.842  1.00  0.00     0.252 C 
BRANCH  23  24
HETATM   24  N5  UNL     1      15.167  75.933  25.435  1.00  0.00    -0.068 N 
ATOM     25  H53 UNL     1      16.122  76.116  25.742  1.00  0.00     0.275 HD
ATOM     26  H52 UNL     1      14.802  75.668  26.349  1.00  0.00     0.275 HD
ATOM     27  H51 UNL     1      15.091  75.201  24.729  1.00  0.00     0.275 HD
ENDBRANCH  23  24
BRANCH  23  28
HETATM   28  C9  UNL     1      13.059  77.034  25.004  1.00  0.00     0.008 A 
HETATM   29  C10 UNL     1      12.387  77.839  25.885  1.00  0.00     0.012 A 
HETATM   30  C11 UNL     1      10.996  77.755  26.035  1.00  0.00     0.001 A 
HETATM   31  C12 UNL     1      10.283  76.856  25.296  1.00  0.00     0.003 A 
HETATM   32  C13 UNL     1      10.944  76.040  24.409  1.00  0.00     0.037 A 
HETATM   33  C14 UNL     1      12.325  76.130  24.266  1.00  0.00     0.074 A 
BRANCH  33  34
HETATM   34  O4  UNL     1      12.918  75.272  23.349  1.00  0.00    -0.360 OA
ATOM     35  H4  UNL     1      12.424  74.601  22.894  1.00  0.00     0.217 HD
ENDBRANCH  33  34
ENDBRANCH  23  28
ENDBRANCH  19  23
ENDBRANCH   1  19
TORSDOF 12
ENDMDL
MODEL 5
REMARK VINA RESULT: -7.813779756      2.383      7.790
REMARK  12 active torsions:
REMARK  status: ('A' for Active; 'I' for Inactive)
REMARK    1  A    between atoms: C2_2  and  N1_3 
REMARK    2  A    between atoms: C2_2  and  C3_7 
REMARK       I    between atoms: C3_7  and  N2_9 
REMARK    3  A    between atoms: N2_9  and  C4_11 
REMARK    4  A    between atoms: C4_11  and  N3_12 
REMARK    5  A    between atoms: C4_11  and  C5_16 
REMARK    6  A    between atoms: C5_16  and  N4_17 
REMARK    7  A    between atoms: N4_17  and  C6_19 
REMARK    8  A    between atoms: C6_19  and  C7_20 
REMARK    9  A    between atoms: C6_19  and  C8_23 
REMARK   10  A    between atoms: C8_23  and  N5_24 
REMARK   11  A    between atoms: C8_23  and  C9_28 
REMARK   12  A    between atoms: C14_33  and  O4_34 
ROOT
HETATM    1  N4  UNL     1      16.100  81.856  26.499  1.00  0.00    -0.383 N 
ATOM      2  H4  UNL     1      15.855  82.077  27.464  1.00  0.00     0.159 HD
ENDROOT
BRANCH   1   3
HETATM    3  C5  UNL     1      16.772  80.654  26.200  1.00  0.00     0.110 C 
BRANCH   3   4
HETATM    4  C4  UNL     1      16.108  79.375  26.654  1.00  0.00     0.323 C 
BRANCH   4   5
HETATM    5  N2  UNL     1      15.896  78.552  25.469  1.00  0.00    -0.328 N 
HETATM    6  C3  UNL     1      15.725  77.155  25.623  1.00  0.00     0.249 C 
HETATM    7  O1  UNL     1      15.763  76.677  26.782  1.00  0.00    -0.271 OA
ATOM      8  H2  UNL     1      15.870  78.978  24.542  1.00  0.00     0.164 HD
BRANCH   6   9
HETATM    9  C2  UNL     1      15.505  76.235  24.493  1.00  0.00     0.270 C 
HETATM   10  C1  UNL     1      14.047  75.899  24.278  1.00  0.00     0.050 C 
BRANCH   9  11
HETATM   11  N1  UNL     1      16.234  75.005  24.716  1.00  0.00    -0.067 N 
ATOM     12  H13 UNL     1      16.623  74.946  25.657  1.00  0.00     0.275 HD
ATOM     13  H12 UNL     1      15.621  74.192  24.766  1.00  0.00     0.275 HD
ATOM     14  H11 UNL     1      16.947  74.914  23.992  1.00  0.00     0.275 HD
ENDBRANCH   9  11
ENDBRANCH   6   9
ENDBRANCH   4   5
BRANCH   4  15
HETATM   15  N3  UNL     1      14.779  79.576  27.200  1.00  0.00    -0.054 N 
ATOM     16  H33 UNL     1      14.157  80.112  26.595  1.00  0.00     0.277 HD
ATOM     17  H32 UNL     1      14.208  78.731  27.227  1.00  0.00     0.277 HD
ATOM     18  H31 UNL     1      14.939  79.999  28.114  1.00  0.00     0.277 HD
ENDBRANCH   4  15
ENDBRANCH   3   4
ENDBRANCH   1   3
BRANCH   1  19
HETATM   19  C6  UNL     1      15.763  82.759  25.460  1.00  0.00     0.217 C 
BRANCH  19  20
HETATM   20  C7  UNL     1      14.535  82.415  24.722  1.00  0.00     0.199 C 
HETATM   21  O2  UNL     1      13.908  83.298  24.115  1.00  0.00    -0.646 OA
HETATM   22  O3  UNL     1      14.076  81.122  24.697  1.00  0.00    -0.646 OA
ENDBRANCH  19  20
BRANCH  19  23
HETATM   23  C8  UNL     1      16.864  82.750  24.365  1.00  0.00     0.252 C 
BRANCH  23  24
HETATM   24  N5  UNL     1      16.243  82.087  23.222  1.00  0.00    -0.068 N 
ATOM     25  H53 UNL     1      15.254  82.304  23.103  1.00  0.00     0.275 HD
ATOM     26  H52 UNL     1      16.548  82.446  22.317  1.00  0.00     0.275 HD
ATOM     27  H51 UNL     1      16.437  81.095  23.361  1.00  0.00     0.275 HD
ENDBRANCH  23  24
BRANCH  23  28
HETATM   28  C9  UNL     1      17.354  84.076  24.028  1.00  0.00     0.008 A 
HETATM   29  C10 UNL     1      16.843  85.213  24.596  1.00  0.00     0.012 A 
HETATM   30  C11 UNL     1      17.322  86.482  24.243  1.00  0.00     0.001 A 
HETATM   31  C12 UNL     1      18.316  86.604  23.315  1.00  0.00     0.003 A 
HETATM   32  C13 UNL     1      18.837  85.470  22.736  1.00  0.00     0.037 A 
HETATM   33  C14 UNL     1      18.356  84.215  23.092  1.00  0.00     0.074 A 
BRANCH  33  34
HETATM   34  O4  UNL     1      18.934  83.121  22.463  1.00  0.00    -0.360 OA
ATOM     35  H4  UNL     1      19.616  83.217  21.809  1.00  0.00     0.217 HD
ENDBRANCH  33  34
ENDBRANCH  23  28
ENDBRANCH  19  23
ENDBRANCH   1  19
TORSDOF 12
ENDMDL
