MODEL 1
REMARK VINA RESULT: -7.076990843      0.000      0.000
REMARK  12 active torsions:
REMARK  status: ('A' for Active; 'I' for Inactive)
REMARK    1  A    between atoms: C2_2  and  N1_3 
REMARK    2  A    between atoms: N1_3  and  C3_4 
REMARK    3  A    between atoms: N1_3  and  N2_6 
REMARK    4  A    between atoms: N2_6  and  C5_8 
REMARK    5  A    between atoms: C5_8  and  O1_9 
REMARK    6  A    between atoms: C5_8  and  N3_11 
REMARK    7  A    between atoms: N3_11  and  C6_13 
REMARK    8  A    between atoms: C6_13  and  O2_14 
REMARK    9  A    between atoms: C6_13  and  N4_16 
REMARK   10  A    between atoms: N4_16  and  C7_18 
REMARK   11  A    between atoms: C8_21  and  N6_22 
REMARK   12  A    between atoms: N6_22  and  N7_23 
ROOT
HETATM    1  C6  UNL     1      18.021  76.319  27.678  1.00  0.00     0.227 C 
ENDROOT
BRANCH   1   2
HETATM    2  N3  UNL     1      17.069  77.286  27.447  1.00  0.00    -0.287 N 
ATOM      3  H3  UNL     1      17.448  78.231  27.498  1.00  0.00     0.173 HD
BRANCH   2   4
HETATM    4  C5  UNL     1      15.709  77.268  27.161  1.00  0.00     0.239 C 
BRANCH   4   5
HETATM    5  N2  UNL     1      14.717  78.220  27.407  1.00  0.00    -0.267 N 
ATOM      6  H2  UNL     1      14.155  78.159  28.256  1.00  0.00     0.190 HD
BRANCH   5   7
HETATM    7  N1  UNL     1      14.491  79.261  26.493  1.00  0.00    -0.326 N 
BRANCH   7   8
HETATM    8  C2  UNL     1      13.161  79.383  26.030  1.00  0.00     0.138 C 
HETATM    9  C1  UNL     1      13.014  78.540  24.772  1.00  0.00     0.028 C 
ENDBRANCH   7   8
BRANCH   7  10
HETATM   10  C3  UNL     1      15.210  80.442  26.784  1.00  0.00     0.138 C 
HETATM   11  C4  UNL     1      15.150  81.522  25.744  1.00  0.00     0.028 C 
ENDBRANCH   7  10
ENDBRANCH   5   7
ENDBRANCH   4   5
BRANCH   4  12
HETATM   12  O1  UNL     1      15.250  76.195  26.566  1.00  0.00    -0.331 OA
ATOM     13  H1  UNL     1      15.572  75.389  26.954  1.00  0.00     0.221 HD
ENDBRANCH   4  12
ENDBRANCH   2   4
ENDBRANCH   1   2
BRANCH   1  14
HETATM   14  O2  UNL     1      19.184  76.807  28.054  1.00  0.00    -0.332 OA
ATOM     15  H2  UNL     1      19.911  76.503  27.524  1.00  0.00     0.221 HD
ENDBRANCH   1  14
BRANCH   1  16
HETATM   16  N4  UNL     1      17.935  74.918  27.575  1.00  0.00    -0.293 N 
ATOM     17  H4  UNL     1      17.703  74.372  28.404  1.00  0.00     0.172 HD
BRANCH  16  18
HETATM   18  C7  UNL     1      18.164  74.240  26.334  1.00  0.00     0.196 C 
HETATM   19  N5  UNL     1      17.183  74.064  25.446  1.00  0.00    -0.327 N 
HETATM   20  C8  UNL     1      17.679  73.362  24.305  1.00  0.00     0.313 C 
ATOM     21  H5  UNL     1      16.222  74.384  25.565  1.00  0.00     0.165 HD
HETATM   22  N8  UNL     1      19.024  72.940  24.635  1.00  0.00    -0.094 NA
HETATM   23  N9  UNL     1      19.334  73.681  25.812  1.00  0.00    -0.272 N 
ATOM     24  H9  UNL     1      20.266  73.787  26.213  1.00  0.00     0.185 HD
BRANCH  20  25
HETATM   25  N6  UNL     1      17.736  74.201  23.122  1.00  0.00    -0.103 NA
BRANCH  25  26
HETATM   26  N7  UNL     1      17.724  73.367  21.999  1.00  0.00    -0.345 N 
ATOM     27  H72 UNL     1      18.489  72.757  21.711  1.00  0.00     0.172 HD
ATOM     28  H71 UNL     1      16.824  73.481  21.531  1.00  0.00     0.172 HD
ENDBRANCH  25  26
ENDBRANCH  20  25
ENDBRANCH  16  18
ENDBRANCH   1  16
TORSDOF 12
ENDMDL
MODEL 2
REMARK VINA RESULT: -7.031406504      0.930      1.014
REMARK  12 active torsions:
REMARK  status: ('A' for Active; 'I' for Inactive)
REMARK    1  A    between atoms: C2_2  and  N1_3 
REMARK    2  A    between atoms: N1_3  and  C3_4 
REMARK    3  A    between atoms: N1_3  and  N2_6 
REMARK    4  A    between atoms: N2_6  and  C5_8 
REMARK    5  A    between atoms: C5_8  and  O1_9 
REMARK    6  A    between atoms: C5_8  and  N3_11 
REMARK    7  A    between atoms: N3_11  and  C6_13 
REMARK    8  A    between atoms: C6_13  and  O2_14 
REMARK    9  A    between atoms: C6_13  and  N4_16 
REMARK   10  A    between atoms: N4_16  and  C7_18 
REMARK   11  A    between atoms: C8_21  and  N6_22 
REMARK   12  A    between atoms: N6_22  and  N7_23 
ROOT
HETATM    1  C6  UNL     1      17.886  76.019  27.586  1.00  0.00     0.227 C 
ENDROOT
BRANCH   1   2
HETATM    2  N3  UNL     1      16.839  76.894  27.409  1.00  0.00    -0.287 N 
ATOM      3  H3  UNL     1      16.225  76.942  28.221  1.00  0.00     0.173 HD
BRANCH   2   4
HETATM    4  C5  UNL     1      16.427  77.728  26.375  1.00  0.00     0.239 C 
BRANCH   4   5
HETATM    5  N2  UNL     1      16.279  79.115  26.333  1.00  0.00    -0.267 N 
ATOM      6  H2  UNL     1      16.975  79.713  26.778  1.00  0.00     0.190 HD
BRANCH   5   7
HETATM    7  N1  UNL     1      15.178  79.692  25.682  1.00  0.00    -0.326 N 
BRANCH   7   8
HETATM    8  C2  UNL     1      14.012  79.834  26.470  1.00  0.00     0.138 C 
HETATM    9  C1  UNL     1      12.886  79.063  25.800  1.00  0.00     0.028 C 
ENDBRANCH   7   8
BRANCH   7  10
HETATM   10  C3  UNL     1      15.522  80.740  24.799  1.00  0.00     0.138 C 
HETATM   11  C4  UNL     1      14.985  82.097  25.148  1.00  0.00     0.028 C 
ENDBRANCH   7  10
ENDBRANCH   5   7
ENDBRANCH   4   5
BRANCH   4  12
HETATM   12  O1  UNL     1      16.115  77.146  25.243  1.00  0.00    -0.331 OA
ATOM     13  H1  UNL     1      16.727  76.462  24.998  1.00  0.00     0.221 HD
ENDBRANCH   4  12
ENDBRANCH   2   4
ENDBRANCH   1   2
BRANCH   1  14
HETATM   14  O2  UNL     1      19.023  76.614  27.877  1.00  0.00    -0.332 OA
ATOM     15  H2  UNL     1      19.049  76.970  28.757  1.00  0.00     0.221 HD
ENDBRANCH   1  14
BRANCH   1  16
HETATM   16  N4  UNL     1      17.918  74.614  27.504  1.00  0.00    -0.293 N 
ATOM     17  H4  UNL     1      17.868  74.065  28.362  1.00  0.00     0.172 HD
BRANCH  16  18
HETATM   18  C7  UNL     1      18.019  73.936  26.246  1.00  0.00     0.196 C 
HETATM   19  N5  UNL     1      17.111  74.117  25.285  1.00  0.00    -0.327 N 
HETATM   20  C8  UNL     1      17.446  73.326  24.143  1.00  0.00     0.313 C 
ATOM     21  H5  UNL     1      16.298  74.728  25.355  1.00  0.00     0.165 HD
HETATM   22  N8  UNL     1      18.552  72.479  24.540  1.00  0.00    -0.094 NA
HETATM   23  N9  UNL     1      18.985  73.043  25.775  1.00  0.00    -0.272 N 
ATOM     24  H9  UNL     1      19.865  72.828  26.244  1.00  0.00     0.185 HD
BRANCH  20  25
HETATM   25  N6  UNL     1      17.868  74.136  23.015  1.00  0.00    -0.103 NA
BRANCH  25  26
HETATM   26  N7  UNL     1      17.761  73.357  21.859  1.00  0.00    -0.345 N 
ATOM     27  H72 UNL     1      17.519  72.367  21.837  1.00  0.00     0.172 HD
ATOM     28  H71 UNL     1      17.967  73.953  21.056  1.00  0.00     0.172 HD
ENDBRANCH  25  26
ENDBRANCH  20  25
ENDBRANCH  16  18
ENDBRANCH   1  16
TORSDOF 12
ENDMDL
MODEL 3
REMARK VINA RESULT: -7.023552055      1.367      1.593
REMARK  12 active torsions:
REMARK  status: ('A' for Active; 'I' for Inactive)
REMARK    1  A    between atoms: C2_2  and  N1_3 
REMARK    2  A    between atoms: N1_3  and  C3_4 
REMARK    3  A    between atoms: N1_3  and  N2_6 
REMARK    4  A    between atoms: N2_6  and  C5_8 
REMARK    5  A    between atoms: C5_8  and  O1_9 
REMARK    6  A    between atoms: C5_8  and  N3_11 
REMARK    7  A    between atoms: N3_11  and  C6_13 
REMARK    8  A    between atoms: C6_13  and  O2_14 
REMARK    9  A    between atoms: C6_13  and  N4_16 
REMARK   10  A    between atoms: N4_16  and  C7_18 
REMARK   11  A    between atoms: C8_21  and  N6_22 
REMARK   12  A    between atoms: N6_22  and  N7_23 
ROOT
HETATM    1  C6  UNL     1      16.975  76.347  27.661  1.00  0.00     0.227 C 
ENDROOT
BRANCH   1   2
HETATM    2  N3  UNL     1      16.941  77.492  26.898  1.00  0.00    -0.287 N 
ATOM      3  H3  UNL     1      17.525  77.427  26.065  1.00  0.00     0.173 HD
BRANCH   2   4
HETATM    4  C5  UNL     1      16.292  78.717  27.003  1.00  0.00     0.239 C 
BRANCH   4   5
HETATM    5  N2  UNL     1      14.940  79.014  27.189  1.00  0.00    -0.267 N 
ATOM      6  H2  UNL     1      14.626  79.414  28.073  1.00  0.00     0.190 HD
BRANCH   5   7
HETATM    7  N1  UNL     1      14.012  78.767  26.166  1.00  0.00    -0.326 N 
BRANCH   7   8
HETATM    8  C2  UNL     1      13.307  77.546  26.268  1.00  0.00     0.138 C 
HETATM    9  C1  UNL     1      13.784  76.624  25.157  1.00  0.00     0.028 C 
ENDBRANCH   7   8
BRANCH   7  10
HETATM   10  C3  UNL     1      13.305  79.916  25.746  1.00  0.00     0.138 C 
HETATM   11  C4  UNL     1      14.087  80.913  24.942  1.00  0.00     0.028 C 
ENDBRANCH   7  10
ENDBRANCH   5   7
ENDBRANCH   4   5
BRANCH   4  12
HETATM   12  O1  UNL     1      17.042  79.787  26.914  1.00  0.00    -0.331 OA
ATOM     13  H1  UNL     1      17.202  80.199  27.756  1.00  0.00     0.221 HD
ENDBRANCH   4  12
ENDBRANCH   2   4
ENDBRANCH   1   2
BRANCH   1  14
HETATM   14  O2  UNL     1      15.977  76.256  28.514  1.00  0.00    -0.332 OA
ATOM     15  H2  UNL     1      16.192  76.571  29.384  1.00  0.00     0.221 HD
ENDBRANCH   1  14
BRANCH   1  16
HETATM   16  N4  UNL     1      17.898  75.285  27.662  1.00  0.00    -0.293 N 
ATOM     17  H4  UNL     1      18.351  75.020  28.537  1.00  0.00     0.172 HD
BRANCH  16  18
HETATM   18  C7  UNL     1      18.217  74.565  26.465  1.00  0.00     0.196 C 
HETATM   19  N5  UNL     1      17.269  74.210  25.595  1.00  0.00    -0.327 N 
HETATM   20  C8  UNL     1      17.855  73.506  24.498  1.00  0.00     0.313 C 
ATOM     21  H5  UNL     1      16.275  74.410  25.698  1.00  0.00     0.165 HD
HETATM   22  N8  UNL     1      19.243  73.282  24.847  1.00  0.00    -0.094 NA
HETATM   23  N9  UNL     1      19.450  74.129  25.974  1.00  0.00    -0.272 N 
ATOM     24  H9  UNL     1      20.360  74.379  26.363  1.00  0.00     0.185 HD
BRANCH  20  25
HETATM   25  N6  UNL     1      17.808  74.269  23.264  1.00  0.00    -0.103 NA
BRANCH  25  26
HETATM   26  N7  UNL     1      17.771  73.366  22.197  1.00  0.00    -0.345 N 
ATOM     27  H72 UNL     1      18.492  73.270  21.482  1.00  0.00     0.172 HD
ATOM     28  H71 UNL     1      16.905  72.832  22.267  1.00  0.00     0.172 HD
ENDBRANCH  25  26
ENDBRANCH  20  25
ENDBRANCH  16  18
ENDBRANCH   1  16
TORSDOF 12
ENDMDL
MODEL 4
REMARK VINA RESULT: -7.016969905      0.643      1.574
REMARK  12 active torsions:
REMARK  status: ('A' for Active; 'I' for Inactive)
REMARK    1  A    between atoms: C2_2  and  N1_3 
REMARK    2  A    between atoms: N1_3  and  C3_4 
REMARK    3  A    between atoms: N1_3  and  N2_6 
REMARK    4  A    between atoms: N2_6  and  C5_8 
REMARK    5  A    between atoms: C5_8  and  O1_9 
REMARK    6  A    between atoms: C5_8  and  N3_11 
REMARK    7  A    between atoms: N3_11  and  C6_13 
REMARK    8  A    between atoms: C6_13  and  O2_14 
REMARK    9  A    between atoms: C6_13  and  N4_16 
REMARK   10  A    between atoms: N4_16  and  C7_18 
REMARK   11  A    between atoms: C8_21  and  N6_22 
REMARK   12  A    between atoms: N6_22  and  N7_23 
ROOT
HETATM    1  C6  UNL     1      18.090  76.161  27.624  1.00  0.00     0.227 C 
ENDROOT
BRANCH   1   2
HETATM    2  N3  UNL     1      17.128  77.108  27.351  1.00  0.00    -0.287 N 
ATOM      3  H3  UNL     1      17.203  77.929  27.951  1.00  0.00     0.173 HD
BRANCH   2   4
HETATM    4  C5  UNL     1      16.078  77.200  26.444  1.00  0.00     0.239 C 
BRANCH   4   5
HETATM    5  N2  UNL     1      15.760  78.201  25.524  1.00  0.00    -0.267 N 
ATOM      6  H2  UNL     1      16.113  78.143  24.569  1.00  0.00     0.190 HD
BRANCH   5   7
HETATM    7  N1  UNL     1      14.955  79.285  25.906  1.00  0.00    -0.326 N 
BRANCH   7   8
HETATM    8  C2  UNL     1      15.650  80.479  26.208  1.00  0.00     0.138 C 
HETATM    9  C1  UNL     1      15.280  81.524  25.167  1.00  0.00     0.028 C 
ENDBRANCH   7   8
BRANCH   7  10
HETATM   10  C3  UNL     1      13.744  79.379  25.184  1.00  0.00     0.138 C 
HETATM   11  C4  UNL     1      12.501  78.998  25.932  1.00  0.00     0.028 C 
ENDBRANCH   7  10
ENDBRANCH   5   7
ENDBRANCH   4   5
BRANCH   4  12
HETATM   12  O1  UNL     1      15.229  76.203  26.429  1.00  0.00    -0.331 OA
ATOM     13  H1  UNL     1      14.984  75.912  27.300  1.00  0.00     0.221 HD
ENDBRANCH   4  12
ENDBRANCH   2   4
ENDBRANCH   1   2
BRANCH   1  14
HETATM   14  O2  UNL     1      19.220  76.673  28.061  1.00  0.00    -0.332 OA
ATOM     15  H2  UNL     1      19.464  76.368  28.927  1.00  0.00     0.221 HD
ENDBRANCH   1  14
BRANCH   1  16
HETATM   16  N4  UNL     1      18.041  74.759  27.508  1.00  0.00    -0.293 N 
ATOM     17  H4  UNL     1      17.875  74.197  28.342  1.00  0.00     0.172 HD
BRANCH  16  18
HETATM   18  C7  UNL     1      18.217  74.102  26.247  1.00  0.00     0.196 C 
HETATM   19  N5  UNL     1      17.203  73.960  25.390  1.00  0.00    -0.327 N 
HETATM   20  C8  UNL     1      17.648  73.273  24.219  1.00  0.00     0.313 C 
ATOM     21  H5  UNL     1      16.252  74.292  25.548  1.00  0.00     0.165 HD
HETATM   22  N8  UNL     1      18.997  72.823  24.494  1.00  0.00    -0.094 NA
HETATM   23  N9  UNL     1      19.359  73.536  25.675  1.00  0.00    -0.272 N 
ATOM     24  H9  UNL     1      20.306  73.620  26.045  1.00  0.00     0.185 HD
BRANCH  20  25
HETATM   25  N6  UNL     1      17.679  74.134  23.051  1.00  0.00    -0.103 NA
BRANCH  25  26
HETATM   26  N7  UNL     1      17.688  73.321  21.914  1.00  0.00    -0.345 N 
ATOM     27  H72 UNL     1      18.046  72.366  21.876  1.00  0.00     0.172 HD
ATOM     28  H71 UNL     1      17.278  73.850  21.144  1.00  0.00     0.172 HD
ENDBRANCH  25  26
ENDBRANCH  20  25
ENDBRANCH  16  18
ENDBRANCH   1  16
TORSDOF 12
ENDMDL
MODEL 5
REMARK VINA RESULT: -6.980418229      1.544      2.332
REMARK  12 active torsions:
REMARK  status: ('A' for Active; 'I' for Inactive)
REMARK    1  A    between atoms: C2_2  and  N1_3 
REMARK    2  A    between atoms: N1_3  and  C3_4 
REMARK    3  A    between atoms: N1_3  and  N2_6 
REMARK    4  A    between atoms: N2_6  and  C5_8 
REMARK    5  A    between atoms: C5_8  and  O1_9 
REMARK    6  A    between atoms: C5_8  and  N3_11 
REMARK    7  A    between atoms: N3_11  and  C6_13 
REMARK    8  A    between atoms: C6_13  and  O2_14 
REMARK    9  A    between atoms: C6_13  and  N4_16 
REMARK   10  A    between atoms: N4_16  and  C7_18 
REMARK   11  A    between atoms: C8_21  and  N6_22 
REMARK   12  A    between atoms: N6_22  and  N7_23 
ROOT
HETATM    1  C6  UNL     1      18.731  74.571  27.016  1.00  0.00     0.227 C 
ENDROOT
BRANCH   1   2
HETATM    2  N3  UNL     1      18.327  75.726  27.647  1.00  0.00    -0.287 N 
ATOM      3  H3  UNL     1      19.075  76.162  28.186  1.00  0.00     0.173 HD
BRANCH   2   4
HETATM    4  C5  UNL     1      17.133  76.434  27.717  1.00  0.00     0.239 C 
BRANCH   4   5
HETATM    5  N2  UNL     1      16.637  77.458  26.907  1.00  0.00    -0.267 N 
ATOM      6  H2  UNL     1      17.284  78.073  26.413  1.00  0.00     0.190 HD
BRANCH   5   7
HETATM    7  N1  UNL     1      15.253  77.645  26.768  1.00  0.00    -0.326 N 
BRANCH   7   8
HETATM    8  C2  UNL     1      14.797  78.969  26.966  1.00  0.00     0.138 C 
HETATM    9  C1  UNL     1      15.975  79.912  26.781  1.00  0.00     0.028 C 
ENDBRANCH   7   8
BRANCH   7  10
HETATM   10  C3  UNL     1      14.676  76.886  25.726  1.00  0.00     0.138 C 
HETATM   11  C4  UNL     1      14.942  77.373  24.332  1.00  0.00     0.028 C 
ENDBRANCH   7  10
ENDBRANCH   5   7
ENDBRANCH   4   5
BRANCH   4  12
HETATM   12  O1  UNL     1      16.320  76.116  28.693  1.00  0.00    -0.331 OA
ATOM     13  H1  UNL     1      15.660  75.483  28.434  1.00  0.00     0.221 HD
ENDBRANCH   4  12
ENDBRANCH   2   4
ENDBRANCH   1   2
BRANCH   1  14
HETATM   14  O2  UNL     1      20.028  74.517  26.799  1.00  0.00    -0.332 OA
ATOM     15  H2  UNL     1      20.496  75.279  27.120  1.00  0.00     0.221 HD
ENDBRANCH   1  14
BRANCH   1  16
HETATM   16  N4  UNL     1      17.978  73.464  26.581  1.00  0.00    -0.293 N 
ATOM     17  H4  UNL     1      17.362  72.991  27.243  1.00  0.00     0.172 HD
BRANCH  16  18
HETATM   18  C7  UNL     1      18.053  72.986  25.233  1.00  0.00     0.196 C 
HETATM   19  N5  UNL     1      17.054  73.181  24.370  1.00  0.00    -0.327 N 
HETATM   20  C8  UNL     1      17.385  72.606  23.104  1.00  0.00     0.313 C 
ATOM     21  H5  UNL     1      16.183  73.668  24.582  1.00  0.00     0.165 HD
HETATM   22  N8  UNL     1      18.611  71.861  23.299  1.00  0.00    -0.094 NA
HETATM   23  N9  UNL     1      19.075  72.299  24.574  1.00  0.00    -0.272 N 
ATOM     24  H9  UNL     1      20.010  72.135  24.948  1.00  0.00     0.185 HD
BRANCH  20  25
HETATM   25  N6  UNL     1      17.615  73.613  22.084  1.00  0.00    -0.103 NA
BRANCH  25  26
HETATM   26  N7  UNL     1      17.487  72.999  20.834  1.00  0.00    -0.345 N 
ATOM     27  H72 UNL     1      17.272  72.013  20.682  1.00  0.00     0.172 HD
ATOM     28  H71 UNL     1      17.646  73.706  20.117  1.00  0.00     0.172 HD
ENDBRANCH  25  26
ENDBRANCH  20  25
ENDBRANCH  16  18
ENDBRANCH   1  16
TORSDOF 12
ENDMDL
