MODEL 1
REMARK VINA RESULT: -7.559037684      0.000      0.000
REMARK  7 active torsions:
REMARK  status: ('A' for Active; 'I' for Inactive)
REMARK    1  A    between atoms: O1_2  and  C2_3 
REMARK    2  A    between atoms: C2_3  and  N2_7 
REMARK    3  A    between atoms: N2_7  and  C3_9 
REMARK    4  A    between atoms: C4_10  and  C5_11 
REMARK    5  A    between atoms: C6_14  and  S1_15 
REMARK    6  A    between atoms: S1_15  and  C7_16 
REMARK    7  A    between atoms: C8_20  and  N4_21 
ROOT
HETATM    1  C3  UNL     1      15.358  78.066  25.097  1.00  0.00     0.121 C 
HETATM    2  C4  UNL     1      15.548  77.210  26.074  1.00  0.00     0.095 C 
HETATM    3  C6  UNL     1      14.895  76.112  25.381  1.00  0.00     0.193 C 
HETATM    4  N5  UNL     1      14.450  77.183  24.450  1.00  0.00    -0.358 N 
ATOM      5  H5  UNL     1      13.783  77.254  23.682  1.00  0.00     0.162 HD
ENDROOT
BRANCH   3   6
HETATM    6  S1  UNL     1      15.884  74.910  24.477  1.00  0.00    -0.079 SA
BRANCH   6   7
HETATM    7  C7  UNL     1      17.008  73.915  25.399  1.00  0.00     0.396 C 
HETATM    8  N3  UNL     1      17.016  72.487  25.228  1.00  0.00     0.013 N 
HETATM    9  C8  UNL     1      17.975  72.739  24.187  1.00  0.00     0.528 C 
ATOM     10  H32 UNL     1      17.209  71.849  26.000  1.00  0.00     0.286 HD
ATOM     11  H31 UNL     1      16.162  71.956  25.062  1.00  0.00     0.286 HD
HETATM   12  O4  UNL     1      18.291  73.937  24.795  1.00  0.00    -0.296 OA
BRANCH   9  13
HETATM   13  N4  UNL     1      19.119  71.813  24.200  1.00  0.00    -0.027 N 
ATOM     14  H43 UNL     1      19.873  72.179  24.782  1.00  0.00     0.279 HD
ATOM     15  H42 UNL     1      18.893  70.969  24.726  1.00  0.00     0.279 HD
ATOM     16  H41 UNL     1      19.465  71.576  23.271  1.00  0.00     0.279 HD
ENDBRANCH   9  13
ENDBRANCH   6   7
ENDBRANCH   3   6
BRANCH   2  17
HETATM   17  C5  UNL     1      16.264  77.321  27.335  1.00  0.00     0.212 C 
HETATM   18  O2  UNL     1      17.097  78.249  27.542  1.00  0.00    -0.644 OA
HETATM   19  O3  UNL     1      16.076  76.422  28.390  1.00  0.00    -0.644 OA
ENDBRANCH   2  17
BRANCH   1  20
HETATM   20  N2  UNL     1      15.700  79.408  24.735  1.00  0.00    -0.308 N 
ATOM     21  H2  UNL     1      16.300  79.571  23.926  1.00  0.00     0.171 HD
BRANCH  20  22
HETATM   22  C2  UNL     1      15.217  80.516  25.481  1.00  0.00     0.218 C 
HETATM   23  N1  UNL     1      15.781  80.798  26.584  1.00  0.00    -0.365 N 
ATOM     24  H12 UNL     1      15.434  81.593  27.120  1.00  0.00     0.159 HD
ATOM     25  H11 UNL     1      16.560  80.212  26.884  1.00  0.00     0.159 HD
BRANCH  22  26
HETATM   26  O1  UNL     1      14.157  81.314  25.073  1.00  0.00    -0.327 OA
HETATM   27  C1  UNL     1      14.410  82.563  24.406  1.00  0.00     0.213 C 
ENDBRANCH  22  26
ENDBRANCH  20  22
ENDBRANCH   1  20
TORSDOF 7
ENDMDL
MODEL 2
REMARK VINA RESULT: -7.273025441      3.109      6.265
REMARK  7 active torsions:
REMARK  status: ('A' for Active; 'I' for Inactive)
REMARK    1  A    between atoms: O1_2  and  C2_3 
REMARK    2  A    between atoms: C2_3  and  N2_7 
REMARK    3  A    between atoms: N2_7  and  C3_9 
REMARK    4  A    between atoms: C4_10  and  C5_11 
REMARK    5  A    between atoms: C6_14  and  S1_15 
REMARK    6  A    between atoms: S1_15  and  C7_16 
REMARK    7  A    between atoms: C8_20  and  N4_21 
ROOT
HETATM    1  C3  UNL     1      13.061  76.942  25.465  1.00  0.00     0.121 C 
HETATM    2  C4  UNL     1      12.193  77.707  24.844  1.00  0.00     0.095 C 
HETATM    3  C6  UNL     1      12.157  78.705  25.900  1.00  0.00     0.193 C 
HETATM    4  N5  UNL     1      12.894  77.670  26.675  1.00  0.00    -0.358 N 
ATOM      5  H5  UNL     1      13.162  77.540  27.651  1.00  0.00     0.162 HD
ENDROOT
BRANCH   3   6
HETATM    6  S1  UNL     1      13.172  80.185  25.768  1.00  0.00    -0.079 SA
BRANCH   6   7
HETATM    7  C7  UNL     1      14.863  79.980  25.317  1.00  0.00     0.396 C 
HETATM    8  N3  UNL     1      15.845  80.941  25.740  1.00  0.00     0.013 N 
HETATM    9  C8  UNL     1      15.977  80.112  26.907  1.00  0.00     0.528 C 
ATOM     10  H32 UNL     1      16.645  81.191  25.159  1.00  0.00     0.286 HD
ATOM     11  H31 UNL     1      15.637  81.937  25.803  1.00  0.00     0.286 HD
HETATM   12  O4  UNL     1      15.491  79.045  26.180  1.00  0.00    -0.296 OA
BRANCH   9  13
HETATM   13  N4  UNL     1      17.373  79.889  27.318  1.00  0.00    -0.027 N 
ATOM     14  H43 UNL     1      17.473  78.984  27.779  1.00  0.00     0.279 HD
ATOM     15  H42 UNL     1      17.968  79.733  26.505  1.00  0.00     0.279 HD
ATOM     16  H41 UNL     1      17.751  80.634  27.903  1.00  0.00     0.279 HD
ENDBRANCH   9  13
ENDBRANCH   6   7
ENDBRANCH   3   6
BRANCH   2  17
HETATM   17  C5  UNL     1      11.594  77.618  23.522  1.00  0.00     0.212 C 
HETATM   18  O2  UNL     1      10.744  78.464  23.124  1.00  0.00    -0.644 OA
HETATM   19  O3  UNL     1      11.920  76.604  22.614  1.00  0.00    -0.644 OA
ENDBRANCH   2  17
BRANCH   1  20
HETATM   20  N2  UNL     1      13.829  75.755  25.244  1.00  0.00    -0.308 N 
ATOM     21  H2  UNL     1      13.532  74.878  25.673  1.00  0.00     0.171 HD
BRANCH  20  22
HETATM   22  C2  UNL     1      14.999  75.776  24.438  1.00  0.00     0.218 C 
HETATM   23  N1  UNL     1      15.688  76.843  24.395  1.00  0.00    -0.365 N 
ATOM     24  H12 UNL     1      16.527  76.858  23.816  1.00  0.00     0.159 HD
ATOM     25  H11 UNL     1      15.368  77.639  24.946  1.00  0.00     0.159 HD
BRANCH  22  26
HETATM   26  O1  UNL     1      15.436  74.692  23.689  1.00  0.00    -0.327 OA
HETATM   27  C1  UNL     1      16.661  74.023  24.035  1.00  0.00     0.213 C 
ENDBRANCH  22  26
ENDBRANCH  20  22
ENDBRANCH   1  20
TORSDOF 7
ENDMDL
MODEL 3
REMARK VINA RESULT: -7.222313472      1.995      6.546
REMARK  7 active torsions:
REMARK  status: ('A' for Active; 'I' for Inactive)
REMARK    1  A    between atoms: O1_2  and  C2_3 
REMARK    2  A    between atoms: C2_3  and  N2_7 
REMARK    3  A    between atoms: N2_7  and  C3_9 
REMARK    4  A    between atoms: C4_10  and  C5_11 
REMARK    5  A    between atoms: C6_14  and  S1_15 
REMARK    6  A    between atoms: S1_15  and  C7_16 
REMARK    7  A    between atoms: C8_20  and  N4_21 
ROOT
HETATM    1  C3  UNL     1      15.568  76.239  24.973  1.00  0.00     0.121 C 
HETATM    2  C4  UNL     1      16.011  76.832  26.058  1.00  0.00     0.095 C 
HETATM    3  C6  UNL     1      15.406  78.113  25.732  1.00  0.00     0.193 C 
HETATM    4  N5  UNL     1      15.190  77.484  24.402  1.00  0.00    -0.358 N 
ATOM      5  H5  UNL     1      14.897  77.807  23.479  1.00  0.00     0.162 HD
ENDROOT
BRANCH   3   6
HETATM    6  S1  UNL     1      13.815  78.557  26.446  1.00  0.00    -0.079 SA
BRANCH   6   7
HETATM    7  C7  UNL     1      12.986  79.965  25.788  1.00  0.00     0.396 C 
HETATM    8  N3  UNL     1      13.183  81.262  26.377  1.00  0.00     0.013 N 
HETATM    9  C8  UNL     1      14.279  81.380  25.453  1.00  0.00     0.528 C 
ATOM     10  H32 UNL     1      12.437  81.955  26.425  1.00  0.00     0.286 HD
ATOM     11  H31 UNL     1      13.304  81.388  27.382  1.00  0.00     0.286 HD
HETATM   12  O4  UNL     1      13.670  80.445  24.642  1.00  0.00    -0.296 OA
BRANCH   9  13
HETATM   13  N4  UNL     1      14.356  82.694  24.795  1.00  0.00    -0.027 N 
ATOM     14  H43 UNL     1      13.925  83.414  25.375  1.00  0.00     0.279 HD
ATOM     15  H42 UNL     1      15.317  83.036  24.784  1.00  0.00     0.279 HD
ATOM     16  H41 UNL     1      13.960  82.704  23.855  1.00  0.00     0.279 HD
ENDBRANCH   9  13
ENDBRANCH   6   7
ENDBRANCH   3   6
BRANCH   2  17
HETATM   17  C5  UNL     1      16.742  76.328  27.209  1.00  0.00     0.212 C 
HETATM   18  O2  UNL     1      17.883  75.797  27.087  1.00  0.00    -0.644 OA
HETATM   19  O3  UNL     1      16.239  76.402  28.512  1.00  0.00    -0.644 OA
ENDBRANCH   2  17
BRANCH   1  20
HETATM   20  N2  UNL     1      15.531  74.940  24.373  1.00  0.00    -0.308 N 
ATOM     21  H2  UNL     1      14.636  74.548  24.081  1.00  0.00     0.171 HD
BRANCH  20  22
HETATM   22  C2  UNL     1      16.720  74.187  24.178  1.00  0.00     0.218 C 
HETATM   23  N1  UNL     1      17.131  73.443  25.123  1.00  0.00    -0.365 N 
ATOM     24  H12 UNL     1      17.984  72.903  24.983  1.00  0.00     0.159 HD
ATOM     25  H11 UNL     1      16.584  73.422  25.984  1.00  0.00     0.159 HD
BRANCH  22  26
HETATM   26  O1  UNL     1      17.464  74.216  23.007  1.00  0.00    -0.327 OA
HETATM   27  C1  UNL     1      17.434  73.095  22.106  1.00  0.00     0.213 C 
ENDBRANCH  22  26
ENDBRANCH  20  22
ENDBRANCH   1  20
TORSDOF 7
ENDMDL
MODEL 4
REMARK VINA RESULT: -7.157141263      1.738      2.003
REMARK  7 active torsions:
REMARK  status: ('A' for Active; 'I' for Inactive)
REMARK    1  A    between atoms: O1_2  and  C2_3 
REMARK    2  A    between atoms: C2_3  and  N2_7 
REMARK    3  A    between atoms: N2_7  and  C3_9 
REMARK    4  A    between atoms: C4_10  and  C5_11 
REMARK    5  A    between atoms: C6_14  and  S1_15 
REMARK    6  A    between atoms: S1_15  and  C7_16 
REMARK    7  A    between atoms: C8_20  and  N4_21 
ROOT
HETATM    1  C3  UNL     1      14.630  77.878  25.393  1.00  0.00     0.121 C 
HETATM    2  C4  UNL     1      15.569  77.234  26.048  1.00  0.00     0.095 C 
HETATM    3  C6  UNL     1      15.145  75.925  25.580  1.00  0.00     0.193 C 
HETATM    4  N5  UNL     1      13.943  76.666  25.111  1.00  0.00    -0.358 N 
ATOM      5  H5  UNL     1      13.025  76.413  24.746  1.00  0.00     0.162 HD
ENDROOT
BRANCH   3   6
HETATM    6  S1  UNL     1      15.968  75.171  24.168  1.00  0.00    -0.079 SA
BRANCH   6   7
HETATM    7  C7  UNL     1      16.710  73.590  24.401  1.00  0.00     0.396 C 
HETATM    8  N3  UNL     1      18.140  73.448  24.354  1.00  0.00     0.013 N 
HETATM    9  C8  UNL     1      18.092  73.717  25.766  1.00  0.00     0.528 C 
ATOM     10  H32 UNL     1      18.590  72.615  23.976  1.00  0.00     0.286 HD
ATOM     11  H31 UNL     1      18.718  73.995  23.717  1.00  0.00     0.286 HD
HETATM   12  O4  UNL     1      16.783  73.281  25.784  1.00  0.00    -0.296 OA
BRANCH   9  13
HETATM   13  N4  UNL     1      18.961  72.839  26.564  1.00  0.00    -0.027 N 
ATOM     14  H43 UNL     1      19.915  72.851  26.203  1.00  0.00     0.279 HD
ATOM     15  H42 UNL     1      19.124  73.237  27.489  1.00  0.00     0.279 HD
ATOM     16  H41 UNL     1      18.617  71.882  26.640  1.00  0.00     0.279 HD
ENDBRANCH   9  13
ENDBRANCH   6   7
ENDBRANCH   3   6
BRANCH   2  17
HETATM   17  C5  UNL     1      16.687  77.703  26.850  1.00  0.00     0.212 C 
HETATM   18  O2  UNL     1      17.662  76.948  27.131  1.00  0.00    -0.644 OA
HETATM   19  O3  UNL     1      16.759  79.007  27.352  1.00  0.00    -0.644 OA
ENDBRANCH   2  17
BRANCH   1  20
HETATM   20  N2  UNL     1      14.217  79.218  25.107  1.00  0.00    -0.308 N 
ATOM     21  H2  UNL     1      14.460  79.636  24.209  1.00  0.00     0.171 HD
BRANCH  20  22
HETATM   22  C2  UNL     1      13.476  79.976  26.052  1.00  0.00     0.218 C 
HETATM   23  N1  UNL     1      14.103  80.557  26.993  1.00  0.00    -0.365 N 
ATOM     24  H12 UNL     1      13.570  81.100  27.671  1.00  0.00     0.159 HD
ATOM     25  H11 UNL     1      15.117  80.451  27.025  1.00  0.00     0.159 HD
BRANCH  22  26
HETATM   26  O1  UNL     1      12.096  80.120  26.008  1.00  0.00    -0.327 OA
HETATM   27  C1  UNL     1      11.247  78.961  26.071  1.00  0.00     0.213 C 
ENDBRANCH  22  26
ENDBRANCH  20  22
ENDBRANCH   1  20
TORSDOF 7
ENDMDL
MODEL 5
REMARK VINA RESULT: -7.127486003      2.642      6.544
REMARK  7 active torsions:
REMARK  status: ('A' for Active; 'I' for Inactive)
REMARK    1  A    between atoms: O1_2  and  C2_3 
REMARK    2  A    between atoms: C2_3  and  N2_7 
REMARK    3  A    between atoms: N2_7  and  C3_9 
REMARK    4  A    between atoms: C4_10  and  C5_11 
REMARK    5  A    between atoms: C6_14  and  S1_15 
REMARK    6  A    between atoms: S1_15  and  C7_16 
REMARK    7  A    between atoms: C8_20  and  N4_21 
ROOT
HETATM    1  C3  UNL     1      15.787  77.194  26.865  1.00  0.00     0.121 C 
HETATM    2  C4  UNL     1      15.104  76.579  25.927  1.00  0.00     0.095 C 
HETATM    3  C6  UNL     1      13.927  77.417  26.088  1.00  0.00     0.193 C 
HETATM    4  N5  UNL     1      14.624  77.871  27.321  1.00  0.00    -0.358 N 
ATOM      5  H5  UNL     1      14.375  78.427  28.140  1.00  0.00     0.162 HD
ENDROOT
BRANCH   3   6
HETATM    6  S1  UNL     1      13.675  78.823  24.995  1.00  0.00    -0.079 SA
BRANCH   6   7
HETATM    7  C7  UNL     1      13.277  80.373  25.732  1.00  0.00     0.396 C 
HETATM    8  N3  UNL     1      14.103  80.909  26.779  1.00  0.00     0.013 N 
HETATM    9  C8  UNL     1      14.848  81.521  25.713  1.00  0.00     0.528 C 
ATOM     10  H32 UNL     1      13.717  81.451  27.552  1.00  0.00     0.286 HD
ATOM     11  H31 UNL     1      14.547  80.313  27.478  1.00  0.00     0.286 HD
HETATM   12  O4  UNL     1      13.729  81.438  24.910  1.00  0.00    -0.296 OA
BRANCH   9  13
HETATM   13  N4  UNL     1      15.215  82.922  25.977  1.00  0.00    -0.027 N 
ATOM     14  H43 UNL     1      15.399  83.417  25.104  1.00  0.00     0.279 HD
ATOM     15  H42 UNL     1      14.408  83.450  26.306  1.00  0.00     0.279 HD
ATOM     16  H41 UNL     1      15.999  83.025  26.621  1.00  0.00     0.279 HD
ENDBRANCH   9  13
ENDBRANCH   6   7
ENDBRANCH   3   6
BRANCH   2  17
HETATM   17  C5  UNL     1      15.467  75.520  24.999  1.00  0.00     0.212 C 
HETATM   18  O2  UNL     1      14.833  75.343  23.919  1.00  0.00    -0.644 OA
HETATM   19  O3  UNL     1      16.532  74.644  25.235  1.00  0.00    -0.644 OA
ENDBRANCH   2  17
BRANCH   1  20
HETATM   20  N2  UNL     1      17.100  77.201  27.437  1.00  0.00    -0.308 N 
ATOM     21  H2  UNL     1      17.715  77.997  27.269  1.00  0.00     0.171 HD
BRANCH  20  22
HETATM   22  C2  UNL     1      17.559  76.119  28.233  1.00  0.00     0.218 C 
HETATM   23  N1  UNL     1      18.276  75.222  27.687  1.00  0.00    -0.365 N 
ATOM     24  H12 UNL     1      18.605  74.445  28.259  1.00  0.00     0.159 HD
ATOM     25  H11 UNL     1      18.488  75.323  26.694  1.00  0.00     0.159 HD
BRANCH  22  26
HETATM   26  O1  UNL     1      17.271  75.982  29.584  1.00  0.00    -0.327 OA
HETATM   27  C1  UNL     1      18.322  76.080  30.560  1.00  0.00     0.213 C 
ENDBRANCH  22  26
ENDBRANCH  20  22
ENDBRANCH   1  20
TORSDOF 7
ENDMDL
