MODEL 1
REMARK VINA RESULT: -7.169666990      0.000      0.000
REMARK  9 active torsions:
REMARK  status: ('A' for Active; 'I' for Inactive)
REMARK    1  A    between atoms: O1_2  and  C2_3 
REMARK    2  A    between atoms: C2_3  and  C3_9 
REMARK    3  A    between atoms: N1_4  and  N2_6 
REMARK    4  A    between atoms: C4_10  and  N3_11 
REMARK    5  A    between atoms: N3_11  and  O2_12 
REMARK    6  A    between atoms: N4_14  and  O3_15 
REMARK    7  A    between atoms: C5_17  and  S1_18 
REMARK    8  A    between atoms: S1_18  and  S2_19 
REMARK    9  A    between atoms: S2_19  and  C6_20 
ROOT
HETATM    1  C3  UNL     1      15.198  77.241  26.716  1.00  0.00     0.130 C 
HETATM    2  C4  UNL     1      16.659  77.290  27.122  1.00  0.00     0.221 C 
HETATM    3  N4  UNL     1      16.394  78.644  27.568  1.00  0.00    -0.161 NA
HETATM    4  C5  UNL     1      15.443  78.717  26.455  1.00  0.00     0.175 C 
ENDROOT
BRANCH   1   5
HETATM    5  C2  UNL     1      14.959  76.411  25.543  1.00  0.00     0.141 C 
HETATM    6  N1  UNL     1      13.751  76.140  25.187  1.00  0.00    -0.290 N 
ATOM      7  H1  UNL     1      13.624  75.557  24.360  1.00  0.00     0.188 HD
BRANCH   5   8
HETATM    8  O1  UNL     1      15.989  75.905  24.796  1.00  0.00    -0.343 OA
HETATM    9  C1  UNL     1      16.129  74.508  24.552  1.00  0.00     0.211 C 
ENDBRANCH   5   8
BRANCH   6  10
HETATM   10  N2  UNL     1      12.615  76.579  25.841  1.00  0.00    -0.343 N 
ATOM     11  H22 UNL     1      12.382  77.566  25.732  1.00  0.00     0.176 HD
ATOM     12  H21 UNL     1      12.006  75.994  26.413  1.00  0.00     0.176 HD
ENDBRANCH   6  10
ENDBRANCH   1   5
BRANCH   2  13
HETATM   13  N3  UNL     1      17.030  76.358  28.154  1.00  0.00    -0.080 NA
BRANCH  13  14
HETATM   14  O2  UNL     1      15.926  76.172  28.933  1.00  0.00    -0.294 OA
ATOM     15  H2  UNL     1      15.397  76.957  28.851  1.00  0.00     0.238 HD
ENDBRANCH  13  14
ENDBRANCH   2  13
BRANCH   4  16
HETATM   16  S1  UNL     1      14.151  79.836  26.757  1.00  0.00    -0.067 SA
BRANCH  16  17
HETATM   17  S2  UNL     1      13.931  80.772  24.875  1.00  0.00    -0.023 SA
BRANCH  17  18
HETATM   18  C6  UNL     1      15.130  81.990  24.895  1.00  0.00     0.158 C 
HETATM   19  N5  UNL     1      15.249  82.786  25.929  1.00  0.00    -0.382 N 
ATOM     20  H52 UNL     1      14.594  82.625  26.693  1.00  0.00     0.157 HD
ATOM     21  H51 UNL     1      15.965  83.513  25.941  1.00  0.00     0.157 HD
HETATM   22  N6  UNL     1      16.042  82.214  23.832  1.00  0.00    -0.074 NA
ENDBRANCH  17  18
ENDBRANCH  16  17
ENDBRANCH   4  16
BRANCH   3  23
HETATM   23  O3  UNL     1      17.426  79.500  27.474  1.00  0.00    -0.310 OA
ATOM     24  H3  UNL     1      17.946  79.604  28.262  1.00  0.00     0.237 HD
ENDBRANCH   3  23
TORSDOF 9
ENDMDL
MODEL 2
REMARK VINA RESULT: -7.050994782      3.299      5.247
REMARK  9 active torsions:
REMARK  status: ('A' for Active; 'I' for Inactive)
REMARK    1  A    between atoms: O1_2  and  C2_3 
REMARK    2  A    between atoms: C2_3  and  C3_9 
REMARK    3  A    between atoms: N1_4  and  N2_6 
REMARK    4  A    between atoms: C4_10  and  N3_11 
REMARK    5  A    between atoms: N3_11  and  O2_12 
REMARK    6  A    between atoms: N4_14  and  O3_15 
REMARK    7  A    between atoms: C5_17  and  S1_18 
REMARK    8  A    between atoms: S1_18  and  S2_19 
REMARK    9  A    between atoms: S2_19  and  C6_20 
ROOT
HETATM    1  C3  UNL     1      14.884  78.293  25.886  1.00  0.00     0.130 C 
HETATM    2  C4  UNL     1      15.940  78.516  26.951  1.00  0.00     0.221 C 
HETATM    3  N4  UNL     1      16.744  77.553  26.224  1.00  0.00    -0.161 NA
HETATM    4  C5  UNL     1      15.477  76.895  25.895  1.00  0.00     0.175 C 
ENDROOT
BRANCH   1   5
HETATM    5  C2  UNL     1      13.524  78.418  26.395  1.00  0.00     0.141 C 
HETATM    6  N1  UNL     1      13.056  79.581  26.688  1.00  0.00    -0.290 N 
ATOM      7  H1  UNL     1      12.100  79.629  27.040  1.00  0.00     0.188 HD
BRANCH   5   8
HETATM    8  O1  UNL     1      12.718  77.325  26.573  1.00  0.00    -0.343 OA
HETATM    9  C1  UNL     1      11.421  77.242  25.990  1.00  0.00     0.211 C 
ENDBRANCH   5   8
BRANCH   6  10
HETATM   10  N2  UNL     1      13.750  80.770  26.560  1.00  0.00    -0.343 N 
ATOM     11  H22 UNL     1      14.656  80.819  27.026  1.00  0.00     0.176 HD
ATOM     12  H21 UNL     1      13.423  81.586  26.042  1.00  0.00     0.176 HD
ENDBRANCH   6  10
ENDBRANCH   1   5
BRANCH   2  13
HETATM   13  N3  UNL     1      16.471  79.854  27.003  1.00  0.00    -0.080 NA
BRANCH  13  14
HETATM   14  O2  UNL     1      17.668  79.778  27.651  1.00  0.00    -0.294 OA
ATOM     15  H2  UNL     1      17.943  80.671  27.825  1.00  0.00     0.238 HD
ENDBRANCH  13  14
ENDBRANCH   2  13
BRANCH   4  16
HETATM   16  S1  UNL     1      15.552  76.018  24.399  1.00  0.00    -0.067 SA
BRANCH  16  17
HETATM   17  S2  UNL     1      16.245  74.124  25.033  1.00  0.00    -0.023 SA
BRANCH  17  18
HETATM   18  C6  UNL     1      17.291  73.642  23.772  1.00  0.00     0.158 C 
HETATM   19  N5  UNL     1      17.421  72.375  23.465  1.00  0.00    -0.382 N 
ATOM     20  H52 UNL     1      16.866  71.724  24.020  1.00  0.00     0.157 HD
ATOM     21  H51 UNL     1      18.045  72.087  22.711  1.00  0.00     0.157 HD
HETATM   22  N6  UNL     1      18.063  74.549  23.000  1.00  0.00    -0.074 NA
ENDBRANCH  17  18
ENDBRANCH  16  17
ENDBRANCH   4  16
BRANCH   3  23
HETATM   23  O3  UNL     1      17.579  76.810  26.971  1.00  0.00    -0.310 OA
ATOM     24  H3  UNL     1      18.303  76.410  26.503  1.00  0.00     0.237 HD
ENDBRANCH   3  23
TORSDOF 9
ENDMDL
MODEL 3
REMARK VINA RESULT: -6.994079156      1.743      1.792
REMARK  9 active torsions:
REMARK  status: ('A' for Active; 'I' for Inactive)
REMARK    1  A    between atoms: O1_2  and  C2_3 
REMARK    2  A    between atoms: C2_3  and  C3_9 
REMARK    3  A    between atoms: N1_4  and  N2_6 
REMARK    4  A    between atoms: C4_10  and  N3_11 
REMARK    5  A    between atoms: N3_11  and  O2_12 
REMARK    6  A    between atoms: N4_14  and  O3_15 
REMARK    7  A    between atoms: C5_17  and  S1_18 
REMARK    8  A    between atoms: S1_18  and  S2_19 
REMARK    9  A    between atoms: S2_19  and  C6_20 
ROOT
HETATM    1  C3  UNL     1      15.645  77.386  27.188  1.00  0.00     0.130 C 
HETATM    2  C4  UNL     1      16.799  76.696  27.891  1.00  0.00     0.221 C 
HETATM    3  N4  UNL     1      17.253  78.026  28.251  1.00  0.00    -0.161 NA
HETATM    4  C5  UNL     1      16.701  78.453  26.962  1.00  0.00     0.175 C 
ENDROOT
BRANCH   1   5
HETATM    5  C2  UNL     1      15.189  76.671  26.003  1.00  0.00     0.141 C 
HETATM    6  N1  UNL     1      13.928  76.583  25.756  1.00  0.00    -0.290 N 
ATOM      7  H1  UNL     1      13.647  76.076  24.917  1.00  0.00     0.188 HD
BRANCH   5   8
HETATM    8  O1  UNL     1      16.068  76.085  25.133  1.00  0.00    -0.343 OA
HETATM    9  C1  UNL     1      15.741  74.897  24.416  1.00  0.00     0.211 C 
ENDBRANCH   5   8
BRANCH   6  10
HETATM   10  N2  UNL     1      12.927  77.123  26.540  1.00  0.00    -0.343 N 
ATOM     11  H22 UNL     1      12.939  78.137  26.657  1.00  0.00     0.176 HD
ATOM     12  H21 UNL     1      12.191  76.588  27.001  1.00  0.00     0.176 HD
ENDBRANCH   6  10
ENDBRANCH   1   5
BRANCH   2  13
HETATM   13  N3  UNL     1      16.416  75.852  28.993  1.00  0.00    -0.080 NA
BRANCH  13  14
HETATM   14  O2  UNL     1      17.492  75.779  29.826  1.00  0.00    -0.294 OA
ATOM     15  H2  UNL     1      18.257  75.998  29.307  1.00  0.00     0.238 HD
ENDBRANCH  13  14
ENDBRANCH   2  13
BRANCH   4  16
HETATM   16  S1  UNL     1      16.211  80.118  26.968  1.00  0.00    -0.067 SA
BRANCH  16  17
HETATM   17  S2  UNL     1      15.343  80.328  25.053  1.00  0.00    -0.023 SA
BRANCH  17  18
HETATM   18  C6  UNL     1      13.665  80.265  25.368  1.00  0.00     0.158 C 
HETATM   19  N5  UNL     1      13.142  80.987  26.327  1.00  0.00    -0.382 N 
ATOM     20  H52 UNL     1      13.794  81.571  26.851  1.00  0.00     0.157 HD
ATOM     21  H51 UNL     1      12.140  80.949  26.516  1.00  0.00     0.157 HD
HETATM   22  N6  UNL     1      12.758  79.453  24.640  1.00  0.00    -0.074 NA
ENDBRANCH  17  18
ENDBRANCH  16  17
ENDBRANCH   4  16
BRANCH   3  23
HETATM   23  O3  UNL     1      18.584  78.175  28.364  1.00  0.00    -0.310 OA
ATOM     24  H3  UNL     1      18.939  78.051  29.236  1.00  0.00     0.237 HD
ENDBRANCH   3  23
TORSDOF 9
ENDMDL
MODEL 4
REMARK VINA RESULT: -6.886638745      4.562      6.185
REMARK  9 active torsions:
REMARK  status: ('A' for Active; 'I' for Inactive)
REMARK    1  A    between atoms: O1_2  and  C2_3 
REMARK    2  A    between atoms: C2_3  and  C3_9 
REMARK    3  A    between atoms: N1_4  and  N2_6 
REMARK    4  A    between atoms: C4_10  and  N3_11 
REMARK    5  A    between atoms: N3_11  and  O2_12 
REMARK    6  A    between atoms: N4_14  and  O3_15 
REMARK    7  A    between atoms: C5_17  and  S1_18 
REMARK    8  A    between atoms: S1_18  and  S2_19 
REMARK    9  A    between atoms: S2_19  and  C6_20 
ROOT
HETATM    1  C3  UNL     1      12.484  77.199  25.316  1.00  0.00     0.130 C 
HETATM    2  C4  UNL     1      12.465  78.498  24.533  1.00  0.00     0.221 C 
HETATM    3  N4  UNL     1      11.093  78.170  24.200  1.00  0.00    -0.161 NA
HETATM    4  C5  UNL     1      11.530  76.771  24.214  1.00  0.00     0.175 C 
ENDROOT
BRANCH   1   5
HETATM    5  C2  UNL     1      13.791  76.554  25.321  1.00  0.00     0.141 C 
HETATM    6  N1  UNL     1      14.630  76.818  26.262  1.00  0.00    -0.290 N 
ATOM      7  H1  UNL     1      15.533  76.346  26.232  1.00  0.00     0.188 HD
BRANCH   5   8
HETATM    8  O1  UNL     1      14.158  75.664  24.347  1.00  0.00    -0.343 OA
HETATM    9  C1  UNL     1      15.469  75.106  24.293  1.00  0.00     0.211 C 
ENDBRANCH   5   8
BRANCH   6  10
HETATM   10  N2  UNL     1      14.398  77.691  27.308  1.00  0.00    -0.343 N 
ATOM     11  H22 UNL     1      14.332  77.277  28.239  1.00  0.00     0.176 HD
ATOM     12  H21 UNL     1      14.292  78.701  27.215  1.00  0.00     0.176 HD
ENDBRANCH   6  10
ENDBRANCH   1   5
BRANCH   2  13
HETATM   13  N3  UNL     1      12.644  79.684  25.329  1.00  0.00    -0.080 NA
BRANCH  13  14
HETATM   14  O2  UNL     1      12.061  79.439  26.537  1.00  0.00    -0.294 OA
ATOM     15  H2  UNL     1      12.438  80.056  27.154  1.00  0.00     0.238 HD
ENDBRANCH  13  14
ENDBRANCH   2  13
BRANCH   4  16
HETATM   16  S1  UNL     1      10.243  75.677  24.612  1.00  0.00    -0.067 SA
BRANCH  16  17
HETATM   17  S2  UNL     1       9.935  74.674  22.778  1.00  0.00    -0.023 SA
BRANCH  17  18
HETATM   18  C6  UNL     1       8.751  75.628  21.998  1.00  0.00     0.158 C 
HETATM   19  N5  UNL     1       7.486  75.293  22.054  1.00  0.00    -0.382 N 
ATOM     20  H52 UNL     1       7.272  74.448  22.582  1.00  0.00     0.157 HD
ATOM     21  H51 UNL     1       6.779  75.864  21.588  1.00  0.00     0.157 HD
HETATM   22  N6  UNL     1       9.048  76.805  21.263  1.00  0.00    -0.074 NA
ENDBRANCH  17  18
ENDBRANCH  16  17
ENDBRANCH   4  16
BRANCH   3  23
HETATM   23  O3  UNL     1      10.664  78.606  23.003  1.00  0.00    -0.310 OA
ATOM     24  H3  UNL     1       9.854  78.221  22.691  1.00  0.00     0.237 HD
ENDBRANCH   3  23
TORSDOF 9
ENDMDL
MODEL 5
REMARK VINA RESULT: -6.850579033      3.419      5.668
REMARK  9 active torsions:
REMARK  status: ('A' for Active; 'I' for Inactive)
REMARK    1  A    between atoms: O1_2  and  C2_3 
REMARK    2  A    between atoms: C2_3  and  C3_9 
REMARK    3  A    between atoms: N1_4  and  N2_6 
REMARK    4  A    between atoms: C4_10  and  N3_11 
REMARK    5  A    between atoms: N3_11  and  O2_12 
REMARK    6  A    between atoms: N4_14  and  O3_15 
REMARK    7  A    between atoms: C5_17  and  S1_18 
REMARK    8  A    between atoms: S1_18  and  S2_19 
REMARK    9  A    between atoms: S2_19  and  C6_20 
ROOT
HETATM    1  C3  UNL     1      16.507  77.333  26.605  1.00  0.00     0.130 C 
HETATM    2  C4  UNL     1      17.200  76.784  27.838  1.00  0.00     0.221 C 
HETATM    3  N4  UNL     1      17.549  75.639  27.018  1.00  0.00    -0.161 NA
HETATM    4  C5  UNL     1      16.264  75.856  26.347  1.00  0.00     0.175 C 
ENDROOT
BRANCH   1   5
HETATM    5  C2  UNL     1      15.330  78.133  26.920  1.00  0.00     0.141 C 
HETATM    6  N1  UNL     1      15.435  79.413  27.017  1.00  0.00    -0.290 N 
ATOM      7  H1  UNL     1      14.589  79.939  27.238  1.00  0.00     0.188 HD
BRANCH   5   8
HETATM    8  O1  UNL     1      14.102  77.560  27.117  1.00  0.00    -0.343 OA
HETATM    9  C1  UNL     1      13.055  77.674  26.157  1.00  0.00     0.211 C 
ENDBRANCH   5   8
BRANCH   6  10
HETATM   10  N2  UNL     1      16.605  80.128  26.844  1.00  0.00    -0.343 N 
ATOM     11  H22 UNL     1      16.805  80.846  27.541  1.00  0.00     0.176 HD
ATOM     12  H21 UNL     1      17.269  79.989  26.083  1.00  0.00     0.176 HD
ENDBRANCH   6  10
ENDBRANCH   1   5
BRANCH   2  13
HETATM   13  N3  UNL     1      18.309  77.572  28.307  1.00  0.00    -0.080 NA
BRANCH  13  14
HETATM   14  O2  UNL     1      19.430  76.815  28.138  1.00  0.00    -0.294 OA
ATOM     15  H2  UNL     1      19.795  76.666  29.003  1.00  0.00     0.238 HD
ENDBRANCH  13  14
ENDBRANCH   2  13
BRANCH   4  16
HETATM   16  S1  UNL     1      16.268  75.292  24.706  1.00  0.00    -0.067 SA
BRANCH  16  17
HETATM   17  S2  UNL     1      16.593  73.218  24.954  1.00  0.00    -0.023 SA
BRANCH  17  18
HETATM   18  C6  UNL     1      18.227  73.015  24.497  1.00  0.00     0.158 C 
HETATM   19  N5  UNL     1      18.580  72.021  23.721  1.00  0.00    -0.382 N 
ATOM     20  H52 UNL     1      17.827  71.401  23.422  1.00  0.00     0.157 HD
ATOM     21  H51 UNL     1      19.555  71.899  23.447  1.00  0.00     0.157 HD
HETATM   22  N6  UNL     1      19.273  73.877  24.913  1.00  0.00    -0.074 NA
ENDBRANCH  17  18
ENDBRANCH  16  17
ENDBRANCH   4  16
BRANCH   3  23
HETATM   23  O3  UNL     1      17.645  74.467  27.668  1.00  0.00    -0.310 OA
ATOM     24  H3  UNL     1      17.602  74.517  28.615  1.00  0.00     0.237 HD
ENDBRANCH   3  23
TORSDOF 9
ENDMDL
