MODEL 1
REMARK VINA RESULT: -8.316901338      0.000      0.000
REMARK  7 active torsions:
REMARK  status: ('A' for Active; 'I' for Inactive)
REMARK    1  A    between atoms: O1_2  and  C2_3 
REMARK       I    between atoms: C2_3  and  N1_5 
REMARK    2  A    between atoms: N1_5  and  C3_7 
REMARK    3  A    between atoms: C4_8  and  N2_9 
REMARK    4  A    between atoms: N2_9  and  N3_11 
REMARK    5  A    between atoms: C5_14  and  O3_15 
REMARK       I    between atoms: N5_20  and  C7_22 
REMARK       I    between atoms: C7_22  and  N6_23 
REMARK       I    between atoms: C7_22  and  N7_27 
REMARK    6  A    between atoms: C8_31  and  N8_32 
REMARK    7  A    between atoms: N8_32  and  O4_34 
ROOT
HETATM    1  C3  UNL     1      14.187  77.226  25.382  1.00  0.00     0.102 A 
HETATM    2  C4  UNL     1      12.874  77.326  24.998  1.00  0.00     0.128 A 
HETATM    3  C5  UNL     1      12.345  78.562  24.658  1.00  0.00     0.172 A 
HETATM    4  N4  UNL     1      13.145  79.654  24.712  1.00  0.00    -0.319 N 
ATOM      5  H4  UNL     1      12.757  80.563  24.462  1.00  0.00     0.169 HD
HETATM    6  C6  UNL     1      14.424  79.579  25.083  1.00  0.00     0.137 A 
HETATM    7  N5  UNL     1      15.176  80.588  25.138  1.00  0.00    -0.325 N 
ATOM      8  H5  UNL     1      16.133  80.400  25.435  1.00  0.00     0.165 HD
HETATM    9  C7  UNL     1      14.887  81.958  24.845  1.00  0.00     0.481 C 
HETATM   10  N6  UNL     1      15.187  82.727  26.041  1.00  0.00    -0.033 N 
ATOM     11  H61 UNL     1      14.982  83.704  25.832  1.00  0.00     0.278 HD
ATOM     12  H62 UNL     1      16.138  82.582  26.381  1.00  0.00     0.278 HD
ATOM     13  H63 UNL     1      14.698  82.384  26.868  1.00  0.00     0.278 HD
HETATM   14  N7  UNL     1      15.743  82.347  23.737  1.00  0.00    -0.033 N 
ATOM     15  H71 UNL     1      15.538  83.324  23.528  1.00  0.00     0.278 HD
ATOM     16  H72 UNL     1      15.651  81.737  22.926  1.00  0.00     0.278 HD
ATOM     17  H73 UNL     1      16.733  82.176  23.917  1.00  0.00     0.278 HD
HETATM   18  C8  UNL     1      14.970  78.351  25.427  1.00  0.00     0.127 A 
ENDROOT
BRANCH  18  19
HETATM   19  N8  UNL     1      16.332  78.284  25.819  1.00  0.00    -0.263 N 
ATOM     20  H8  UNL     1      17.009  77.730  25.295  1.00  0.00     0.194 HD
BRANCH  19  21
HETATM   21  O4  UNL     1      16.668  78.934  26.836  1.00  0.00    -0.289 OA
ATOM     22  H4  UNL     1      16.090  78.890  27.589  1.00  0.00     0.244 HD
ENDBRANCH  19  21
ENDBRANCH  18  19
BRANCH   3  23
HETATM   23  O3  UNL     1      11.005  78.675  24.265  1.00  0.00    -0.344 OA
ATOM     24  H3  UNL     1      10.741  79.344  23.645  1.00  0.00     0.219 HD
ENDBRANCH   3  23
BRANCH   1  25
HETATM   25  N1  UNL     1      14.699  75.940  25.723  1.00  0.00    -0.298 N 
HETATM   26  C2  UNL     1      15.578  75.220  24.896  1.00  0.00     0.364 C 
HETATM   27  O2  UNL     1      15.941  75.712  23.807  1.00  0.00    -0.238 OA
ATOM     28  H1  UNL     1      14.415  75.523  26.609  1.00  0.00     0.171 HD
BRANCH  26  29
HETATM   29  O1  UNL     1      16.037  73.980  25.280  1.00  0.00    -0.309 OA
HETATM   30  C1  UNL     1      17.104  73.339  24.594  1.00  0.00     0.215 C 
ENDBRANCH  26  29
ENDBRANCH   1  25
BRANCH   2  31
HETATM   31  N2  UNL     1      12.019  76.191  24.938  1.00  0.00    -0.301 N 
ATOM     32  H2  UNL     1      12.296  75.364  24.408  1.00  0.00     0.186 HD
BRANCH  31  33
HETATM   33  N3  UNL     1      10.809  76.222  25.607  1.00  0.00    -0.344 N 
ATOM     34  H32 UNL     1      10.161  76.991  25.436  1.00  0.00     0.176 HD
ATOM     35  H31 UNL     1      10.583  75.472  26.262  1.00  0.00     0.176 HD
ENDBRANCH  31  33
ENDBRANCH   2  31
TORSDOF 7
ENDMDL
MODEL 2
REMARK VINA RESULT: -8.087630191      2.091      4.751
REMARK  7 active torsions:
REMARK  status: ('A' for Active; 'I' for Inactive)
REMARK    1  A    between atoms: O1_2  and  C2_3 
REMARK       I    between atoms: C2_3  and  N1_5 
REMARK    2  A    between atoms: N1_5  and  C3_7 
REMARK    3  A    between atoms: C4_8  and  N2_9 
REMARK    4  A    between atoms: N2_9  and  N3_11 
REMARK    5  A    between atoms: C5_14  and  O3_15 
REMARK       I    between atoms: N5_20  and  C7_22 
REMARK       I    between atoms: C7_22  and  N6_23 
REMARK       I    between atoms: C7_22  and  N7_27 
REMARK    6  A    between atoms: C8_31  and  N8_32 
REMARK    7  A    between atoms: N8_32  and  O4_34 
ROOT
HETATM    1  C3  UNL     1      15.028  78.147  25.834  1.00  0.00     0.102 A 
HETATM    2  C4  UNL     1      14.472  79.349  26.191  1.00  0.00     0.128 A 
HETATM    3  C5  UNL     1      13.129  79.591  25.944  1.00  0.00     0.172 A 
HETATM    4  N4  UNL     1      12.389  78.624  25.349  1.00  0.00    -0.319 N 
ATOM      5  H4  UNL     1      11.400  78.801  25.166  1.00  0.00     0.169 HD
HETATM    6  C6  UNL     1      12.910  77.449  24.994  1.00  0.00     0.137 A 
HETATM    7  N5  UNL     1      12.231  76.544  24.439  1.00  0.00    -0.325 N 
ATOM      8  H5  UNL     1      12.744  75.691  24.217  1.00  0.00     0.165 HD
HETATM    9  C7  UNL     1      10.847  76.534  24.076  1.00  0.00     0.481 C 
HETATM   10  N6  UNL     1      10.779  76.282  22.646  1.00  0.00    -0.033 N 
ATOM     11  H61 UNL     1       9.793  76.275  22.387  1.00  0.00     0.278 HD
ATOM     12  H62 UNL     1      11.272  75.434  22.367  1.00  0.00     0.278 HD
ATOM     13  H63 UNL     1      11.332  76.942  22.098  1.00  0.00     0.278 HD
HETATM   14  N7  UNL     1      10.215  75.468  24.832  1.00  0.00    -0.033 N 
ATOM     15  H71 UNL     1       9.228  75.460  24.573  1.00  0.00     0.278 HD
ATOM     16  H72 UNL     1      10.363  75.547  25.838  1.00  0.00     0.278 HD
ATOM     17  H73 UNL     1      10.668  74.563  24.704  1.00  0.00     0.278 HD
HETATM   18  C8  UNL     1      14.252  77.190  25.233  1.00  0.00     0.127 A 
ENDROOT
BRANCH  18  19
HETATM   19  N8  UNL     1      14.794  75.936  24.851  1.00  0.00    -0.263 N 
ATOM     20  H8  UNL     1      15.356  75.836  24.006  1.00  0.00     0.194 HD
BRANCH  19  21
HETATM   21  O4  UNL     1      14.552  74.957  25.594  1.00  0.00    -0.289 OA
ATOM     22  H4  UNL     1      13.824  74.398  25.352  1.00  0.00     0.244 HD
ENDBRANCH  19  21
ENDBRANCH  18  19
BRANCH   3  23
HETATM   23  O3  UNL     1      12.551  80.815  26.304  1.00  0.00    -0.344 OA
ATOM     24  H3  UNL     1      12.799  81.614  25.856  1.00  0.00     0.219 HD
ENDBRANCH   3  23
BRANCH   1  25
HETATM   25  N1  UNL     1      16.411  77.931  26.106  1.00  0.00    -0.298 N 
HETATM   26  C2  UNL     1      16.869  77.103  27.144  1.00  0.00     0.364 C 
HETATM   27  O2  UNL     1      16.042  76.518  27.874  1.00  0.00    -0.238 OA
ATOM     28  H1  UNL     1      17.100  78.400  25.518  1.00  0.00     0.171 HD
BRANCH  26  29
HETATM   29  O1  UNL     1      18.219  76.936  27.357  1.00  0.00    -0.309 OA
HETATM   30  C1  UNL     1      18.727  76.555  28.628  1.00  0.00     0.215 C 
ENDBRANCH  26  29
ENDBRANCH   1  25
BRANCH   2  31
HETATM   31  N2  UNL     1      15.234  80.376  26.814  1.00  0.00    -0.301 N 
ATOM     32  H2  UNL     1      15.770  80.180  27.660  1.00  0.00     0.186 HD
BRANCH  31  33
HETATM   33  N3  UNL     1      15.241  81.643  26.257  1.00  0.00    -0.344 N 
ATOM     34  H32 UNL     1      14.972  82.443  26.830  1.00  0.00     0.176 HD
ATOM     35  H31 UNL     1      15.515  81.756  25.281  1.00  0.00     0.176 HD
ENDBRANCH  31  33
ENDBRANCH   2  31
TORSDOF 7
ENDMDL
MODEL 3
REMARK VINA RESULT: -7.888461881      2.176      5.225
REMARK  7 active torsions:
REMARK  status: ('A' for Active; 'I' for Inactive)
REMARK    1  A    between atoms: O1_2  and  C2_3 
REMARK       I    between atoms: C2_3  and  N1_5 
REMARK    2  A    between atoms: N1_5  and  C3_7 
REMARK    3  A    between atoms: C4_8  and  N2_9 
REMARK    4  A    between atoms: N2_9  and  N3_11 
REMARK    5  A    between atoms: C5_14  and  O3_15 
REMARK       I    between atoms: N5_20  and  C7_22 
REMARK       I    between atoms: C7_22  and  N6_23 
REMARK       I    between atoms: C7_22  and  N7_27 
REMARK    6  A    between atoms: C8_31  and  N8_32 
REMARK    7  A    between atoms: N8_32  and  O4_34 
ROOT
HETATM    1  C3  UNL     1      14.252  78.121  25.315  1.00  0.00     0.102 A 
HETATM    2  C4  UNL     1      14.594  79.405  25.657  1.00  0.00     0.128 A 
HETATM    3  C5  UNL     1      15.647  79.632  26.530  1.00  0.00     0.172 A 
HETATM    4  N4  UNL     1      16.324  78.569  27.029  1.00  0.00    -0.319 N 
ATOM      5  H4  UNL     1      17.099  78.734  27.671  1.00  0.00     0.169 HD
HETATM    6  C6  UNL     1      16.009  77.313  26.709  1.00  0.00     0.137 A 
HETATM    7  N5  UNL     1      16.630  76.318  27.168  1.00  0.00    -0.325 N 
ATOM      8  H5  UNL     1      16.294  75.410  26.847  1.00  0.00     0.165 HD
HETATM    9  C7  UNL     1      17.738  76.272  28.072  1.00  0.00     0.481 C 
HETATM   10  N6  UNL     1      17.329  75.471  29.214  1.00  0.00    -0.033 N 
ATOM     11  H61 UNL     1      18.120  75.438  29.858  1.00  0.00     0.278 HD
ATOM     12  H62 UNL     1      16.989  74.547  28.951  1.00  0.00     0.278 HD
ATOM     13  H63 UNL     1      16.472  75.809  29.651  1.00  0.00     0.278 HD
HETATM   14  N7  UNL     1      18.844  75.654  27.361  1.00  0.00    -0.033 N 
ATOM     15  H71 UNL     1      19.634  75.621  28.005  1.00  0.00     0.278 HD
ATOM     16  H72 UNL     1      19.065  76.120  26.481  1.00  0.00     0.278 HD
ATOM     17  H73 UNL     1      18.608  74.742  26.970  1.00  0.00     0.278 HD
HETATM   18  C8  UNL     1      14.957  77.068  25.838  1.00  0.00     0.127 A 
ENDROOT
BRANCH  18  19
HETATM   19  N8  UNL     1      14.632  75.727  25.505  1.00  0.00    -0.263 N 
ATOM     20  H8  UNL     1      14.435  75.034  26.227  1.00  0.00     0.194 HD
BRANCH  19  21
HETATM   21  O4  UNL     1      14.598  75.431  24.289  1.00  0.00    -0.289 OA
ATOM     22  H4  UNL     1      15.175  75.913  23.709  1.00  0.00     0.244 HD
ENDBRANCH  19  21
ENDBRANCH  18  19
BRANCH   3  23
HETATM   23  O3  UNL     1      16.004  80.938  26.887  1.00  0.00    -0.344 OA
ATOM     24  H3  UNL     1      15.506  81.678  26.561  1.00  0.00     0.219 HD
ENDBRANCH   3  23
BRANCH   1  25
HETATM   25  N1  UNL     1      13.166  77.925  24.413  1.00  0.00    -0.298 N 
HETATM   26  C2  UNL     1      11.821  78.088  24.785  1.00  0.00     0.364 C 
HETATM   27  O2  UNL     1      11.542  78.422  25.955  1.00  0.00    -0.238 OA
ATOM     28  H1  UNL     1      13.375  77.654  23.452  1.00  0.00     0.171 HD
BRANCH  26  29
HETATM   29  O1  UNL     1      10.815  77.882  23.868  1.00  0.00    -0.309 OA
HETATM   30  C1  UNL     1      11.020  77.083  22.710  1.00  0.00     0.215 C 
ENDBRANCH  26  29
ENDBRANCH   1  25
BRANCH   2  31
HETATM   31  N2  UNL     1      13.893  80.532  25.146  1.00  0.00    -0.301 N 
ATOM     32  H2  UNL     1      14.012  80.816  24.173  1.00  0.00     0.186 HD
BRANCH  31  33
HETATM   33  N3  UNL     1      13.047  81.238  25.983  1.00  0.00    -0.344 N 
ATOM     34  H32 UNL     1      12.068  81.356  25.721  1.00  0.00     0.176 HD
ATOM     35  H31 UNL     1      13.417  81.629  26.849  1.00  0.00     0.176 HD
ENDBRANCH  31  33
ENDBRANCH   2  31
TORSDOF 7
ENDMDL
MODEL 4
REMARK VINA RESULT: -7.813682267      2.763      4.770
REMARK  7 active torsions:
REMARK  status: ('A' for Active; 'I' for Inactive)
REMARK    1  A    between atoms: O1_2  and  C2_3 
REMARK       I    between atoms: C2_3  and  N1_5 
REMARK    2  A    between atoms: N1_5  and  C3_7 
REMARK    3  A    between atoms: C4_8  and  N2_9 
REMARK    4  A    between atoms: N2_9  and  N3_11 
REMARK    5  A    between atoms: C5_14  and  O3_15 
REMARK       I    between atoms: N5_20  and  C7_22 
REMARK       I    between atoms: C7_22  and  N6_23 
REMARK       I    between atoms: C7_22  and  N7_27 
REMARK    6  A    between atoms: C8_31  and  N8_32 
REMARK    7  A    between atoms: N8_32  and  O4_34 
ROOT
HETATM    1  C3  UNL     1      16.615  75.129  25.606  1.00  0.00     0.102 A 
HETATM    2  C4  UNL     1      17.436  74.965  26.693  1.00  0.00     0.128 A 
HETATM    3  C5  UNL     1      17.592  76.000  27.604  1.00  0.00     0.172 A 
HETATM    4  N4  UNL     1      16.923  77.161  27.397  1.00  0.00    -0.319 N 
ATOM      5  H4  UNL     1      17.037  77.922  28.066  1.00  0.00     0.169 HD
HETATM    6  C6  UNL     1      16.121  77.340  26.347  1.00  0.00     0.137 A 
HETATM    7  N5  UNL     1      15.496  78.414  26.145  1.00  0.00    -0.325 N 
ATOM      8  H5  UNL     1      14.914  78.427  25.307  1.00  0.00     0.165 HD
HETATM    9  C7  UNL     1      15.480  79.620  26.916  1.00  0.00     0.481 C 
HETATM   10  N6  UNL     1      15.909  80.697  26.040  1.00  0.00    -0.033 N 
ATOM     11  H61 UNL     1      15.896  81.556  26.589  1.00  0.00     0.278 HD
ATOM     12  H62 UNL     1      15.355  80.761  25.186  1.00  0.00     0.278 HD
ATOM     13  H63 UNL     1      16.811  80.517  25.599  1.00  0.00     0.278 HD
HETATM   14  N7  UNL     1      14.114  79.818  27.369  1.00  0.00    -0.033 N 
ATOM     15  H71 UNL     1      14.102  80.678  27.919  1.00  0.00     0.278 HD
ATOM     16  H72 UNL     1      13.739  79.015  27.874  1.00  0.00     0.278 HD
ATOM     17  H73 UNL     1      13.436  79.821  26.608  1.00  0.00     0.278 HD
HETATM   18  C8  UNL     1      15.953  76.316  25.426  1.00  0.00     0.127 A 
ENDROOT
BRANCH  18  19
HETATM   19  N8  UNL     1      15.096  76.519  24.313  1.00  0.00    -0.263 N 
ATOM     20  H8  UNL     1      15.192  77.337  23.712  1.00  0.00     0.194 HD
BRANCH  19  21
HETATM   21  O4  UNL     1      14.218  75.652  24.101  1.00  0.00    -0.289 OA
ATOM     22  H4  UNL     1      13.508  75.888  23.516  1.00  0.00     0.244 HD
ENDBRANCH  19  21
ENDBRANCH  18  19
BRANCH   3  23
HETATM   23  O3  UNL     1      18.428  75.845  28.717  1.00  0.00    -0.344 OA
ATOM     24  H3  UNL     1      18.922  76.582  29.054  1.00  0.00     0.219 HD
ENDBRANCH   3  23
BRANCH   1  25
HETATM   25  N1  UNL     1      16.475  74.044  24.692  1.00  0.00    -0.298 N 
HETATM   26  C2  UNL     1      17.471  73.684  23.769  1.00  0.00     0.364 C 
HETATM   27  O2  UNL     1      18.539  74.332  23.733  1.00  0.00    -0.238 OA
ATOM     28  H1  UNL     1      15.611  73.502  24.709  1.00  0.00     0.171 HD
BRANCH  26  29
HETATM   29  O1  UNL     1      17.276  72.626  22.910  1.00  0.00    -0.309 OA
HETATM   30  C1  UNL     1      17.395  72.782  21.503  1.00  0.00     0.215 C 
ENDBRANCH  26  29
ENDBRANCH   1  25
BRANCH   2  31
HETATM   31  N2  UNL     1      18.147  73.756  26.924  1.00  0.00    -0.301 N 
ATOM     32  H2  UNL     1      17.651  72.913  27.216  1.00  0.00     0.186 HD
BRANCH  31  33
HETATM   33  N3  UNL     1      19.519  73.736  26.748  1.00  0.00    -0.344 N 
ATOM     34  H32 UNL     1      20.096  74.429  27.226  1.00  0.00     0.176 HD
ATOM     35  H31 UNL     1      19.933  73.027  26.142  1.00  0.00     0.176 HD
ENDBRANCH  31  33
ENDBRANCH   2  31
TORSDOF 7
ENDMDL
MODEL 5
REMARK VINA RESULT: -7.581789026      2.434      4.802
REMARK  7 active torsions:
REMARK  status: ('A' for Active; 'I' for Inactive)
REMARK    1  A    between atoms: O1_2  and  C2_3 
REMARK       I    between atoms: C2_3  and  N1_5 
REMARK    2  A    between atoms: N1_5  and  C3_7 
REMARK    3  A    between atoms: C4_8  and  N2_9 
REMARK    4  A    between atoms: N2_9  and  N3_11 
REMARK    5  A    between atoms: C5_14  and  O3_15 
REMARK       I    between atoms: N5_20  and  C7_22 
REMARK       I    between atoms: C7_22  and  N6_23 
REMARK       I    between atoms: C7_22  and  N7_27 
REMARK    6  A    between atoms: C8_31  and  N8_32 
REMARK    7  A    between atoms: N8_32  and  O4_34 
ROOT
HETATM    1  C3  UNL     1      14.220  77.541  25.125  1.00  0.00     0.102 A 
HETATM    2  C4  UNL     1      13.947  78.760  25.693  1.00  0.00     0.128 A 
HETATM    3  C5  UNL     1      14.644  79.171  26.819  1.00  0.00     0.172 A 
HETATM    4  N4  UNL     1      15.589  78.350  27.339  1.00  0.00    -0.319 N 
ATOM      5  H4  UNL     1      16.103  78.651  28.167  1.00  0.00     0.169 HD
HETATM    6  C6  UNL     1      15.870  77.162  26.802  1.00  0.00     0.137 A 
HETATM    7  N5  UNL     1      16.746  76.392  27.278  1.00  0.00    -0.325 N 
ATOM      8  H5  UNL     1      16.868  75.511  26.777  1.00  0.00     0.165 HD
HETATM    9  C7  UNL     1      17.596  76.567  28.415  1.00  0.00     0.481 C 
HETATM   10  N6  UNL     1      17.346  75.455  29.315  1.00  0.00    -0.033 N 
ATOM     11  H61 UNL     1      17.953  75.580  30.126  1.00  0.00     0.278 HD
ATOM     12  H62 UNL     1      17.461  74.546  28.868  1.00  0.00     0.278 HD
ATOM     13  H63 UNL     1      16.362  75.356  29.564  1.00  0.00     0.278 HD
HETATM   14  N7  UNL     1      18.966  76.558  27.930  1.00  0.00    -0.033 N 
ATOM     15  H71 UNL     1      19.572  76.684  28.740  1.00  0.00     0.278 HD
ATOM     16  H72 UNL     1      19.134  77.245  27.194  1.00  0.00     0.278 HD
ATOM     17  H73 UNL     1      19.192  75.726  27.386  1.00  0.00     0.278 HD
HETATM   18  C8  UNL     1      15.182  76.735  25.675  1.00  0.00     0.127 A 
ENDROOT
BRANCH  18  19
HETATM   19  N8  UNL     1      15.491  75.469  25.114  1.00  0.00    -0.263 N 
ATOM     20  H8  UNL     1      16.245  75.358  24.437  1.00  0.00     0.194 HD
BRANCH  19  21
HETATM   21  O4  UNL     1      14.797  74.494  25.485  1.00  0.00    -0.289 OA
ATOM     22  H4  UNL     1      15.257  73.690  25.696  1.00  0.00     0.244 HD
ENDBRANCH  19  21
ENDBRANCH  18  19
BRANCH   3  23
HETATM   23  O3  UNL     1      14.373  80.412  27.407  1.00  0.00    -0.344 OA
ATOM     24  H3  UNL     1      15.078  81.024  27.584  1.00  0.00     0.219 HD
ENDBRANCH   3  23
BRANCH   1  25
HETATM   25  N1  UNL     1      13.486  77.153  23.966  1.00  0.00    -0.298 N 
HETATM   26  C2  UNL     1      12.163  76.684  24.017  1.00  0.00     0.364 C 
HETATM   27  O2  UNL     1      11.583  76.598  25.119  1.00  0.00    -0.238 OA
ATOM     28  H1  UNL     1      13.944  77.218  23.057  1.00  0.00     0.171 HD
BRANCH  26  29
HETATM   29  O1  UNL     1      11.508  76.322  22.862  1.00  0.00    -0.309 OA
HETATM   30  C1  UNL     1      10.217  75.727  22.896  1.00  0.00     0.215 C 
ENDBRANCH  26  29
ENDBRANCH   1  25
BRANCH   2  31
HETATM   31  N2  UNL     1      12.956  79.632  25.163  1.00  0.00    -0.301 N 
ATOM     32  H2  UNL     1      13.105  80.098  24.267  1.00  0.00     0.186 HD
BRANCH  31  33
HETATM   33  N3  UNL     1      11.789  79.840  25.876  1.00  0.00    -0.344 N 
ATOM     34  H32 UNL     1      11.005  80.314  25.427  1.00  0.00     0.176 HD
ATOM     35  H31 UNL     1      11.732  79.516  26.842  1.00  0.00     0.176 HD
ENDBRANCH  31  33
ENDBRANCH   2  31
TORSDOF 7
ENDMDL
