MODEL 1
REMARK VINA RESULT: -8.342283550      0.000      0.000
REMARK  8 active torsions:
REMARK  status: ('A' for Active; 'I' for Inactive)
REMARK    1  A    between atoms: C2_2  and  O1_3 
REMARK    2  A    between atoms: C2_2  and  N1_5 
REMARK    3  A    between atoms: N1_5  and  C3_7 
REMARK    4  A    between atoms: C4_10  and  N3_11 
REMARK    5  A    between atoms: C5_16  and  N5_17 
REMARK    6  A    between atoms: N5_17  and  C6_19 
REMARK    7  A    between atoms: C9_24  and  N8_25 
REMARK    8  A    between atoms: N8_25  and  O2_27 
ROOT
HETATM    1  C3  UNL     1      14.457  79.918  26.621  1.00  0.00     0.151 A 
HETATM    2  N2  UNL     1      13.353  79.156  26.565  1.00  0.00    -0.175 N 
ATOM      3  H2  UNL     1      12.448  79.611  26.446  1.00  0.00     0.186 HD
HETATM    4  C4  UNL     1      13.395  77.809  26.662  1.00  0.00     0.679 A 
HETATM    5  N4  UNL     1      14.565  77.161  26.819  1.00  0.00    -0.175 N 
ATOM      6  H4  UNL     1      14.595  76.144  26.891  1.00  0.00     0.186 HD
HETATM    7  C5  UNL     1      15.689  77.888  26.879  1.00  0.00     0.150 A 
HETATM    8  C9  UNL     1      15.669  79.280  26.781  1.00  0.00     0.142 A 
ENDROOT
BRANCH   7   9
HETATM    9  N5  UNL     1      16.822  77.336  27.026  1.00  0.00    -0.354 N 
ATOM     10  H5  UNL     1      17.640  77.836  26.681  1.00  0.00     0.163 HD
BRANCH   9  11
HETATM   11  C6  UNL     1      17.034  76.052  27.648  1.00  0.00     0.194 C 
HETATM   12  C7  UNL     1      18.549  75.876  27.768  1.00  0.00     0.061 C 
HETATM   13  C8  UNL     1      18.772  76.652  29.060  1.00  0.00     0.133 C 
HETATM   14  N6  UNL     1      17.641  76.146  29.851  1.00  0.00    -0.146 NA
HETATM   15  N7  UNL     1      16.571  76.111  28.994  1.00  0.00    -0.123 NA
ENDBRANCH   9  11
ENDBRANCH   7   9
BRANCH   8  16
HETATM   16  N8  UNL     1      16.864  80.037  26.846  1.00  0.00    -0.262 N 
ATOM     17  H8  UNL     1      17.015  80.750  26.132  1.00  0.00     0.194 HD
BRANCH  16  18
HETATM   18  O2  UNL     1      17.736  79.894  27.707  1.00  0.00    -0.289 OA
ATOM     19  H2  UNL     1      18.294  80.592  28.028  1.00  0.00     0.244 HD
ENDBRANCH  16  18
ENDBRANCH   8  16
BRANCH   4  20
HETATM   20  N3  UNL     1      12.317  77.094  26.606  1.00  0.00    -0.234 N 
ATOM     21  H32 UNL     1      11.424  77.588  26.580  1.00  0.00     0.174 HD
ATOM     22  H31 UNL     1      12.355  76.076  26.589  1.00  0.00     0.174 HD
ENDBRANCH   4  20
BRANCH   1  23
HETATM   23  N1  UNL     1      14.416  81.332  26.521  1.00  0.00    -0.348 N 
ATOM     24  H1  UNL     1      14.661  81.890  27.339  1.00  0.00     0.163 HD
BRANCH  23  25
HETATM   25  C2  UNL     1      14.039  82.012  25.296  1.00  0.00     0.215 C 
HETATM   26  C1  UNL     1      15.180  82.767  24.690  1.00  0.00     0.063 C 
BRANCH  25  27
HETATM   27  O1  UNL     1      13.696  81.001  24.374  1.00  0.00    -0.377 OA
ATOM     28  H1  UNL     1      13.339  80.282  24.883  1.00  0.00     0.212 HD
ENDBRANCH  25  27
ENDBRANCH  23  25
ENDBRANCH   1  23
TORSDOF 8
ENDMDL
MODEL 2
REMARK VINA RESULT: -7.789191574      1.576      5.349
REMARK  8 active torsions:
REMARK  status: ('A' for Active; 'I' for Inactive)
REMARK    1  A    between atoms: C2_2  and  O1_3 
REMARK    2  A    between atoms: C2_2  and  N1_5 
REMARK    3  A    between atoms: N1_5  and  C3_7 
REMARK    4  A    between atoms: C4_10  and  N3_11 
REMARK    5  A    between atoms: C5_16  and  N5_17 
REMARK    6  A    between atoms: N5_17  and  C6_19 
REMARK    7  A    between atoms: C9_24  and  N8_25 
REMARK    8  A    between atoms: N8_25  and  O2_27 
ROOT
HETATM    1  C3  UNL     1      15.727  77.803  26.807  1.00  0.00     0.151 A 
HETATM    2  N2  UNL     1      14.537  77.184  26.761  1.00  0.00    -0.175 N 
ATOM      3  H2  UNL     1      14.513  76.165  26.797  1.00  0.00     0.186 HD
HETATM    4  C4  UNL     1      13.370  77.858  26.670  1.00  0.00     0.679 A 
HETATM    5  N4  UNL     1      13.349  79.203  26.621  1.00  0.00    -0.175 N 
ATOM      6  H4  UNL     1      12.467  79.711  26.553  1.00  0.00     0.186 HD
HETATM    7  C5  UNL     1      14.517  79.858  26.665  1.00  0.00     0.150 A 
HETATM    8  C9  UNL     1      15.734  79.181  26.759  1.00  0.00     0.142 A 
ENDROOT
BRANCH   7   9
HETATM    9  N5  UNL     1      14.562  81.125  26.622  1.00  0.00    -0.354 N 
ATOM     10  H5  UNL     1      15.063  81.606  27.369  1.00  0.00     0.163 HD
BRANCH   9  11
HETATM   11  C6  UNL     1      13.957  81.934  25.593  1.00  0.00     0.194 C 
HETATM   12  C7  UNL     1      15.040  82.901  25.111  1.00  0.00     0.061 C 
HETATM   13  C8  UNL     1      15.745  81.984  24.118  1.00  0.00     0.133 C 
HETATM   14  N6  UNL     1      14.575  81.385  23.460  1.00  0.00    -0.146 NA
HETATM   15  N7  UNL     1      13.682  81.109  24.464  1.00  0.00    -0.123 NA
ENDBRANCH   9  11
ENDBRANCH   7   9
BRANCH   8  16
HETATM   16  N8  UNL     1      16.963  79.885  26.805  1.00  0.00    -0.262 N 
ATOM     17  H8  UNL     1      17.204  80.472  26.006  1.00  0.00     0.194 HD
BRANCH  16  18
HETATM   18  O2  UNL     1      17.760  79.838  27.745  1.00  0.00    -0.289 OA
ATOM     19  H2  UNL     1      18.155  80.599  28.153  1.00  0.00     0.244 HD
ENDBRANCH  16  18
ENDBRANCH   8  16
BRANCH   4  20
HETATM   20  N3  UNL     1      12.234  77.238  26.627  1.00  0.00    -0.234 N 
ATOM     21  H32 UNL     1      12.252  76.228  26.483  1.00  0.00     0.174 HD
ATOM     22  H31 UNL     1      11.352  77.738  26.730  1.00  0.00     0.174 HD
ENDBRANCH   4  20
BRANCH   1  23
HETATM   23  N1  UNL     1      16.954  77.099  26.902  1.00  0.00    -0.348 N 
ATOM     24  H1  UNL     1      17.670  77.260  26.194  1.00  0.00     0.163 HD
BRANCH  23  25
HETATM   25  C2  UNL     1      17.226  76.157  27.971  1.00  0.00     0.215 C 
HETATM   26  C1  UNL     1      18.442  76.528  28.761  1.00  0.00     0.063 C 
BRANCH  25  27
HETATM   27  O1  UNL     1      16.132  76.242  28.860  1.00  0.00    -0.377 OA
ATOM     28  H1  UNL     1      16.495  76.201  29.736  1.00  0.00     0.212 HD
ENDBRANCH  25  27
ENDBRANCH  23  25
ENDBRANCH   1  23
TORSDOF 8
ENDMDL
MODEL 3
REMARK VINA RESULT: -7.689017803      2.887      5.357
REMARK  8 active torsions:
REMARK  status: ('A' for Active; 'I' for Inactive)
REMARK    1  A    between atoms: C2_2  and  O1_3 
REMARK    2  A    between atoms: C2_2  and  N1_5 
REMARK    3  A    between atoms: N1_5  and  C3_7 
REMARK    4  A    between atoms: C4_10  and  N3_11 
REMARK    5  A    between atoms: C5_16  and  N5_17 
REMARK    6  A    between atoms: N5_17  and  C6_19 
REMARK    7  A    between atoms: C9_24  and  N8_25 
REMARK    8  A    between atoms: N8_25  and  O2_27 
ROOT
HETATM    1  C3  UNL     1      14.572  76.465  25.023  1.00  0.00     0.151 A 
HETATM    2  N2  UNL     1      13.269  76.157  25.112  1.00  0.00    -0.175 N 
ATOM      3  H2  UNL     1      12.932  75.311  24.652  1.00  0.00     0.186 HD
HETATM    4  C4  UNL     1      12.386  76.923  25.789  1.00  0.00     0.679 A 
HETATM    5  N4  UNL     1      12.782  78.048  26.415  1.00  0.00    -0.175 N 
ATOM      6  H4  UNL     1      12.114  78.625  26.926  1.00  0.00     0.186 HD
HETATM    7  C5  UNL     1      14.075  78.389  26.349  1.00  0.00     0.150 A 
HETATM    8  C9  UNL     1      15.004  77.612  25.655  1.00  0.00     0.142 A 
ENDROOT
BRANCH   7   9
HETATM    9  N5  UNL     1      14.509  79.437  26.917  1.00  0.00    -0.354 N 
ATOM     10  H5  UNL     1      15.249  79.327  27.610  1.00  0.00     0.163 HD
BRANCH   9  11
HETATM   11  C6  UNL     1      14.030  80.772  26.654  1.00  0.00     0.194 C 
HETATM   12  C7  UNL     1      15.259  81.607  26.290  1.00  0.00     0.061 C 
HETATM   13  C8  UNL     1      15.359  81.242  24.813  1.00  0.00     0.133 C 
HETATM   14  N6  UNL     1      13.941  81.334  24.438  1.00  0.00    -0.146 NA
HETATM   15  N7  UNL     1      13.244  80.750  25.465  1.00  0.00    -0.123 NA
ENDBRANCH   9  11
ENDBRANCH   7   9
BRANCH   8  16
HETATM   16  N8  UNL     1      16.370  77.983  25.593  1.00  0.00    -0.262 N 
ATOM     17  H8  UNL     1      16.653  78.635  24.861  1.00  0.00     0.194 HD
BRANCH  16  18
HETATM   18  O2  UNL     1      17.242  77.572  26.364  1.00  0.00    -0.289 OA
ATOM     19  H2  UNL     1      17.707  78.116  26.987  1.00  0.00     0.244 HD
ENDBRANCH  16  18
ENDBRANCH   8  16
BRANCH   4  20
HETATM   20  N3  UNL     1      11.133  76.606  25.861  1.00  0.00    -0.234 N 
ATOM     21  H32 UNL     1      10.506  77.263  26.325  1.00  0.00     0.174 HD
ATOM     22  H31 UNL     1      10.783  75.731  25.472  1.00  0.00     0.174 HD
ENDBRANCH   4  20
BRANCH   1  23
HETATM   23  N1  UNL     1      15.502  75.663  24.313  1.00  0.00    -0.348 N 
ATOM     24  H1  UNL     1      15.786  75.952  23.377  1.00  0.00     0.163 HD
BRANCH  23  25
HETATM   25  C2  UNL     1      16.062  74.447  24.871  1.00  0.00     0.215 C 
HETATM   26  C1  UNL     1      16.899  73.700  23.881  1.00  0.00     0.063 C 
BRANCH  25  27
HETATM   27  O1  UNL     1      16.933  74.852  25.905  1.00  0.00    -0.377 OA
ATOM     28  H1  UNL     1      16.434  74.800  26.712  1.00  0.00     0.212 HD
ENDBRANCH  25  27
ENDBRANCH  23  25
ENDBRANCH   1  23
TORSDOF 8
ENDMDL
MODEL 4
REMARK VINA RESULT: -7.521725001      2.569      3.027
REMARK  8 active torsions:
REMARK  status: ('A' for Active; 'I' for Inactive)
REMARK    1  A    between atoms: C2_2  and  O1_3 
REMARK    2  A    between atoms: C2_2  and  N1_5 
REMARK    3  A    between atoms: N1_5  and  C3_7 
REMARK    4  A    between atoms: C4_10  and  N3_11 
REMARK    5  A    between atoms: C5_16  and  N5_17 
REMARK    6  A    between atoms: N5_17  and  C6_19 
REMARK    7  A    between atoms: C9_24  and  N8_25 
REMARK    8  A    between atoms: N8_25  and  O2_27 
ROOT
HETATM    1  C3  UNL     1      14.233  78.470  26.558  1.00  0.00     0.151 A 
HETATM    2  N2  UNL     1      12.951  78.085  26.457  1.00  0.00    -0.175 N 
ATOM      3  H2  UNL     1      12.234  78.643  26.920  1.00  0.00     0.186 HD
HETATM    4  C4  UNL     1      12.574  76.988  25.767  1.00  0.00     0.679 A 
HETATM    5  N4  UNL     1      13.483  76.218  25.137  1.00  0.00    -0.175 N 
ATOM      6  H4  UNL     1      13.196  75.390  24.615  1.00  0.00     0.186 HD
HETATM    7  C5  UNL     1      14.773  76.570  25.214  1.00  0.00     0.150 A 
HETATM    8  C9  UNL     1      15.185  77.700  25.922  1.00  0.00     0.142 A 
ENDROOT
BRANCH   7   9
HETATM    9  N5  UNL     1      15.676  75.886  24.643  1.00  0.00    -0.354 N 
ATOM     10  H5  UNL     1      16.239  76.348  23.930  1.00  0.00     0.163 HD
BRANCH   9  11
HETATM   11  C6  UNL     1      15.962  74.502  24.930  1.00  0.00     0.194 C 
HETATM   12  C7  UNL     1      16.367  73.860  23.601  1.00  0.00     0.061 C 
HETATM   13  C8  UNL     1      17.836  74.267  23.585  1.00  0.00     0.133 C 
HETATM   14  N6  UNL     1      18.189  73.979  24.982  1.00  0.00    -0.146 NA
HETATM   15  N7  UNL     1      17.137  74.434  25.734  1.00  0.00    -0.123 NA
ENDBRANCH   9  11
ENDBRANCH   7   9
BRANCH   8  16
HETATM   16  N8  UNL     1      16.553  78.061  25.996  1.00  0.00    -0.262 N 
ATOM     17  H8  UNL     1      16.817  78.989  25.665  1.00  0.00     0.194 HD
BRANCH  16  18
HETATM   18  O2  UNL     1      17.445  77.330  26.433  1.00  0.00    -0.289 OA
ATOM     19  H2  UNL     1      17.903  77.473  27.253  1.00  0.00     0.244 HD
ENDBRANCH  16  18
ENDBRANCH   8  16
BRANCH   4  20
HETATM   20  N3  UNL     1      11.331  76.636  25.684  1.00  0.00    -0.234 N 
ATOM     21  H32 UNL     1      10.908  76.198  26.503  1.00  0.00     0.174 HD
ATOM     22  H31 UNL     1      10.791  76.787  24.833  1.00  0.00     0.174 HD
ENDBRANCH   4  20
BRANCH   1  23
HETATM   23  N1  UNL     1      14.633  79.621  27.283  1.00  0.00    -0.348 N 
ATOM     24  H1  UNL     1      15.081  79.500  28.191  1.00  0.00     0.163 HD
BRANCH  23  25
HETATM   25  C2  UNL     1      14.426  80.965  26.778  1.00  0.00     0.215 C 
HETATM   26  C1  UNL     1      15.238  81.243  25.551  1.00  0.00     0.063 C 
BRANCH  25  27
HETATM   27  O1  UNL     1      13.072  81.034  26.383  1.00  0.00    -0.377 OA
ATOM     28  H1  UNL     1      12.714  81.813  26.793  1.00  0.00     0.212 HD
ENDBRANCH  25  27
ENDBRANCH  23  25
ENDBRANCH   1  23
TORSDOF 8
ENDMDL
MODEL 5
REMARK VINA RESULT: -7.412627098      1.870      5.348
REMARK  8 active torsions:
REMARK  status: ('A' for Active; 'I' for Inactive)
REMARK    1  A    between atoms: C2_2  and  O1_3 
REMARK    2  A    between atoms: C2_2  and  N1_5 
REMARK    3  A    between atoms: N1_5  and  C3_7 
REMARK    4  A    between atoms: C4_10  and  N3_11 
REMARK    5  A    between atoms: C5_16  and  N5_17 
REMARK    6  A    between atoms: N5_17  and  C6_19 
REMARK    7  A    between atoms: C9_24  and  N8_25 
REMARK    8  A    between atoms: N8_25  and  O2_27 
ROOT
HETATM    1  C3  UNL     1      14.351  78.101  26.920  1.00  0.00     0.151 A 
HETATM    2  N2  UNL     1      13.207  77.474  26.605  1.00  0.00    -0.175 N 
ATOM      3  H2  UNL     1      13.089  76.499  26.881  1.00  0.00     0.186 HD
HETATM    4  C4  UNL     1      12.205  78.084  25.935  1.00  0.00     0.679 A 
HETATM    5  N4  UNL     1      12.312  79.370  25.550  1.00  0.00    -0.175 N 
ATOM      6  H4  UNL     1      11.554  79.830  25.045  1.00  0.00     0.186 HD
HETATM    7  C5  UNL     1      13.439  80.030  25.847  1.00  0.00     0.150 A 
HETATM    8  C9  UNL     1      14.486  79.419  26.537  1.00  0.00     0.142 A 
ENDROOT
BRANCH   7   9
HETATM    9  N5  UNL     1      13.599  81.243  25.510  1.00  0.00    -0.354 N 
ATOM     10  H5  UNL     1      13.481  81.953  26.232  1.00  0.00     0.163 HD
BRANCH   9  11
HETATM   11  C6  UNL     1      13.936  81.688  24.180  1.00  0.00     0.194 C 
HETATM   12  C7  UNL     1      14.040  83.213  24.249  1.00  0.00     0.061 C 
HETATM   13  C8  UNL     1      15.472  83.326  24.760  1.00  0.00     0.133 C 
HETATM   14  N6  UNL     1      16.119  82.318  23.910  1.00  0.00    -0.146 NA
HETATM   15  N7  UNL     1      15.257  81.251  23.872  1.00  0.00    -0.123 NA
ENDBRANCH   9  11
ENDBRANCH   7   9
BRANCH   8  16
HETATM   16  N8  UNL     1      15.674  80.128  26.846  1.00  0.00    -0.262 N 
ATOM     17  H8  UNL     1      15.736  80.575  27.760  1.00  0.00     0.194 HD
BRANCH  16  18
HETATM   18  O2  UNL     1      16.638  80.240  26.084  1.00  0.00    -0.289 OA
ATOM     19  H2  UNL     1      16.570  80.441  25.158  1.00  0.00     0.244 HD
ENDBRANCH  16  18
ENDBRANCH   8  16
BRANCH   4  20
HETATM   20  N3  UNL     1      11.110  77.459  25.641  1.00  0.00    -0.234 N 
ATOM     21  H32 UNL     1      11.115  76.862  24.814  1.00  0.00     0.174 HD
ATOM     22  H31 UNL     1      10.272  77.559  26.212  1.00  0.00     0.174 HD
ENDBRANCH   4  20
BRANCH   1  23
HETATM   23  N1  UNL     1      15.405  77.463  27.622  1.00  0.00    -0.348 N 
ATOM     24  H1  UNL     1      15.458  77.571  28.635  1.00  0.00     0.163 HD
BRANCH  23  25
HETATM   25  C2  UNL     1      16.412  76.663  26.950  1.00  0.00     0.215 C 
HETATM   26  C1  UNL     1      15.884  76.006  25.713  1.00  0.00     0.063 C 
BRANCH  25  27
HETATM   27  O1  UNL     1      17.413  77.564  26.526  1.00  0.00    -0.377 OA
ATOM     28  H1  UNL     1      18.174  77.391  27.067  1.00  0.00     0.212 HD
ENDBRANCH  25  27
ENDBRANCH  23  25
ENDBRANCH   1  23
TORSDOF 8
ENDMDL
