MODEL 1
REMARK VINA RESULT: -7.957113599      0.000      0.000
REMARK  14 active torsions:
REMARK  status: ('A' for Active; 'I' for Inactive)
REMARK    1  A    between atoms: C2_2  and  C4_4 
REMARK    2  A    between atoms: N2_14  and  C11_15 
REMARK    3  A    between atoms: C11_15  and  C12_16 
REMARK    4  A    between atoms: C12_16  and  O1_17 
REMARK    5  A    between atoms: O1_17  and  C13_18 
REMARK    6  A    between atoms: C13_18  and  C14_19 
REMARK    7  A    between atoms: C14_19  and  C15_20 
REMARK    8  A    between atoms: C15_20  and  C16_21 
REMARK    9  A    between atoms: C16_21  and  C17_22 
REMARK   10  A    between atoms: C17_22  and  N3_23 
REMARK       I    between atoms: N3_23  and  C18_25 
REMARK       I    between atoms: C18_25  and  N5_33 
REMARK   11  A    between atoms: N4_26  and  C19_28 
REMARK   12  A    between atoms: C19_28  and  C20_29 
REMARK   13  A    between atoms: C20_29  and  C21_30 
REMARK   14  A    between atoms: C21_30  and  C22_31 
ROOT
HETATM    1  C14 UNL     1      11.831  -1.987  48.145  1.00  0.00     0.026 C 
ENDROOT
BRANCH   1   2
HETATM    2  C13 UNL     1      13.254  -2.406  48.396  1.00  0.00     0.167 C 
BRANCH   2   3
HETATM    3  O1  UNL     1      13.501  -3.012  49.566  1.00  0.00    -0.390 OA
BRANCH   3   4
HETATM    4  C12 UNL     1      14.047  -4.244  49.626  1.00  0.00     0.187 C 
BRANCH   4   5
HETATM    5  C11 UNL     1      15.552  -4.315  49.512  1.00  0.00     0.156 C 
BRANCH   5   6
HETATM    6  N2  UNL     1      16.065  -5.033  50.659  1.00  0.00    -0.332 N 
HETATM    7  C4  UNL     1      16.302  -6.378  50.734  1.00  0.00     0.088 A 
HETATM    8  N1  UNL     1      16.775  -6.617  51.970  1.00  0.00    -0.344 N 
HETATM    9  C5  UNL     1      16.853  -5.493  52.686  1.00  0.00     0.060 A 
ATOM     10  H1  UNL     1      17.039  -7.539  52.317  1.00  0.00     0.167 HD
HETATM   11  C6  UNL     1      17.274  -5.243  53.975  1.00  0.00     0.033 A 
HETATM   12  C10 UNL     1      16.393  -4.479  51.831  1.00  0.00     0.064 A 
HETATM   13  C7  UNL     1      17.245  -3.946  54.449  1.00  0.00     0.021 A 
HETATM   14  C8  UNL     1      16.792  -2.931  53.612  1.00  0.00     0.013 A 
HETATM   15 BR1  UNL     1      16.774  -1.150  54.311  1.00  0.00    -0.051 Br
HETATM   16  C9  UNL     1      16.370  -3.178  52.323  1.00  0.00     0.051 A 
BRANCH   7  17
HETATM   17  C2  UNL     1      16.055  -7.299  49.620  1.00  0.00     0.045 C 
HETATM   18  C1  UNL     1      14.735  -8.024  49.738  1.00  0.00     0.017 C 
HETATM   19  C3  UNL     1      17.145  -8.342  49.446  1.00  0.00     0.017 C 
ENDBRANCH   7  17
ENDBRANCH   5   6
ENDBRANCH   4   5
ENDBRANCH   3   4
ENDBRANCH   2   3
ENDBRANCH   1   2
BRANCH   1  20
HETATM   20  C15 UNL     1      11.065  -3.103  47.437  1.00  0.00     0.004 C 
BRANCH  20  21
HETATM   21  C16 UNL     1       9.719  -3.311  48.075  1.00  0.00     0.020 C 
BRANCH  21  22
HETATM   22  C17 UNL     1       9.696  -2.393  49.333  1.00  0.00     0.138 C 
BRANCH  22  23
HETATM   23  N3  UNL     1       8.389  -2.373  49.884  1.00  0.00    -0.226 N 
HETATM   24  C18 UNL     1       7.624  -1.241  50.134  1.00  0.00     0.682 C 
HETATM   25  N4  UNL     1       6.331  -1.393  50.416  1.00  0.00    -0.205 N 
HETATM   26  N5  UNL     1       8.049   0.088  50.084  1.00  0.00    -0.151 N 
ATOM     27  H4  UNL     1       5.796  -0.543  50.593  1.00  0.00     0.183 HD
HETATM   28  C23 UNL     1       7.129   1.250  50.228  1.00  0.00     0.151 C 
HETATM   29  C26 UNL     1       9.322   0.685  49.883  1.00  0.00     0.238 C 
HETATM   30  C24 UNL     1       7.721   2.253  49.282  1.00  0.00     0.030 C 
HETATM   31  C25 UNL     1       9.074   1.752  48.844  1.00  0.00     0.105 C 
HETATM   32  O2  UNL     1      10.395   0.380  50.453  1.00  0.00    -0.273 OA
ATOM     33  H3  UNL     1       7.972  -3.274  50.119  1.00  0.00     0.177 HD
BRANCH  25  34
HETATM   34  C19 UNL     1       5.632  -2.609  50.492  1.00  0.00     0.079 C 
BRANCH  34  35
HETATM   35  C20 UNL     1       4.748  -2.849  49.271  1.00  0.00     0.046 C 
BRANCH  35  36
HETATM   36  C21 UNL     1       5.418  -3.649  48.201  1.00  0.00     0.016 C 
BRANCH  36  37
HETATM   37  C22 UNL     1       6.040  -2.780  47.144  1.00  0.00     0.086 C 
HETATM   38  S1  UNL     1       4.999  -1.304  46.949  1.00  0.00    -0.098 SA
ENDBRANCH  36  37
ENDBRANCH  35  36
ENDBRANCH  34  35
ENDBRANCH  25  34
ENDBRANCH  22  23
ENDBRANCH  21  22
ENDBRANCH  20  21
ENDBRANCH   1  20
TORSDOF 14
ENDMDL
MODEL 2
REMARK VINA RESULT: -7.925179344      2.028      3.289
REMARK  14 active torsions:
REMARK  status: ('A' for Active; 'I' for Inactive)
REMARK    1  A    between atoms: C2_2  and  C4_4 
REMARK    2  A    between atoms: N2_14  and  C11_15 
REMARK    3  A    between atoms: C11_15  and  C12_16 
REMARK    4  A    between atoms: C12_16  and  O1_17 
REMARK    5  A    between atoms: O1_17  and  C13_18 
REMARK    6  A    between atoms: C13_18  and  C14_19 
REMARK    7  A    between atoms: C14_19  and  C15_20 
REMARK    8  A    between atoms: C15_20  and  C16_21 
REMARK    9  A    between atoms: C16_21  and  C17_22 
REMARK   10  A    between atoms: C17_22  and  N3_23 
REMARK       I    between atoms: N3_23  and  C18_25 
REMARK       I    between atoms: C18_25  and  N5_33 
REMARK   11  A    between atoms: N4_26  and  C19_28 
REMARK   12  A    between atoms: C19_28  and  C20_29 
REMARK   13  A    between atoms: C20_29  and  C21_30 
REMARK   14  A    between atoms: C21_30  and  C22_31 
ROOT
HETATM    1  C14 UNL     1      11.646  -1.956  47.987  1.00  0.00     0.026 C 
ENDROOT
BRANCH   1   2
HETATM    2  C13 UNL     1      13.101  -2.241  48.245  1.00  0.00     0.167 C 
BRANCH   2   3
HETATM    3  O1  UNL     1      13.396  -2.832  49.412  1.00  0.00    -0.390 OA
BRANCH   3   4
HETATM    4  C12 UNL     1      13.781  -4.123  49.476  1.00  0.00     0.187 C 
BRANCH   4   5
HETATM    5  C11 UNL     1      15.229  -4.407  49.149  1.00  0.00     0.156 C 
BRANCH   5   6
HETATM    6  N2  UNL     1      15.768  -5.277  50.173  1.00  0.00    -0.332 N 
HETATM    7  C4  UNL     1      16.510  -4.890  51.256  1.00  0.00     0.088 A 
HETATM    8  N1  UNL     1      16.798  -6.010  51.943  1.00  0.00    -0.344 N 
HETATM    9  C5  UNL     1      16.277  -7.089  51.354  1.00  0.00     0.060 A 
ATOM     10  H1  UNL     1      17.345  -6.031  52.804  1.00  0.00     0.167 HD
HETATM   11  C6  UNL     1      16.303  -8.427  51.685  1.00  0.00     0.033 A 
HETATM   12  C10 UNL     1      15.617  -6.604  50.215  1.00  0.00     0.064 A 
HETATM   13  C7  UNL     1      15.654  -9.331  50.867  1.00  0.00     0.021 A 
HETATM   14  C8  UNL     1      14.994  -8.864  49.735  1.00  0.00     0.013 A 
HETATM   15 BR1  UNL     1      14.106 -10.152  48.634  1.00  0.00    -0.051 Br
HETATM   16  C9  UNL     1      14.967  -7.527  49.401  1.00  0.00     0.051 A 
BRANCH   7  17
HETATM   17  C2  UNL     1      16.867  -3.494  51.526  1.00  0.00     0.045 C 
HETATM   18  C1  UNL     1      18.349  -3.231  51.399  1.00  0.00     0.017 C 
HETATM   19  C3  UNL     1      16.425  -3.013  52.898  1.00  0.00     0.017 C 
ENDBRANCH   7  17
ENDBRANCH   5   6
ENDBRANCH   4   5
ENDBRANCH   3   4
ENDBRANCH   2   3
ENDBRANCH   1   2
BRANCH   1  20
HETATM   20  C15 UNL     1      10.950  -3.197  47.434  1.00  0.00     0.004 C 
BRANCH  20  21
HETATM   21  C16 UNL     1       9.657  -3.449  48.158  1.00  0.00     0.020 C 
BRANCH  21  22
HETATM   22  C17 UNL     1       9.607  -2.409  49.316  1.00  0.00     0.138 C 
BRANCH  22  23
HETATM   23  N3  UNL     1       8.301  -2.375  49.870  1.00  0.00    -0.226 N 
HETATM   24  C18 UNL     1       7.559  -1.234  50.145  1.00  0.00     0.682 C 
HETATM   25  N4  UNL     1       6.263  -1.366  50.425  1.00  0.00    -0.205 N 
HETATM   26  N5  UNL     1       8.010   0.088  50.123  1.00  0.00    -0.151 N 
ATOM     27  H4  UNL     1       5.746  -0.509  50.621  1.00  0.00     0.183 HD
HETATM   28  C23 UNL     1       7.114   1.264  50.293  1.00  0.00     0.151 C 
HETATM   29  C26 UNL     1       9.295   0.664  49.933  1.00  0.00     0.238 C 
HETATM   30  C24 UNL     1       7.725   2.276  49.368  1.00  0.00     0.030 C 
HETATM   31  C25 UNL     1       9.067   1.757  48.918  1.00  0.00     0.105 C 
HETATM   32  O2  UNL     1      10.362   0.325  50.495  1.00  0.00    -0.273 OA
ATOM     33  H3  UNL     1       7.866  -3.273  50.085  1.00  0.00     0.177 HD
BRANCH  25  34
HETATM   34  C19 UNL     1       5.540  -2.569  50.475  1.00  0.00     0.079 C 
BRANCH  34  35
HETATM   35  C20 UNL     1       4.655  -2.768  49.248  1.00  0.00     0.046 C 
BRANCH  35  36
HETATM   36  C21 UNL     1       5.293  -3.600  48.184  1.00  0.00     0.016 C 
BRANCH  36  37
HETATM   37  C22 UNL     1       6.021  -2.767  47.167  1.00  0.00     0.086 C 
HETATM   38  S1  UNL     1       5.031  -1.276  46.853  1.00  0.00    -0.098 SA
ENDBRANCH  36  37
ENDBRANCH  35  36
ENDBRANCH  34  35
ENDBRANCH  25  34
ENDBRANCH  22  23
ENDBRANCH  21  22
ENDBRANCH  20  21
ENDBRANCH   1  20
TORSDOF 14
ENDMDL
MODEL 3
REMARK VINA RESULT: -7.810126583      4.350     10.161
REMARK  14 active torsions:
REMARK  status: ('A' for Active; 'I' for Inactive)
REMARK    1  A    between atoms: C2_2  and  C4_4 
REMARK    2  A    between atoms: N2_14  and  C11_15 
REMARK    3  A    between atoms: C11_15  and  C12_16 
REMARK    4  A    between atoms: C12_16  and  O1_17 
REMARK    5  A    between atoms: O1_17  and  C13_18 
REMARK    6  A    between atoms: C13_18  and  C14_19 
REMARK    7  A    between atoms: C14_19  and  C15_20 
REMARK    8  A    between atoms: C15_20  and  C16_21 
REMARK    9  A    between atoms: C16_21  and  C17_22 
REMARK   10  A    between atoms: C17_22  and  N3_23 
REMARK       I    between atoms: N3_23  and  C18_25 
REMARK       I    between atoms: C18_25  and  N5_33 
REMARK   11  A    between atoms: N4_26  and  C19_28 
REMARK   12  A    between atoms: C19_28  and  C20_29 
REMARK   13  A    between atoms: C20_29  and  C21_30 
REMARK   14  A    between atoms: C21_30  and  C22_31 
ROOT
HETATM    1  C14 UNL     1      10.497   0.231  49.647  1.00  0.00     0.026 C 
ENDROOT
BRANCH   1   2
HETATM    2  C13 UNL     1       9.403   0.945  48.903  1.00  0.00     0.167 C 
BRANCH   2   3
HETATM    3  O1  UNL     1       8.199   0.355  48.898  1.00  0.00    -0.390 OA
BRANCH   3   4
HETATM    4  C12 UNL     1       7.167   0.853  48.186  1.00  0.00     0.187 C 
BRANCH   4   5
HETATM    5  C11 UNL     1       6.036  -0.104  47.888  1.00  0.00     0.156 C 
BRANCH   5   6
HETATM    6  N2  UNL     1       5.517  -0.605  49.142  1.00  0.00    -0.332 N 
HETATM    7  C4  UNL     1       5.689  -1.866  49.644  1.00  0.00     0.088 A 
HETATM    8  N1  UNL     1       5.047  -1.900  50.826  1.00  0.00    -0.344 N 
HETATM    9  C5  UNL     1       4.477  -0.725  51.102  1.00  0.00     0.060 A 
ATOM     10  H1  UNL     1       5.002  -2.719  51.433  1.00  0.00     0.167 HD
HETATM   11  C6  UNL     1       3.732  -0.288  52.178  1.00  0.00     0.033 A 
HETATM   12  C10 UNL     1       4.786   0.100  50.011  1.00  0.00     0.064 A 
HETATM   13  C7  UNL     1       3.270   1.013  52.186  1.00  0.00     0.021 A 
HETATM   14  C8  UNL     1       3.570   1.844  51.111  1.00  0.00     0.013 A 
HETATM   15 BR1  UNL     1       2.912   3.639  51.169  1.00  0.00    -0.051 Br
HETATM   16  C9  UNL     1       4.314   1.409  50.034  1.00  0.00     0.051 A 
BRANCH   7  17
HETATM   17  C2  UNL     1       6.448  -2.910  48.948  1.00  0.00     0.045 C 
HETATM   18  C1  UNL     1       5.566  -3.866  48.181  1.00  0.00     0.017 C 
HETATM   19  C3  UNL     1       7.332  -3.731  49.872  1.00  0.00     0.017 C 
ENDBRANCH   7  17
ENDBRANCH   5   6
ENDBRANCH   4   5
ENDBRANCH   3   4
ENDBRANCH   2   3
ENDBRANCH   1   2
BRANCH   1  20
HETATM   20  C15 UNL     1      10.135  -1.240  49.845  1.00  0.00     0.004 C 
BRANCH  20  21
HETATM   21  C16 UNL     1      10.775  -2.093  48.786  1.00  0.00     0.020 C 
BRANCH  21  22
HETATM   22  C17 UNL     1      12.298  -1.774  48.843  1.00  0.00     0.138 C 
BRANCH  22  23
HETATM   23  N3  UNL     1      13.042  -2.968  48.654  1.00  0.00    -0.226 N 
HETATM   24  C18 UNL     1      14.398  -3.049  48.365  1.00  0.00     0.682 C 
HETATM   25  N4  UNL     1      15.002  -4.232  48.464  1.00  0.00    -0.205 N 
HETATM   26  N5  UNL     1      15.246  -1.998  48.010  1.00  0.00    -0.151 N 
ATOM     27  H4  UNL     1      15.998  -4.259  48.246  1.00  0.00     0.183 HD
HETATM   28  C23 UNL     1      16.719  -2.149  47.854  1.00  0.00     0.151 C 
HETATM   29  C26 UNL     1      15.015  -0.622  47.743  1.00  0.00     0.238 C 
HETATM   30  C24 UNL     1      17.238  -0.840  48.373  1.00  0.00     0.030 C 
HETATM   31  C25 UNL     1      16.069   0.097  48.549  1.00  0.00     0.105 C 
HETATM   32  O2  UNL     1      14.131  -0.138  47.000  1.00  0.00    -0.273 OA
ATOM     33  H3  UNL     1      12.533  -3.848  48.738  1.00  0.00     0.177 HD
BRANCH  25  34
HETATM   34  C19 UNL     1      14.403  -5.446  48.839  1.00  0.00     0.079 C 
BRANCH  34  35
HETATM   35  C20 UNL     1      15.404  -6.428  49.441  1.00  0.00     0.046 C 
BRANCH  35  36
HETATM   36  C21 UNL     1      15.704  -7.591  48.552  1.00  0.00     0.016 C 
BRANCH  36  37
HETATM   37  C22 UNL     1      15.110  -8.871  49.068  1.00  0.00     0.086 C 
HETATM   38  S1  UNL     1      15.582  -9.043  50.814  1.00  0.00    -0.098 SA
ENDBRANCH  36  37
ENDBRANCH  35  36
ENDBRANCH  34  35
ENDBRANCH  25  34
ENDBRANCH  22  23
ENDBRANCH  21  22
ENDBRANCH  20  21
ENDBRANCH   1  20
TORSDOF 14
ENDMDL
MODEL 4
REMARK VINA RESULT: -7.779154088      3.745     10.651
REMARK  14 active torsions:
REMARK  status: ('A' for Active; 'I' for Inactive)
REMARK    1  A    between atoms: C2_2  and  C4_4 
REMARK    2  A    between atoms: N2_14  and  C11_15 
REMARK    3  A    between atoms: C11_15  and  C12_16 
REMARK    4  A    between atoms: C12_16  and  O1_17 
REMARK    5  A    between atoms: O1_17  and  C13_18 
REMARK    6  A    between atoms: C13_18  and  C14_19 
REMARK    7  A    between atoms: C14_19  and  C15_20 
REMARK    8  A    between atoms: C15_20  and  C16_21 
REMARK    9  A    between atoms: C16_21  and  C17_22 
REMARK   10  A    between atoms: C17_22  and  N3_23 
REMARK       I    between atoms: N3_23  and  C18_25 
REMARK       I    between atoms: C18_25  and  N5_33 
REMARK   11  A    between atoms: N4_26  and  C19_28 
REMARK   12  A    between atoms: C19_28  and  C20_29 
REMARK   13  A    between atoms: C20_29  and  C21_30 
REMARK   14  A    between atoms: C21_30  and  C22_31 
ROOT
HETATM    1  C14 UNL     1      11.967  -1.992  48.229  1.00  0.00     0.026 C 
ENDROOT
BRANCH   1   2
HETATM    2  C13 UNL     1      11.283  -1.046  49.178  1.00  0.00     0.167 C 
BRANCH   2   3
HETATM    3  O1  UNL     1      10.580  -0.048  48.624  1.00  0.00    -0.390 OA
BRANCH   3   4
HETATM    4  C12 UNL     1       9.689   0.674  49.336  1.00  0.00     0.187 C 
BRANCH   4   5
HETATM    5  C11 UNL     1       8.627  -0.111  50.071  1.00  0.00     0.156 C 
BRANCH   5   6
HETATM    6  N2  UNL     1       7.596  -0.482  49.127  1.00  0.00    -0.332 N 
HETATM    7  C4  UNL     1       7.365  -1.737  48.631  1.00  0.00     0.088 A 
HETATM    8  N1  UNL     1       6.317  -1.632  47.793  1.00  0.00    -0.344 N 
HETATM    9  C5  UNL     1       5.869  -0.376  47.732  1.00  0.00     0.060 A 
ATOM     10  H1  UNL     1       5.917  -2.412  47.272  1.00  0.00     0.167 HD
HETATM   11  C6  UNL     1       4.835   0.204  47.028  1.00  0.00     0.033 A 
HETATM   12  C10 UNL     1       6.700   0.355  48.594  1.00  0.00     0.064 A 
HETATM   13  C7  UNL     1       4.602   1.558  47.175  1.00  0.00     0.021 A 
HETATM   14  C8  UNL     1       5.419   2.295  48.028  1.00  0.00     0.013 A 
HETATM   15 BR1  UNL     1       5.056   4.165  48.201  1.00  0.00    -0.051 Br
HETATM   16  C9  UNL     1       6.453   1.717  48.731  1.00  0.00     0.051 A 
BRANCH   7  17
HETATM   17  C2  UNL     1       8.164  -2.907  49.006  1.00  0.00     0.045 C 
HETATM   18  C1  UNL     1       8.578  -3.742  47.817  1.00  0.00     0.017 C 
HETATM   19  C3  UNL     1       7.466  -3.822  49.997  1.00  0.00     0.017 C 
ENDBRANCH   7  17
ENDBRANCH   5   6
ENDBRANCH   4   5
ENDBRANCH   3   4
ENDBRANCH   2   3
ENDBRANCH   1   2
BRANCH   1  20
HETATM   20  C15 UNL     1      12.666  -3.109  49.002  1.00  0.00     0.004 C 
BRANCH  20  21
HETATM   21  C16 UNL     1      13.995  -3.435  48.379  1.00  0.00     0.020 C 
BRANCH  21  22
HETATM   22  C17 UNL     1      14.421  -4.809  48.975  1.00  0.00     0.138 C 
BRANCH  22  23
HETATM   23  N3  UNL     1      14.937  -4.621  50.283  1.00  0.00    -0.226 N 
HETATM   24  C18 UNL     1      15.760  -5.502  50.972  1.00  0.00     0.682 C 
HETATM   25  N4  UNL     1      16.363  -5.078  52.082  1.00  0.00    -0.205 N 
HETATM   26  N5  UNL     1      16.079  -6.812  50.609  1.00  0.00    -0.151 N 
ATOM     27  H4  UNL     1      16.962  -5.748  52.564  1.00  0.00     0.183 HD
HETATM   28  C23 UNL     1      17.083  -7.642  51.330  1.00  0.00     0.151 C 
HETATM   29  C26 UNL     1      15.629  -7.658  49.561  1.00  0.00     0.238 C 
HETATM   30  C24 UNL     1      17.717  -8.426  50.218  1.00  0.00     0.030 C 
HETATM   31  C25 UNL     1      16.896  -8.227  48.969  1.00  0.00     0.105 C 
HETATM   32  O2  UNL     1      14.442  -7.870  49.222  1.00  0.00    -0.273 OA
ATOM     33  H3  UNL     1      14.678  -3.758  50.763  1.00  0.00     0.177 HD
BRANCH  25  34
HETATM   34  C19 UNL     1      16.255  -3.799  52.653  1.00  0.00     0.079 C 
BRANCH  34  35
HETATM   35  C20 UNL     1      17.473  -2.927  52.362  1.00  0.00     0.046 C 
BRANCH  35  36
HETATM   36  C21 UNL     1      17.306  -2.057  51.158  1.00  0.00     0.016 C 
BRANCH  36  37
HETATM   37  C22 UNL     1      18.256  -2.423  50.053  1.00  0.00     0.086 C 
HETATM   38  S1  UNL     1      17.627  -1.693  48.512  1.00  0.00    -0.098 SA
ENDBRANCH  36  37
ENDBRANCH  35  36
ENDBRANCH  34  35
ENDBRANCH  25  34
ENDBRANCH  22  23
ENDBRANCH  21  22
ENDBRANCH  20  21
ENDBRANCH   1  20
TORSDOF 14
ENDMDL
MODEL 5
REMARK VINA RESULT: -7.768241932      3.782      9.940
REMARK  14 active torsions:
REMARK  status: ('A' for Active; 'I' for Inactive)
REMARK    1  A    between atoms: C2_2  and  C4_4 
REMARK    2  A    between atoms: N2_14  and  C11_15 
REMARK    3  A    between atoms: C11_15  and  C12_16 
REMARK    4  A    between atoms: C12_16  and  O1_17 
REMARK    5  A    between atoms: O1_17  and  C13_18 
REMARK    6  A    between atoms: C13_18  and  C14_19 
REMARK    7  A    between atoms: C14_19  and  C15_20 
REMARK    8  A    between atoms: C15_20  and  C16_21 
REMARK    9  A    between atoms: C16_21  and  C17_22 
REMARK   10  A    between atoms: C17_22  and  N3_23 
REMARK       I    between atoms: N3_23  and  C18_25 
REMARK       I    between atoms: C18_25  and  N5_33 
REMARK   11  A    between atoms: N4_26  and  C19_28 
REMARK   12  A    between atoms: C19_28  and  C20_29 
REMARK   13  A    between atoms: C20_29  and  C21_30 
REMARK   14  A    between atoms: C21_30  and  C22_31 
ROOT
HETATM    1  C14 UNL     1      12.264  -3.016  48.416  1.00  0.00     0.026 C 
ENDROOT
BRANCH   1   2
HETATM    2  C13 UNL     1      12.272  -1.519  48.550  1.00  0.00     0.167 C 
BRANCH   2   3
HETATM    3  O1  UNL     1      11.112  -0.890  48.305  1.00  0.00    -0.390 OA
BRANCH   3   4
HETATM    4  C12 UNL     1      10.638   0.070  49.125  1.00  0.00     0.187 C 
BRANCH   4   5
HETATM    5  C11 UNL     1       9.514  -0.335  50.050  1.00  0.00     0.156 C 
BRANCH   5   6
HETATM    6  N2  UNL     1       8.309  -0.495  49.265  1.00  0.00    -0.332 N 
HETATM    7  C4  UNL     1       7.743  -1.680  48.883  1.00  0.00     0.088 A 
HETATM    8  N1  UNL     1       6.642  -1.369  48.175  1.00  0.00    -0.344 N 
HETATM    9  C5  UNL     1       6.478  -0.047  48.089  1.00  0.00     0.060 A 
ATOM     10  H1  UNL     1       6.013  -2.056  47.758  1.00  0.00     0.167 HD
HETATM   11  C6  UNL     1       5.512   0.728  47.482  1.00  0.00     0.033 A 
HETATM   12  C10 UNL     1       7.557   0.505  48.794  1.00  0.00     0.064 A 
HETATM   13  C7  UNL     1       5.606   2.103  47.568  1.00  0.00     0.021 A 
HETATM   14  C8  UNL     1       6.671   2.664  48.266  1.00  0.00     0.013 A 
HETATM   15 BR1  UNL     1       6.758   4.573  48.362  1.00  0.00    -0.051 Br
HETATM   16  C9  UNL     1       7.638   1.892  48.873  1.00  0.00     0.051 A 
BRANCH   7  17
HETATM   17  C2  UNL     1       8.307  -2.988  49.232  1.00  0.00     0.045 C 
HETATM   18  C1  UNL     1       8.670  -3.813  48.021  1.00  0.00     0.017 C 
HETATM   19  C3  UNL     1       7.392  -3.826  50.108  1.00  0.00     0.017 C 
ENDBRANCH   7  17
ENDBRANCH   5   6
ENDBRANCH   4   5
ENDBRANCH   3   4
ENDBRANCH   2   3
ENDBRANCH   1   2
BRANCH   1  20
HETATM   20  C15 UNL     1      13.574  -3.503  47.800  1.00  0.00     0.004 C 
BRANCH  20  21
HETATM   21  C16 UNL     1      14.602  -2.406  47.802  1.00  0.00     0.020 C 
BRANCH  21  22
HETATM   22  C17 UNL     1      15.841  -2.983  48.547  1.00  0.00     0.138 C 
BRANCH  22  23
HETATM   23  N3  UNL     1      15.529  -4.266  49.069  1.00  0.00    -0.226 N 
HETATM   24  C18 UNL     1      15.830  -4.725  50.345  1.00  0.00     0.682 C 
HETATM   25  N4  UNL     1      15.256  -5.849  50.770  1.00  0.00    -0.205 N 
HETATM   26  N5  UNL     1      16.658  -4.110  51.286  1.00  0.00    -0.151 N 
ATOM     27  H4  UNL     1      15.496  -6.159  51.712  1.00  0.00     0.183 HD
HETATM   28  C23 UNL     1      16.815  -4.598  52.684  1.00  0.00     0.151 C 
HETATM   29  C26 UNL     1      17.489  -2.959  51.232  1.00  0.00     0.238 C 
HETATM   30  C24 UNL     1      16.955  -3.321  53.461  1.00  0.00     0.030 C 
HETATM   31  C25 UNL     1      17.141  -2.188  52.483  1.00  0.00     0.105 C 
HETATM   32  O2  UNL     1      18.318  -2.670  50.338  1.00  0.00    -0.273 OA
ATOM     33  H3  UNL     1      15.038  -4.910  48.448  1.00  0.00     0.177 HD
BRANCH  25  34
HETATM   34  C19 UNL     1      14.353  -6.649  50.051  1.00  0.00     0.079 C 
BRANCH  34  35
HETATM   35  C20 UNL     1      15.058  -7.672  49.166  1.00  0.00     0.046 C 
BRANCH  35  36
HETATM   36  C21 UNL     1      14.891  -9.080  49.637  1.00  0.00     0.016 C 
BRANCH  36  37
HETATM   37  C22 UNL     1      15.786  -9.403  50.800  1.00  0.00     0.086 C 
HETATM   38  S1  UNL     1      17.444  -8.760  50.426  1.00  0.00    -0.098 SA
ENDBRANCH  36  37
ENDBRANCH  35  36
ENDBRANCH  34  35
ENDBRANCH  25  34
ENDBRANCH  22  23
ENDBRANCH  21  22
ENDBRANCH  20  21
ENDBRANCH   1  20
TORSDOF 14
ENDMDL
