MODEL 1
REMARK VINA RESULT: -8.736428996      0.000      0.000
REMARK  16 active torsions:
REMARK  status: ('A' for Active; 'I' for Inactive)
REMARK    1  A    between atoms: N1_2  and  C2_3 
REMARK    2  A    between atoms: C2_3  and  C3_4 
REMARK    3  A    between atoms: C6_7  and  C7_8 
REMARK    4  A    between atoms: C7_8  and  C8_9 
REMARK    5  A    between atoms: C8_9  and  C9_10 
REMARK    6  A    between atoms: C9_10  and  N3_14 
REMARK    7  A    between atoms: C12_17  and  C13_18 
REMARK       I    between atoms: C13_18  and  N4_20 
REMARK    8  A    between atoms: N4_20  and  C14_22 
REMARK    9  A    between atoms: C14_22  and  C15_23 
REMARK   10  A    between atoms: C15_23  and  C16_24 
REMARK   11  A    between atoms: C16_24  and  C17_25 
REMARK   12  A    between atoms: C17_25  and  C18_26 
REMARK   13  A    between atoms: C18_26  and  C19_27 
REMARK   14  A    between atoms: C19_27  and  C20_28 
REMARK       I    between atoms: C20_28  and  N5_30 
REMARK   15  A    between atoms: C21_32  and  C22_33 
REMARK   16  A    between atoms: C22_33  and  N6_34 
ROOT
HETATM    1  N3  UNL     1       8.721  -2.901  48.845  1.00  0.00    -0.371 N 
HETATM    2  C10 UNL     1       8.984  -1.527  49.285  1.00  0.00     0.125 C 
HETATM    3  C11 UNL     1      10.297  -1.544  50.023  1.00  0.00     0.034 C 
HETATM    4  C12 UNL     1      11.387  -1.916  49.069  1.00  0.00     0.081 C 
HETATM    5  C23 UNL     1      10.839  -2.533  47.789  1.00  0.00     0.034 C 
HETATM    6  C24 UNL     1       9.805  -3.576  48.152  1.00  0.00     0.125 C 
ENDROOT
BRANCH   1   7
HETATM    7  C9  UNL     1       7.471  -3.518  49.089  1.00  0.00     0.072 C 
HETATM    8  N2  UNL     1       7.115  -3.769  50.301  1.00  0.00    -0.389 N 
ATOM      9  H22 UNL     1       6.214  -4.214  50.478  1.00  0.00     0.157 HD
ATOM     10  H21 UNL     1       7.743  -3.517  51.066  1.00  0.00     0.157 HD
BRANCH   7  11
HETATM   11  C8  UNL     1       6.560  -3.883  47.980  1.00  0.00     0.080 C 
BRANCH  11  12
HETATM   12  C7  UNL     1       5.142  -3.386  48.256  1.00  0.00     0.046 C 
BRANCH  12  13
HETATM   13  C6  UNL     1       5.119  -1.902  48.226  1.00  0.00    -0.058 A 
HETATM   14  C5  UNL     1       5.370  -1.275  47.038  1.00  0.00     0.007 A 
HETATM   15  C4  UNL     1       5.355   0.123  46.965  1.00  0.00     0.009 A 
HETATM   16  C3  UNL     1       5.087   0.890  48.079  1.00  0.00    -0.032 A 
HETATM   17  C26 UNL     1       4.837   0.229  49.262  1.00  0.00     0.009 A 
HETATM   18  C25 UNL     1       4.850  -1.151  49.344  1.00  0.00     0.007 A 
BRANCH  16  19
HETATM   19  C2  UNL     1       5.059   2.349  48.038  1.00  0.00     0.275 C 
BRANCH  19  20
HETATM   20  N1  UNL     1       6.240   3.019  48.491  1.00  0.00    -0.067 N 
HETATM   21  C1  UNL     1       6.028   4.445  48.175  1.00  0.00     0.272 C 
HETATM   22  C27 UNL     1       6.362   2.903  49.934  1.00  0.00     0.237 C 
HETATM   23  C28 UNL     1       7.372   3.917  50.433  1.00  0.00     0.028 C 
HETATM   24  C29 UNL     1       8.715   3.658  49.769  1.00  0.00     0.003 C 
HETATM   25  C30 UNL     1       8.609   2.484  48.823  1.00  0.00     0.028 C 
HETATM   26  C31 UNL     1       7.457   2.645  47.843  1.00  0.00     0.237 C 
ENDBRANCH  19  20
ENDBRANCH  16  19
ENDBRANCH  12  13
ENDBRANCH  11  12
ENDBRANCH   7  11
ENDBRANCH   1   7
BRANCH   4  27
HETATM   27  C13 UNL     1      12.124  -0.683  48.663  1.00  0.00     0.221 C 
HETATM   28  O1  UNL     1      11.547   0.417  48.811  1.00  0.00    -0.273 OA
HETATM   29  N4  UNL     1      13.418  -0.745  48.136  1.00  0.00    -0.361 N 
ATOM     30  H4  UNL     1      13.838  -1.670  48.047  1.00  0.00     0.162 HD
BRANCH  29  31
HETATM   31  C14 UNL     1      14.226   0.396  47.699  1.00  0.00     0.122 C 
BRANCH  31  32
HETATM   32  C15 UNL     1      15.554   0.324  48.343  1.00  0.00     0.020 C 
BRANCH  32  33
HETATM   33  C16 UNL     1      16.518  -0.634  47.805  1.00  0.00     0.002 C 
BRANCH  33  34
HETATM   34  C17 UNL     1      17.349  -1.459  48.676  1.00  0.00     0.001 C 
BRANCH  34  35
HETATM   35  C18 UNL     1      16.781  -2.698  49.227  1.00  0.00     0.009 C 
BRANCH  35  36
HETATM   36  C19 UNL     1      15.732  -3.336  48.296  1.00  0.00     0.103 C 
BRANCH  36  37
HETATM   37  C20 UNL     1      14.658  -3.964  49.026  1.00  0.00     0.221 C 
HETATM   38  O2  UNL     1      14.115  -3.436  50.024  1.00  0.00    -0.273 OA
HETATM   39  N5  UNL     1      14.158  -5.254  48.618  1.00  0.00    -0.339 N 
HETATM   40  C21 UNL     1      14.560  -6.350  49.147  1.00  0.00     0.090 C 
ATOM     41  H5  UNL     1      13.455  -5.295  47.879  1.00  0.00     0.167 HD
BRANCH  40  42
HETATM   42  C22 UNL     1      15.572  -6.339  50.212  1.00  0.00     0.274 C 
BRANCH  42  43
HETATM   43  N6  UNL     1      16.680  -7.174  49.776  1.00  0.00    -0.075 N 
ATOM     44  H63 UNL     1      16.708  -7.299  48.764  1.00  0.00     0.274 HD
ATOM     45  H62 UNL     1      17.587  -6.718  49.879  1.00  0.00     0.274 HD
ATOM     46  H61 UNL     1      16.619  -8.057  50.283  1.00  0.00     0.274 HD
ENDBRANCH  42  43
ENDBRANCH  40  42
ENDBRANCH  36  37
ENDBRANCH  35  36
ENDBRANCH  34  35
ENDBRANCH  33  34
ENDBRANCH  32  33
ENDBRANCH  31  32
ENDBRANCH  29  31
ENDBRANCH   4  27
TORSDOF 16
ENDMDL
MODEL 2
REMARK VINA RESULT: -8.623747363      1.882      4.834
REMARK  16 active torsions:
REMARK  status: ('A' for Active; 'I' for Inactive)
REMARK    1  A    between atoms: N1_2  and  C2_3 
REMARK    2  A    between atoms: C2_3  and  C3_4 
REMARK    3  A    between atoms: C6_7  and  C7_8 
REMARK    4  A    between atoms: C7_8  and  C8_9 
REMARK    5  A    between atoms: C8_9  and  C9_10 
REMARK    6  A    between atoms: C9_10  and  N3_14 
REMARK    7  A    between atoms: C12_17  and  C13_18 
REMARK       I    between atoms: C13_18  and  N4_20 
REMARK    8  A    between atoms: N4_20  and  C14_22 
REMARK    9  A    between atoms: C14_22  and  C15_23 
REMARK   10  A    between atoms: C15_23  and  C16_24 
REMARK   11  A    between atoms: C16_24  and  C17_25 
REMARK   12  A    between atoms: C17_25  and  C18_26 
REMARK   13  A    between atoms: C18_26  and  C19_27 
REMARK   14  A    between atoms: C19_27  and  C20_28 
REMARK       I    between atoms: C20_28  and  N5_30 
REMARK   15  A    between atoms: C21_32  and  C22_33 
REMARK   16  A    between atoms: C22_33  and  N6_34 
ROOT
HETATM    1  N3  UNL     1       7.599   2.858  49.614  1.00  0.00    -0.371 N 
HETATM    2  C10 UNL     1       8.225   2.047  50.664  1.00  0.00     0.125 C 
HETATM    3  C11 UNL     1       7.924   0.606  50.345  1.00  0.00     0.034 C 
HETATM    4  C12 UNL     1       8.588   0.243  49.056  1.00  0.00     0.081 C 
HETATM    5  C23 UNL     1       9.017   1.475  48.269  1.00  0.00     0.034 C 
HETATM    6  C24 UNL     1       7.872   2.463  48.243  1.00  0.00     0.125 C 
ENDROOT
BRANCH   1   7
HETATM    7  C9  UNL     1       6.778   3.964  49.940  1.00  0.00     0.072 C 
HETATM    8  N2  UNL     1       7.244   4.897  50.696  1.00  0.00    -0.389 N 
ATOM      9  H22 UNL     1       6.652   5.694  50.931  1.00  0.00     0.157 HD
ATOM     10  H21 UNL     1       8.199   4.822  51.046  1.00  0.00     0.157 HD
BRANCH   7  11
HETATM   11  C8  UNL     1       5.392   4.073  49.431  1.00  0.00     0.080 C 
BRANCH  11  12
HETATM   12  C7  UNL     1       4.446   3.184  50.234  1.00  0.00     0.046 C 
BRANCH  12  13
HETATM   13  C6  UNL     1       4.442   1.813  49.662  1.00  0.00    -0.058 A 
HETATM   14  C5  UNL     1       4.441   1.681  48.301  1.00  0.00     0.007 A 
HETATM   15  C4  UNL     1       4.440   0.407  47.721  1.00  0.00     0.009 A 
HETATM   16  C3  UNL     1       4.442  -0.730  48.501  1.00  0.00    -0.032 A 
HETATM   17  C26 UNL     1       4.443  -0.564  49.868  1.00  0.00     0.009 A 
HETATM   18  C25 UNL     1       4.444   0.689  50.452  1.00  0.00     0.007 A 
BRANCH  16  19
HETATM   19  C2  UNL     1       4.445  -2.073  47.928  1.00  0.00     0.275 C 
BRANCH  19  20
HETATM   20  N1  UNL     1       5.540  -2.918  48.301  1.00  0.00    -0.067 N 
HETATM   21  C1  UNL     1       5.234  -4.237  47.713  1.00  0.00     0.272 C 
HETATM   22  C27 UNL     1       6.772  -2.443  47.694  1.00  0.00     0.237 C 
HETATM   23  C28 UNL     1       7.820  -3.534  47.770  1.00  0.00     0.028 C 
HETATM   24  C29 UNL     1       8.059  -3.900  49.227  1.00  0.00     0.003 C 
HETATM   25  C30 UNL     1       7.171  -3.069  50.124  1.00  0.00     0.028 C 
HETATM   26  C31 UNL     1       5.711  -3.137  49.701  1.00  0.00     0.237 C 
ENDBRANCH  19  20
ENDBRANCH  16  19
ENDBRANCH  12  13
ENDBRANCH  11  12
ENDBRANCH   7  11
ENDBRANCH   1   7
BRANCH   4  27
HETATM   27  C13 UNL     1       9.832  -0.530  49.345  1.00  0.00     0.221 C 
HETATM   28  O1  UNL     1      10.038  -0.881  50.528  1.00  0.00    -0.273 OA
HETATM   29  N4  UNL     1      10.742  -0.856  48.335  1.00  0.00    -0.361 N 
ATOM     30  H4  UNL     1      10.515  -0.547  47.390  1.00  0.00     0.162 HD
BRANCH  29  31
HETATM   31  C14 UNL     1      11.992  -1.599  48.509  1.00  0.00     0.122 C 
BRANCH  31  32
HETATM   32  C15 UNL     1      11.774  -3.010  48.127  1.00  0.00     0.020 C 
BRANCH  32  33
HETATM   33  C16 UNL     1      12.953  -3.828  47.850  1.00  0.00     0.002 C 
BRANCH  33  34
HETATM   34  C17 UNL     1      14.293  -3.254  47.800  1.00  0.00     0.001 C 
BRANCH  34  35
HETATM   35  C18 UNL     1      15.300  -3.728  48.760  1.00  0.00     0.009 C 
BRANCH  35  36
HETATM   36  C19 UNL     1      14.674  -4.442  49.974  1.00  0.00     0.103 C 
BRANCH  36  37
HETATM   37  C20 UNL     1      15.553  -5.435  50.542  1.00  0.00     0.221 C 
HETATM   38  O2  UNL     1      16.772  -5.225  50.747  1.00  0.00    -0.273 OA
HETATM   39  N5  UNL     1      15.045  -6.735  50.907  1.00  0.00    -0.339 N 
HETATM   40  C21 UNL     1      15.128  -7.751  50.131  1.00  0.00     0.090 C 
ATOM     41  H5  UNL     1      14.601  -6.849  51.818  1.00  0.00     0.167 HD
BRANCH  40  42
HETATM   42  C22 UNL     1      15.758  -7.633  48.808  1.00  0.00     0.274 C 
BRANCH  42  43
HETATM   43  N6  UNL     1      17.175  -7.920  48.969  1.00  0.00    -0.075 N 
ATOM     44  H63 UNL     1      17.538  -7.634  49.878  1.00  0.00     0.274 HD
ATOM     45  H62 UNL     1      17.372  -8.917  49.054  1.00  0.00     0.274 HD
ATOM     46  H61 UNL     1      17.668  -7.483  48.189  1.00  0.00     0.274 HD
ENDBRANCH  42  43
ENDBRANCH  40  42
ENDBRANCH  36  37
ENDBRANCH  35  36
ENDBRANCH  34  35
ENDBRANCH  33  34
ENDBRANCH  32  33
ENDBRANCH  31  32
ENDBRANCH  29  31
ENDBRANCH   4  27
TORSDOF 16
ENDMDL
MODEL 3
REMARK VINA RESULT: -8.615253562      0.870      1.213
REMARK  16 active torsions:
REMARK  status: ('A' for Active; 'I' for Inactive)
REMARK    1  A    between atoms: N1_2  and  C2_3 
REMARK    2  A    between atoms: C2_3  and  C3_4 
REMARK    3  A    between atoms: C6_7  and  C7_8 
REMARK    4  A    between atoms: C7_8  and  C8_9 
REMARK    5  A    between atoms: C8_9  and  C9_10 
REMARK    6  A    between atoms: C9_10  and  N3_14 
REMARK    7  A    between atoms: C12_17  and  C13_18 
REMARK       I    between atoms: C13_18  and  N4_20 
REMARK    8  A    between atoms: N4_20  and  C14_22 
REMARK    9  A    between atoms: C14_22  and  C15_23 
REMARK   10  A    between atoms: C15_23  and  C16_24 
REMARK   11  A    between atoms: C16_24  and  C17_25 
REMARK   12  A    between atoms: C17_25  and  C18_26 
REMARK   13  A    between atoms: C18_26  and  C19_27 
REMARK   14  A    between atoms: C19_27  and  C20_28 
REMARK       I    between atoms: C20_28  and  N5_30 
REMARK   15  A    between atoms: C21_32  and  C22_33 
REMARK   16  A    between atoms: C22_33  and  N6_34 
ROOT
HETATM    1  N3  UNL     1       8.747  -2.936  48.926  1.00  0.00    -0.371 N 
HETATM    2  C10 UNL     1       9.193  -1.621  49.397  1.00  0.00     0.125 C 
HETATM    3  C11 UNL     1      10.554  -1.812  50.014  1.00  0.00     0.034 C 
HETATM    4  C12 UNL     1      11.513  -2.247  48.952  1.00  0.00     0.081 C 
HETATM    5  C23 UNL     1      10.796  -2.738  47.702  1.00  0.00     0.034 C 
HETATM    6  C24 UNL     1       9.690  -3.685  48.112  1.00  0.00     0.125 C 
ENDROOT
BRANCH   1   7
HETATM    7  C9  UNL     1       7.463  -3.431  49.255  1.00  0.00     0.072 C 
HETATM    8  N2  UNL     1       7.165  -3.650  50.489  1.00  0.00    -0.389 N 
ATOM      9  H22 UNL     1       6.240  -4.007  50.727  1.00  0.00     0.157 HD
ATOM     10  H21 UNL     1       7.863  -3.462  51.209  1.00  0.00     0.157 HD
BRANCH   7  11
HETATM   11  C8  UNL     1       6.449  -3.704  48.210  1.00  0.00     0.080 C 
BRANCH  11  12
HETATM   12  C7  UNL     1       5.058  -3.282  48.679  1.00  0.00     0.046 C 
BRANCH  12  13
HETATM   13  C6  UNL     1       4.922  -1.807  48.576  1.00  0.00    -0.058 A 
HETATM   14  C5  UNL     1       4.804  -1.087  49.732  1.00  0.00     0.007 A 
HETATM   15  C4  UNL     1       4.676   0.307  49.680  1.00  0.00     0.009 A 
HETATM   16  C3  UNL     1       4.669   0.976  48.475  1.00  0.00    -0.032 A 
HETATM   17  C26 UNL     1       4.791   0.222  47.328  1.00  0.00     0.009 A 
HETATM   18  C25 UNL     1       4.917  -1.154  47.368  1.00  0.00     0.007 A 
BRANCH  16  19
HETATM   19  C2  UNL     1       4.543   2.427  48.385  1.00  0.00     0.275 C 
BRANCH  19  20
HETATM   20  N1  UNL     1       5.739   3.183  48.603  1.00  0.00    -0.067 N 
HETATM   21  C1  UNL     1       5.400   4.571  48.232  1.00  0.00     0.272 C 
HETATM   22  C27 UNL     1       6.086   3.179  50.015  1.00  0.00     0.237 C 
HETATM   23  C28 UNL     1       7.100   4.273  50.283  1.00  0.00     0.028 C 
HETATM   24  C29 UNL     1       8.339   4.028  49.436  1.00  0.00     0.003 C 
HETATM   25  C30 UNL     1       8.157   2.785  48.597  1.00  0.00     0.028 C 
HETATM   26  C31 UNL     1       6.862   2.820  47.800  1.00  0.00     0.237 C 
ENDBRANCH  19  20
ENDBRANCH  16  19
ENDBRANCH  12  13
ENDBRANCH  11  12
ENDBRANCH   7  11
ENDBRANCH   1   7
BRANCH   4  27
HETATM   27  C13 UNL     1      12.343  -1.079  48.534  1.00  0.00     0.221 C 
HETATM   28  O1  UNL     1      11.813   0.054  48.564  1.00  0.00    -0.273 OA
HETATM   29  N4  UNL     1      13.670  -1.235  48.121  1.00  0.00    -0.361 N 
ATOM     30  H4  UNL     1      14.047  -2.182  48.125  1.00  0.00     0.162 HD
BRANCH  29  31
HETATM   31  C14 UNL     1      14.568  -0.164  47.683  1.00  0.00     0.122 C 
BRANCH  31  32
HETATM   32  C15 UNL     1      15.967  -0.621  47.813  1.00  0.00     0.020 C 
BRANCH  32  33
HETATM   33  C16 UNL     1      16.192  -2.017  48.184  1.00  0.00     0.002 C 
BRANCH  33  34
HETATM   34  C17 UNL     1      16.852  -2.384  49.433  1.00  0.00     0.001 C 
BRANCH  34  35
HETATM   35  C18 UNL     1      16.478  -3.648  50.083  1.00  0.00     0.009 C 
BRANCH  35  36
HETATM   36  C19 UNL     1      14.967  -3.936  49.998  1.00  0.00     0.103 C 
BRANCH  36  37
HETATM   37  C20 UNL     1      14.649  -4.916  48.989  1.00  0.00     0.221 C 
HETATM   38  O2  UNL     1      13.569  -4.911  48.352  1.00  0.00    -0.273 OA
HETATM   39  N5  UNL     1      15.591  -5.960  48.666  1.00  0.00    -0.339 N 
HETATM   40  C21 UNL     1      15.529  -7.130  49.185  1.00  0.00     0.090 C 
ATOM     41  H5  UNL     1      16.335  -5.759  47.998  1.00  0.00     0.167 HD
BRANCH  40  42
HETATM   42  C22 UNL     1      14.475  -7.464  50.153  1.00  0.00     0.274 C 
BRANCH  42  43
HETATM   43  N6  UNL     1      15.115  -8.082  51.304  1.00  0.00    -0.075 N 
ATOM     44  H63 UNL     1      15.830  -8.761  51.044  1.00  0.00     0.274 HD
ATOM     45  H62 UNL     1      15.721  -7.439  51.814  1.00  0.00     0.274 HD
ATOM     46  H61 UNL     1      14.380  -8.482  51.888  1.00  0.00     0.274 HD
ENDBRANCH  42  43
ENDBRANCH  40  42
ENDBRANCH  36  37
ENDBRANCH  35  36
ENDBRANCH  34  35
ENDBRANCH  33  34
ENDBRANCH  32  33
ENDBRANCH  31  32
ENDBRANCH  29  31
ENDBRANCH   4  27
TORSDOF 16
ENDMDL
MODEL 4
REMARK VINA RESULT: -8.593853930      1.833      5.192
REMARK  16 active torsions:
REMARK  status: ('A' for Active; 'I' for Inactive)
REMARK    1  A    between atoms: N1_2  and  C2_3 
REMARK    2  A    between atoms: C2_3  and  C3_4 
REMARK    3  A    between atoms: C6_7  and  C7_8 
REMARK    4  A    between atoms: C7_8  and  C8_9 
REMARK    5  A    between atoms: C8_9  and  C9_10 
REMARK    6  A    between atoms: C9_10  and  N3_14 
REMARK    7  A    between atoms: C12_17  and  C13_18 
REMARK       I    between atoms: C13_18  and  N4_20 
REMARK    8  A    between atoms: N4_20  and  C14_22 
REMARK    9  A    between atoms: C14_22  and  C15_23 
REMARK   10  A    between atoms: C15_23  and  C16_24 
REMARK   11  A    between atoms: C16_24  and  C17_25 
REMARK   12  A    between atoms: C17_25  and  C18_26 
REMARK   13  A    between atoms: C18_26  and  C19_27 
REMARK   14  A    between atoms: C19_27  and  C20_28 
REMARK       I    between atoms: C20_28  and  N5_30 
REMARK   15  A    between atoms: C21_32  and  C22_33 
REMARK   16  A    between atoms: C22_33  and  N6_34 
ROOT
HETATM    1  N3  UNL     1       7.646   2.846  49.640  1.00  0.00    -0.371 N 
HETATM    2  C10 UNL     1       8.263   2.000  50.667  1.00  0.00     0.125 C 
HETATM    3  C11 UNL     1       7.906   0.574  50.338  1.00  0.00     0.034 C 
HETATM    4  C12 UNL     1       8.532   0.206  49.031  1.00  0.00     0.081 C 
HETATM    5  C23 UNL     1       8.989   1.431  48.251  1.00  0.00     0.034 C 
HETATM    6  C24 UNL     1       7.879   2.458  48.259  1.00  0.00     0.125 C 
ENDROOT
BRANCH   1   7
HETATM    7  C9  UNL     1       6.870   3.975  49.995  1.00  0.00     0.072 C 
HETATM    8  N2  UNL     1       7.377   4.875  50.764  1.00  0.00    -0.389 N 
ATOM      9  H22 UNL     1       6.818   5.689  51.020  1.00  0.00     0.157 HD
ATOM     10  H21 UNL     1       8.332   4.757  51.104  1.00  0.00     0.157 HD
BRANCH   7  11
HETATM   11  C8  UNL     1       5.484   4.146  49.502  1.00  0.00     0.080 C 
BRANCH  11  12
HETATM   12  C7  UNL     1       4.520   3.239  50.263  1.00  0.00     0.046 C 
BRANCH  12  13
HETATM   13  C6  UNL     1       4.505   1.891  49.639  1.00  0.00    -0.058 A 
HETATM   14  C5  UNL     1       4.474   0.799  50.461  1.00  0.00     0.007 A 
HETATM   15  C4  UNL     1       4.456  -0.490  49.914  1.00  0.00     0.009 A 
HETATM   16  C3  UNL     1       4.468  -0.684  48.550  1.00  0.00    -0.032 A 
HETATM   17  C26 UNL     1       4.499   0.436  47.748  1.00  0.00     0.009 A 
HETATM   18  C25 UNL     1       4.517   1.713  48.277  1.00  0.00     0.007 A 
BRANCH  16  19
HETATM   19  C2  UNL     1       4.446  -2.013  47.947  1.00  0.00     0.275 C 
BRANCH  19  20
HETATM   20  N1  UNL     1       5.511  -2.895  48.317  1.00  0.00    -0.067 N 
HETATM   21  C1  UNL     1       5.178  -4.193  47.699  1.00  0.00     0.272 C 
HETATM   22  C27 UNL     1       6.764  -2.442  47.735  1.00  0.00     0.237 C 
HETATM   23  C28 UNL     1       7.781  -3.564  47.805  1.00  0.00     0.028 C 
HETATM   24  C29 UNL     1       7.989  -3.965  49.257  1.00  0.00     0.003 C 
HETATM   25  C30 UNL     1       7.112  -3.126  50.158  1.00  0.00     0.028 C 
HETATM   26  C31 UNL     1       5.657  -3.146  49.715  1.00  0.00     0.237 C 
ENDBRANCH  19  20
ENDBRANCH  16  19
ENDBRANCH  12  13
ENDBRANCH  11  12
ENDBRANCH   7  11
ENDBRANCH   1   7
BRANCH   4  27
HETATM   27  C13 UNL     1       9.754  -0.614  49.287  1.00  0.00     0.221 C 
HETATM   28  O1  UNL     1      10.023  -0.904  50.474  1.00  0.00    -0.273 OA
HETATM   29  N4  UNL     1      10.576  -1.047  48.242  1.00  0.00    -0.361 N 
ATOM     30  H4  UNL     1      10.300  -0.784  47.296  1.00  0.00     0.162 HD
BRANCH  29  31
HETATM   31  C14 UNL     1      11.797  -1.844  48.380  1.00  0.00     0.122 C 
BRANCH  31  32
HETATM   32  C15 UNL     1      11.568  -3.185  47.805  1.00  0.00     0.020 C 
BRANCH  32  33
HETATM   33  C16 UNL     1      12.707  -4.100  47.740  1.00  0.00     0.002 C 
BRANCH  33  34
HETATM   34  C17 UNL     1      13.917  -3.877  48.523  1.00  0.00     0.001 C 
BRANCH  34  35
HETATM   35  C18 UNL     1      14.262  -4.841  49.578  1.00  0.00     0.009 C 
BRANCH  35  36
HETATM   36  C19 UNL     1      15.777  -4.908  49.850  1.00  0.00     0.103 C 
BRANCH  36  37
HETATM   37  C20 UNL     1      16.261  -3.748  50.557  1.00  0.00     0.221 C 
HETATM   38  O2  UNL     1      15.576  -3.137  51.410  1.00  0.00    -0.273 OA
HETATM   39  N5  UNL     1      17.587  -3.241  50.302  1.00  0.00    -0.339 N 
HETATM   40  C21 UNL     1      17.815  -2.282  49.483  1.00  0.00     0.090 C 
ATOM     41  H5  UNL     1      18.375  -3.662  50.795  1.00  0.00     0.167 HD
BRANCH  40  42
HETATM   42  C22 UNL     1      16.710  -1.647  48.750  1.00  0.00     0.274 C 
BRANCH  42  43
HETATM   43  N6  UNL     1      16.744  -0.224  49.050  1.00  0.00    -0.075 N 
ATOM     44  H63 UNL     1      17.352   0.001  49.838  1.00  0.00     0.274 HD
ATOM     45  H62 UNL     1      17.237   0.320  48.342  1.00  0.00     0.274 HD
ATOM     46  H61 UNL     1      15.782   0.085  49.190  1.00  0.00     0.274 HD
ENDBRANCH  42  43
ENDBRANCH  40  42
ENDBRANCH  36  37
ENDBRANCH  35  36
ENDBRANCH  34  35
ENDBRANCH  33  34
ENDBRANCH  32  33
ENDBRANCH  31  32
ENDBRANCH  29  31
ENDBRANCH   4  27
TORSDOF 16
ENDMDL
MODEL 5
REMARK VINA RESULT: -8.577826803      1.185      1.438
REMARK  16 active torsions:
REMARK  status: ('A' for Active; 'I' for Inactive)
REMARK    1  A    between atoms: N1_2  and  C2_3 
REMARK    2  A    between atoms: C2_3  and  C3_4 
REMARK    3  A    between atoms: C6_7  and  C7_8 
REMARK    4  A    between atoms: C7_8  and  C8_9 
REMARK    5  A    between atoms: C8_9  and  C9_10 
REMARK    6  A    between atoms: C9_10  and  N3_14 
REMARK    7  A    between atoms: C12_17  and  C13_18 
REMARK       I    between atoms: C13_18  and  N4_20 
REMARK    8  A    between atoms: N4_20  and  C14_22 
REMARK    9  A    between atoms: C14_22  and  C15_23 
REMARK   10  A    between atoms: C15_23  and  C16_24 
REMARK   11  A    between atoms: C16_24  and  C17_25 
REMARK   12  A    between atoms: C17_25  and  C18_26 
REMARK   13  A    between atoms: C18_26  and  C19_27 
REMARK   14  A    between atoms: C19_27  and  C20_28 
REMARK       I    between atoms: C20_28  and  N5_30 
REMARK   15  A    between atoms: C21_32  and  C22_33 
REMARK   16  A    between atoms: C22_33  and  N6_34 
ROOT
HETATM    1  N3  UNL     1       8.491  -2.580  48.322  1.00  0.00    -0.371 N 
HETATM    2  C10 UNL     1       8.281  -1.152  48.585  1.00  0.00     0.125 C 
HETATM    3  C11 UNL     1       8.809  -0.876  49.969  1.00  0.00     0.034 C 
HETATM    4  C12 UNL     1      10.285  -1.113  49.982  1.00  0.00     0.081 C 
HETATM    5  C23 UNL     1      10.746  -1.912  48.771  1.00  0.00     0.034 C 
HETATM    6  C24 UNL     1       9.823  -3.096  48.585  1.00  0.00     0.125 C 
ENDROOT
BRANCH   1   7
HETATM    7  C9  UNL     1       7.440  -3.394  47.838  1.00  0.00     0.072 C 
HETATM    8  N2  UNL     1       7.410  -3.714  46.590  1.00  0.00    -0.389 N 
ATOM      9  H22 UNL     1       6.652  -4.300  46.240  1.00  0.00     0.157 HD
ATOM     10  H21 UNL     1       8.147  -3.373  45.973  1.00  0.00     0.157 HD
BRANCH   7  11
HETATM   11  C8  UNL     1       6.369  -3.888  48.734  1.00  0.00     0.080 C 
BRANCH  11  12
HETATM   12  C7  UNL     1       4.997  -3.429  48.246  1.00  0.00     0.046 C 
BRANCH  12  13
HETATM   13  C6  UNL     1       4.883  -1.955  48.387  1.00  0.00    -0.058 A 
HETATM   14  C5  UNL     1       4.696  -1.210  47.256  1.00  0.00     0.007 A 
HETATM   15  C4  UNL     1       4.581   0.183  47.346  1.00  0.00     0.009 A 
HETATM   16  C3  UNL     1       4.652   0.826  48.563  1.00  0.00    -0.032 A 
HETATM   17  C26 UNL     1       4.840   0.047  49.684  1.00  0.00     0.009 A 
HETATM   18  C25 UNL     1       4.956  -1.328  49.607  1.00  0.00     0.007 A 
BRANCH  16  19
HETATM   19  C2  UNL     1       4.532   2.275  48.692  1.00  0.00     0.275 C 
BRANCH  19  20
HETATM   20  N1  UNL     1       5.757   3.015  48.688  1.00  0.00    -0.067 N 
HETATM   21  C1  UNL     1       5.383   4.390  48.301  1.00  0.00     0.272 C 
HETATM   22  C27 UNL     1       6.314   3.074  50.029  1.00  0.00     0.237 C 
HETATM   23  C28 UNL     1       7.372   4.158  50.084  1.00  0.00     0.028 C 
HETATM   24  C29 UNL     1       8.464   3.847  49.074  1.00  0.00     0.003 C 
HETATM   25  C30 UNL     1       8.141   2.568  48.337  1.00  0.00     0.028 C 
HETATM   26  C31 UNL     1       6.741   2.590  47.744  1.00  0.00     0.237 C 
ENDBRANCH  19  20
ENDBRANCH  16  19
ENDBRANCH  12  13
ENDBRANCH  11  12
ENDBRANCH   7  11
ENDBRANCH   1   7
BRANCH   4  27
HETATM   27  C13 UNL     1      10.992   0.200  49.918  1.00  0.00     0.221 C 
HETATM   28  O1  UNL     1      10.605   1.109  50.686  1.00  0.00    -0.273 OA
HETATM   29  N4  UNL     1      12.054   0.417  49.034  1.00  0.00    -0.361 N 
ATOM     30  H4  UNL     1      12.328  -0.365  48.439  1.00  0.00     0.162 HD
BRANCH  29  31
HETATM   31  C14 UNL     1      12.809   1.663  48.883  1.00  0.00     0.122 C 
BRANCH  31  32
HETATM   32  C15 UNL     1      14.149   1.354  48.340  1.00  0.00     0.020 C 
BRANCH  32  33
HETATM   33  C16 UNL     1      14.356   0.030  47.758  1.00  0.00     0.002 C 
BRANCH  33  34
HETATM   34  C17 UNL     1      15.643  -0.654  47.841  1.00  0.00     0.001 C 
BRANCH  34  35
HETATM   35  C18 UNL     1      15.711  -2.076  47.475  1.00  0.00     0.009 C 
BRANCH  35  36
HETATM   36  C19 UNL     1      14.773  -2.954  48.326  1.00  0.00     0.103 C 
BRANCH  36  37
HETATM   37  C20 UNL     1      15.475  -3.657  49.371  1.00  0.00     0.221 C 
HETATM   38  O2  UNL     1      16.718  -3.592  49.517  1.00  0.00    -0.273 OA
HETATM   39  N5  UNL     1      14.751  -4.478  50.311  1.00  0.00    -0.339 N 
HETATM   40  C21 UNL     1      14.618  -5.744  50.163  1.00  0.00     0.090 C 
ATOM     41  H5  UNL     1      14.328  -4.033  51.126  1.00  0.00     0.167 HD
BRANCH  40  42
HETATM   42  C22 UNL     1      15.209  -6.427  49.004  1.00  0.00     0.274 C 
BRANCH  42  43
HETATM   43  N6  UNL     1      16.518  -6.921  49.404  1.00  0.00    -0.075 N 
ATOM     44  H63 UNL     1      17.285  -6.397  48.984  1.00  0.00     0.274 HD
ATOM     45  H62 UNL     1      16.736  -6.721  50.380  1.00  0.00     0.274 HD
ATOM     46  H61 UNL     1      16.551  -7.917  49.186  1.00  0.00     0.274 HD
ENDBRANCH  42  43
ENDBRANCH  40  42
ENDBRANCH  36  37
ENDBRANCH  35  36
ENDBRANCH  34  35
ENDBRANCH  33  34
ENDBRANCH  32  33
ENDBRANCH  31  32
ENDBRANCH  29  31
ENDBRANCH   4  27
TORSDOF 16
ENDMDL
