MODEL 1
REMARK VINA RESULT: -9.101396875      0.000      0.000
REMARK  14 active torsions:
REMARK  status: ('A' for Active; 'I' for Inactive)
REMARK    1  A    between atoms: N1_2  and  C3_4 
REMARK    2  A    between atoms: N1_2  and  C21_31 
REMARK    3  A    between atoms: C3_4  and  C4_5 
REMARK    4  A    between atoms: C4_5  and  C5_6 
REMARK    5  A    between atoms: C5_6  and  C6_7 
REMARK    6  A    between atoms: C6_7  and  C7_8 
REMARK    7  A    between atoms: C7_8  and  C8_9 
REMARK    8  A    between atoms: C8_9  and  C9_10 
REMARK    9  A    between atoms: C9_10  and  C10_11 
REMARK   10  A    between atoms: C10_11  and  N2_12 
REMARK       I    between atoms: N2_12  and  C11_14 
REMARK   11  A    between atoms: C11_14  and  C12_16 
REMARK   12  A    between atoms: C12_16  and  C13_17 
REMARK   13  A    between atoms: C13_17  and  N3_18 
REMARK       I    between atoms: N3_18  and  C14_20 
REMARK   14  A    between atoms: N5_22  and  C15_24 
ROOT
HETATM    1  C10 UNL     1      12.374  -4.000  47.400  1.00  0.00     0.122 C 
ENDROOT
BRANCH   1   2
HETATM    2  C9  UNL     1      11.269  -3.012  47.210  1.00  0.00     0.020 C 
BRANCH   2   3
HETATM    3  C8  UNL     1      10.628  -2.641  48.549  1.00  0.00     0.002 C 
BRANCH   3   4
HETATM    4  C7  UNL     1      10.877  -1.192  48.926  1.00  0.00     0.004 C 
BRANCH   4   5
HETATM    5  C6  UNL     1       9.929  -0.767  49.967  1.00  0.00     0.027 C 
BRANCH   5   6
HETATM    6  C5  UNL     1       9.619   0.670  50.087  1.00  0.00    -0.025 C 
BRANCH   6   7
HETATM    7  C4  UNL     1       8.395   1.252  49.587  1.00  0.00     0.021 C 
BRANCH   7   8
HETATM    8  C3  UNL     1       7.520   0.863  48.509  1.00  0.00     0.204 C 
BRANCH   8   9
HETATM    9  N1  UNL     1       6.325   0.137  48.689  1.00  0.00    -0.023 N 
HETATM   10  C1  UNL     1       5.769   0.470  49.997  1.00  0.00     0.280 C 
HETATM   11  C2  UNL     1       5.261   0.424  47.736  1.00  0.00     0.280 C 
BRANCH   9  12
HETATM   12  C21 UNL     1       6.452  -1.316  48.674  1.00  0.00     0.428 C 
HETATM   13  C22 UNL     1       6.327  -1.994  47.359  1.00  0.00     0.071 C 
HETATM   14  C23 UNL     1       6.415  -3.503  47.686  1.00  0.00    -0.009 C 
HETATM   15  C24 UNL     1       7.566  -3.836  48.551  1.00  0.00     0.006 C 
HETATM   16  C28 UNL     1       5.079  -3.924  48.256  1.00  0.00     0.035 C 
HETATM   17  C25 UNL     1       7.413  -3.584  49.999  1.00  0.00     0.031 C 
HETATM   18  C26 UNL     1       6.188  -2.921  50.466  1.00  0.00     0.275 C 
HETATM   19  N6  UNL     1       5.551  -1.992  49.578  1.00  0.00     0.120 N 
HETATM   20  C27 UNL     1       4.483  -2.706  48.921  1.00  0.00     0.275 C 
ENDBRANCH   9  12
ENDBRANCH   8   9
ENDBRANCH   7   8
ENDBRANCH   6   7
ENDBRANCH   5   6
ENDBRANCH   4   5
ENDBRANCH   3   4
ENDBRANCH   2   3
ENDBRANCH   1   2
BRANCH   1  21
HETATM   21  N2  UNL     1      13.666  -3.428  47.185  1.00  0.00    -0.361 N 
HETATM   22  C11 UNL     1      14.369  -2.786  48.222  1.00  0.00     0.219 C 
HETATM   23  O1  UNL     1      13.907  -2.692  49.367  1.00  0.00    -0.274 OA
ATOM     24  H2  UNL     1      14.090  -3.487  46.258  1.00  0.00     0.162 HD
BRANCH  22  25
HETATM   25  C12 UNL     1      15.719  -2.215  47.868  1.00  0.00     0.122 C 
BRANCH  25  26
HETATM   26  C13 UNL     1      16.640  -2.506  49.007  1.00  0.00     0.131 C 
BRANCH  26  27
HETATM   27  N3  UNL     1      16.461  -3.821  49.583  1.00  0.00    -0.364 N 
HETATM   28  C14 UNL     1      16.430  -4.026  50.974  1.00  0.00     0.188 C 
HETATM   29  N4  UNL     1      16.725  -2.947  51.842  1.00  0.00    -0.064 NA
HETATM   30  N5  UNL     1      16.138  -5.141  51.483  1.00  0.00    -0.331 N 
ATOM     31  H5  UNL     1      16.150  -5.163  52.503  1.00  0.00     0.168 HD
ATOM     32  H3  UNL     1      16.355  -4.623  48.962  1.00  0.00     0.162 HD
BRANCH  30  33
HETATM   33  C15 UNL     1      15.800  -6.357  50.871  1.00  0.00     0.034 A 
HETATM   34  C16 UNL     1      16.626  -7.448  50.808  1.00  0.00     0.031 A 
HETATM   35  C17 UNL     1      16.225  -8.601  50.198  1.00  0.00     0.021 A 
HETATM   36  C18 UNL     1      14.983  -8.696  49.632  1.00  0.00     0.011 A 
HETATM   37 BR1  UNL     1      14.380 -10.281  48.773  1.00  0.00    -0.051 Br
HETATM   38  C19 UNL     1      14.135  -7.610  49.684  1.00  0.00     0.021 A 
HETATM   39  C20 UNL     1      14.542  -6.451  50.299  1.00  0.00     0.031 A 
ENDBRANCH  30  33
ENDBRANCH  26  27
ENDBRANCH  25  26
ENDBRANCH  22  25
ENDBRANCH   1  21
TORSDOF 14
ENDMDL
MODEL 2
REMARK VINA RESULT: -9.066986189      1.430      2.590
REMARK  14 active torsions:
REMARK  status: ('A' for Active; 'I' for Inactive)
REMARK    1  A    between atoms: N1_2  and  C3_4 
REMARK    2  A    between atoms: N1_2  and  C21_31 
REMARK    3  A    between atoms: C3_4  and  C4_5 
REMARK    4  A    between atoms: C4_5  and  C5_6 
REMARK    5  A    between atoms: C5_6  and  C6_7 
REMARK    6  A    between atoms: C6_7  and  C7_8 
REMARK    7  A    between atoms: C7_8  and  C8_9 
REMARK    8  A    between atoms: C8_9  and  C9_10 
REMARK    9  A    between atoms: C9_10  and  C10_11 
REMARK   10  A    between atoms: C10_11  and  N2_12 
REMARK       I    between atoms: N2_12  and  C11_14 
REMARK   11  A    between atoms: C11_14  and  C12_16 
REMARK   12  A    between atoms: C12_16  and  C13_17 
REMARK   13  A    between atoms: C13_17  and  N3_18 
REMARK       I    between atoms: N3_18  and  C14_20 
REMARK   14  A    between atoms: N5_22  and  C15_24 
ROOT
HETATM    1  C10 UNL     1      10.402  -0.259  49.510  1.00  0.00     0.122 C 
ENDROOT
BRANCH   1   2
HETATM    2  C9  UNL     1      11.001   1.105  49.395  1.00  0.00     0.020 C 
BRANCH   2   3
HETATM    3  C8  UNL     1      10.601   1.983  50.583  1.00  0.00     0.002 C 
BRANCH   3   4
HETATM    4  C7  UNL     1      10.214   3.388  50.157  1.00  0.00     0.004 C 
BRANCH   4   5
HETATM    5  C6  UNL     1       8.752   3.502  50.051  1.00  0.00     0.027 C 
BRANCH   5   6
HETATM    6  C5  UNL     1       8.146   3.509  48.707  1.00  0.00    -0.025 C 
BRANCH   6   7
HETATM    7  C4  UNL     1       7.274   2.459  48.234  1.00  0.00     0.021 C 
BRANCH   7   8
HETATM    8  C3  UNL     1       7.411   1.024  48.242  1.00  0.00     0.204 C 
BRANCH   8   9
HETATM    9  N1  UNL     1       6.525   0.152  48.907  1.00  0.00    -0.023 N 
HETATM   10  C1  UNL     1       6.800   0.213  50.340  1.00  0.00     0.280 C 
HETATM   11  C2  UNL     1       5.109   0.467  48.775  1.00  0.00     0.280 C 
BRANCH   9  12
HETATM   12  C21 UNL     1       6.625  -1.257  48.547  1.00  0.00     0.428 C 
HETATM   13  C22 UNL     1       5.799  -1.726  47.406  1.00  0.00     0.071 C 
HETATM   14  C23 UNL     1       6.054  -3.250  47.336  1.00  0.00    -0.009 C 
HETATM   15  C24 UNL     1       7.492  -3.592  47.361  1.00  0.00     0.006 C 
HETATM   16  C28 UNL     1       5.253  -3.897  48.443  1.00  0.00     0.035 C 
HETATM   17  C25 UNL     1       8.160  -3.592  48.679  1.00  0.00     0.031 C 
HETATM   18  C26 UNL     1       7.392  -3.148  49.850  1.00  0.00     0.275 C 
HETATM   19  N6  UNL     1       6.370  -2.162  49.643  1.00  0.00     0.120 N 
HETATM   20  C27 UNL     1       5.118  -2.872  49.544  1.00  0.00     0.275 C 
ENDBRANCH   9  12
ENDBRANCH   8   9
ENDBRANCH   7   8
ENDBRANCH   6   7
ENDBRANCH   5   6
ENDBRANCH   4   5
ENDBRANCH   3   4
ENDBRANCH   2   3
ENDBRANCH   1   2
BRANCH   1  21
HETATM   21  N2  UNL     1      10.794  -1.124  48.441  1.00  0.00    -0.361 N 
HETATM   22  C11 UNL     1      11.779  -2.113  48.619  1.00  0.00     0.219 C 
HETATM   23  O1  UNL     1      12.346  -2.287  49.707  1.00  0.00    -0.274 OA
ATOM     24  H2  UNL     1      10.350  -1.022  47.529  1.00  0.00     0.162 HD
BRANCH  22  25
HETATM   25  C12 UNL     1      12.112  -2.957  47.414  1.00  0.00     0.122 C 
BRANCH  25  26
HETATM   26  C13 UNL     1      13.599  -2.975  47.277  1.00  0.00     0.131 C 
BRANCH  26  27
HETATM   27  N3  UNL     1      14.229  -4.123  47.893  1.00  0.00    -0.364 N 
HETATM   28  C14 UNL     1      15.310  -3.990  48.783  1.00  0.00     0.188 C 
HETATM   29  N4  UNL     1      15.898  -2.718  48.976  1.00  0.00    -0.064 NA
HETATM   30  N5  UNL     1      15.774  -4.969  49.427  1.00  0.00    -0.331 N 
ATOM     31  H5  UNL     1      16.559  -4.745  50.040  1.00  0.00     0.168 HD
ATOM     32  H3  UNL     1      13.880  -5.056  47.674  1.00  0.00     0.162 HD
BRANCH  30  33
HETATM   33  C15 UNL     1      15.385  -6.316  49.436  1.00  0.00     0.034 A 
HETATM   34  C16 UNL     1      14.442  -6.844  50.279  1.00  0.00     0.031 A 
HETATM   35  C17 UNL     1      14.113  -8.167  50.227  1.00  0.00     0.021 A 
HETATM   36  C18 UNL     1      14.719  -9.003  49.328  1.00  0.00     0.011 A 
HETATM   37 BR1  UNL     1      14.292 -10.852  49.218  1.00  0.00    -0.051 Br
HETATM   38  C19 UNL     1      15.670  -8.493  48.471  1.00  0.00     0.021 A 
HETATM   39  C20 UNL     1      16.000  -7.161  48.526  1.00  0.00     0.031 A 
ENDBRANCH  30  33
ENDBRANCH  26  27
ENDBRANCH  25  26
ENDBRANCH  22  25
ENDBRANCH   1  21
TORSDOF 14
ENDMDL
MODEL 3
REMARK VINA RESULT: -9.029658214      1.550      3.615
REMARK  14 active torsions:
REMARK  status: ('A' for Active; 'I' for Inactive)
REMARK    1  A    between atoms: N1_2  and  C3_4 
REMARK    2  A    between atoms: N1_2  and  C21_31 
REMARK    3  A    between atoms: C3_4  and  C4_5 
REMARK    4  A    between atoms: C4_5  and  C5_6 
REMARK    5  A    between atoms: C5_6  and  C6_7 
REMARK    6  A    between atoms: C6_7  and  C7_8 
REMARK    7  A    between atoms: C7_8  and  C8_9 
REMARK    8  A    between atoms: C8_9  and  C9_10 
REMARK    9  A    between atoms: C9_10  and  C10_11 
REMARK   10  A    between atoms: C10_11  and  N2_12 
REMARK       I    between atoms: N2_12  and  C11_14 
REMARK   11  A    between atoms: C11_14  and  C12_16 
REMARK   12  A    between atoms: C12_16  and  C13_17 
REMARK   13  A    between atoms: C13_17  and  N3_18 
REMARK       I    between atoms: N3_18  and  C14_20 
REMARK   14  A    between atoms: N5_22  and  C15_24 
ROOT
HETATM    1  C10 UNL     1       9.644  -3.170  48.244  1.00  0.00     0.122 C 
ENDROOT
BRANCH   1   2
HETATM    2  C9  UNL     1       8.733  -3.103  49.426  1.00  0.00     0.020 C 
BRANCH   2   3
HETATM    3  C8  UNL     1       7.475  -3.945  49.200  1.00  0.00     0.002 C 
BRANCH   3   4
HETATM    4  C7  UNL     1       6.272  -3.398  49.946  1.00  0.00     0.004 C 
BRANCH   4   5
HETATM    5  C6  UNL     1       5.158  -3.168  49.015  1.00  0.00     0.027 C 
BRANCH   5   6
HETATM    6  C5  UNL     1       5.438  -3.202  47.567  1.00  0.00    -0.025 C 
BRANCH   6   7
HETATM    7  C4  UNL     1       5.585  -2.007  46.769  1.00  0.00     0.021 C 
BRANCH   7   8
HETATM    8  C3  UNL     1       4.716  -0.873  46.572  1.00  0.00     0.204 C 
BRANCH   8   9
HETATM    9  N1  UNL     1       5.080   0.457  46.862  1.00  0.00    -0.023 N 
HETATM   10  C1  UNL     1       5.843   0.987  45.735  1.00  0.00     0.280 C 
HETATM   11  C2  UNL     1       3.976   1.389  47.050  1.00  0.00     0.280 C 
BRANCH   9  12
HETATM   12  C21 UNL     1       5.927   0.647  48.034  1.00  0.00     0.428 C 
HETATM   13  C22 UNL     1       5.265   0.606  49.362  1.00  0.00     0.071 C 
HETATM   14  C23 UNL     1       6.392   0.925  50.372  1.00  0.00    -0.009 C 
HETATM   15  C24 UNL     1       7.604   0.106  50.156  1.00  0.00     0.006 C 
HETATM   16  C28 UNL     1       6.644   2.415  50.320  1.00  0.00     0.035 C 
HETATM   17  C25 UNL     1       8.520   0.533  49.078  1.00  0.00     0.031 C 
HETATM   18  C26 UNL     1       8.117   1.661  48.227  1.00  0.00     0.275 C 
HETATM   19  N6  UNL     1       6.714   1.857  47.999  1.00  0.00     0.120 N 
HETATM   20  C27 UNL     1       6.278   2.872  48.927  1.00  0.00     0.275 C 
ENDBRANCH   9  12
ENDBRANCH   8   9
ENDBRANCH   7   8
ENDBRANCH   6   7
ENDBRANCH   5   6
ENDBRANCH   4   5
ENDBRANCH   3   4
ENDBRANCH   2   3
ENDBRANCH   1   2
BRANCH   1  21
HETATM   21  N2  UNL     1      10.869  -2.462  48.453  1.00  0.00    -0.361 N 
HETATM   22  C11 UNL     1      12.089  -2.934  47.934  1.00  0.00     0.219 C 
HETATM   23  O1  UNL     1      12.159  -3.977  47.269  1.00  0.00    -0.274 OA
ATOM     24  H2  UNL     1      10.858  -1.595  48.990  1.00  0.00     0.162 HD
BRANCH  22  25
HETATM   25  C12 UNL     1      13.313  -2.103  48.229  1.00  0.00     0.122 C 
BRANCH  25  26
HETATM   26  C13 UNL     1      14.463  -2.731  47.513  1.00  0.00     0.131 C 
BRANCH  26  27
HETATM   27  N3  UNL     1      14.899  -3.984  48.091  1.00  0.00    -0.364 N 
HETATM   28  C14 UNL     1      15.752  -4.032  49.208  1.00  0.00     0.188 C 
HETATM   29  N4  UNL     1      16.322  -2.834  49.698  1.00  0.00    -0.064 NA
HETATM   30  N5  UNL     1      16.024  -5.111  49.800  1.00  0.00    -0.331 N 
ATOM     31  H5  UNL     1      16.656  -5.016  50.595  1.00  0.00     0.168 HD
ATOM     32  H3  UNL     1      14.577  -4.859  47.676  1.00  0.00     0.162 HD
BRANCH  30  33
HETATM   33  C15 UNL     1      15.599  -6.422  49.539  1.00  0.00     0.034 A 
HETATM   34  C16 UNL     1      16.199  -7.266  48.641  1.00  0.00     0.031 A 
HETATM   35  C17 UNL     1      15.729  -8.532  48.444  1.00  0.00     0.021 A 
HETATM   36  C18 UNL     1      14.644  -8.991  49.140  1.00  0.00     0.011 A 
HETATM   37 BR1  UNL     1      13.955 -10.747  48.900  1.00  0.00    -0.051 Br
HETATM   38  C19 UNL     1      14.026  -8.158  50.048  1.00  0.00     0.021 A 
HETATM   39  C20 UNL     1      14.500  -6.885  50.245  1.00  0.00     0.031 A 
ENDBRANCH  30  33
ENDBRANCH  26  27
ENDBRANCH  25  26
ENDBRANCH  22  25
ENDBRANCH   1  21
TORSDOF 14
ENDMDL
MODEL 4
REMARK VINA RESULT: -9.002904167      1.512      3.538
REMARK  14 active torsions:
REMARK  status: ('A' for Active; 'I' for Inactive)
REMARK    1  A    between atoms: N1_2  and  C3_4 
REMARK    2  A    between atoms: N1_2  and  C21_31 
REMARK    3  A    between atoms: C3_4  and  C4_5 
REMARK    4  A    between atoms: C4_5  and  C5_6 
REMARK    5  A    between atoms: C5_6  and  C6_7 
REMARK    6  A    between atoms: C6_7  and  C7_8 
REMARK    7  A    between atoms: C7_8  and  C8_9 
REMARK    8  A    between atoms: C8_9  and  C9_10 
REMARK    9  A    between atoms: C9_10  and  C10_11 
REMARK   10  A    between atoms: C10_11  and  N2_12 
REMARK       I    between atoms: N2_12  and  C11_14 
REMARK   11  A    between atoms: C11_14  and  C12_16 
REMARK   12  A    between atoms: C12_16  and  C13_17 
REMARK   13  A    between atoms: C13_17  and  N3_18 
REMARK       I    between atoms: N3_18  and  C14_20 
REMARK   14  A    between atoms: N5_22  and  C15_24 
ROOT
HETATM    1  C10 UNL     1       9.994  -1.191  49.167  1.00  0.00     0.122 C 
ENDROOT
BRANCH   1   2
HETATM    2  C9  UNL     1       8.850  -2.087  49.518  1.00  0.00     0.020 C 
BRANCH   2   3
HETATM    3  C8  UNL     1       8.767  -3.274  48.555  1.00  0.00     0.002 C 
BRANCH   3   4
HETATM    4  C7  UNL     1       7.751  -4.309  49.002  1.00  0.00     0.004 C 
BRANCH   4   5
HETATM    5  C6  UNL     1       6.457  -3.666  49.276  1.00  0.00     0.027 C 
BRANCH   5   6
HETATM    6  C5  UNL     1       5.448  -3.639  48.200  1.00  0.00    -0.025 C 
BRANCH   6   7
HETATM    7  C4  UNL     1       5.161  -2.454  47.425  1.00  0.00     0.021 C 
BRANCH   7   8
HETATM    8  C3  UNL     1       5.882  -1.217  47.263  1.00  0.00     0.204 C 
BRANCH   8   9
HETATM    9  N1  UNL     1       5.290   0.059  47.364  1.00  0.00    -0.023 N 
HETATM   10  C1  UNL     1       6.171   1.032  46.724  1.00  0.00     0.280 C 
HETATM   11  C2  UNL     1       4.002   0.212  46.700  1.00  0.00     0.280 C 
BRANCH   9  12
HETATM   12  C21 UNL     1       5.070   0.556  48.717  1.00  0.00     0.428 C 
HETATM   13  C22 UNL     1       4.809   2.009  48.870  1.00  0.00     0.071 C 
HETATM   14  C23 UNL     1       4.711   2.231  50.398  1.00  0.00    -0.009 C 
HETATM   15  C24 UNL     1       3.803   1.272  51.060  1.00  0.00     0.006 C 
HETATM   16  C28 UNL     1       6.119   2.221  50.950  1.00  0.00     0.035 C 
HETATM   17  C25 UNL     1       4.339  -0.076  51.342  1.00  0.00     0.031 C 
HETATM   18  C26 UNL     1       5.683  -0.409  50.850  1.00  0.00     0.275 C 
HETATM   19  N6  UNL     1       6.128   0.224  49.642  1.00  0.00     0.120 N 
HETATM   20  C27 UNL     1       6.943   1.348  50.035  1.00  0.00     0.275 C 
ENDBRANCH   9  12
ENDBRANCH   8   9
ENDBRANCH   7   8
ENDBRANCH   6   7
ENDBRANCH   5   6
ENDBRANCH   4   5
ENDBRANCH   3   4
ENDBRANCH   2   3
ENDBRANCH   1   2
BRANCH   1  21
HETATM   21  N2  UNL     1      10.822  -1.735  48.137  1.00  0.00    -0.361 N 
HETATM   22  C11 UNL     1      12.074  -2.310  48.426  1.00  0.00     0.219 C 
HETATM   23  O1  UNL     1      12.513  -2.379  49.582  1.00  0.00    -0.274 OA
ATOM     24  H2  UNL     1      10.499  -1.706  47.170  1.00  0.00     0.162 HD
BRANCH  22  25
HETATM   25  C12 UNL     1      12.859  -2.841  47.253  1.00  0.00     0.122 C 
BRANCH  25  26
HETATM   26  C13 UNL     1      14.303  -2.812  47.630  1.00  0.00     0.131 C 
BRANCH  26  27
HETATM   27  N3  UNL     1      14.792  -4.063  48.169  1.00  0.00    -0.364 N 
HETATM   28  C14 UNL     1      15.695  -4.107  49.246  1.00  0.00     0.188 C 
HETATM   29  N4  UNL     1      16.259  -2.902  49.729  1.00  0.00    -0.064 NA
HETATM   30  N5  UNL     1      16.018  -5.187  49.810  1.00  0.00    -0.331 N 
ATOM     31  H5  UNL     1      16.682  -5.088  50.578  1.00  0.00     0.168 HD
ATOM     32  H3  UNL     1      14.473  -4.939  47.755  1.00  0.00     0.162 HD
BRANCH  30  33
HETATM   33  C15 UNL     1      15.612  -6.504  49.548  1.00  0.00     0.034 A 
HETATM   34  C16 UNL     1      16.270  -7.365  48.710  1.00  0.00     0.031 A 
HETATM   35  C17 UNL     1      15.816  -8.635  48.508  1.00  0.00     0.021 A 
HETATM   36  C18 UNL     1      14.686  -9.082  49.139  1.00  0.00     0.011 A 
HETATM   37 BR1  UNL     1      14.015 -10.844  48.890  1.00  0.00    -0.051 Br
HETATM   38  C19 UNL     1      14.008  -8.232  49.987  1.00  0.00     0.021 A 
HETATM   39  C20 UNL     1      14.468  -6.954  50.188  1.00  0.00     0.031 A 
ENDBRANCH  30  33
ENDBRANCH  26  27
ENDBRANCH  25  26
ENDBRANCH  22  25
ENDBRANCH   1  21
TORSDOF 14
ENDMDL
MODEL 5
REMARK VINA RESULT: -8.961212212      1.555      3.759
REMARK  14 active torsions:
REMARK  status: ('A' for Active; 'I' for Inactive)
REMARK    1  A    between atoms: N1_2  and  C3_4 
REMARK    2  A    between atoms: N1_2  and  C21_31 
REMARK    3  A    between atoms: C3_4  and  C4_5 
REMARK    4  A    between atoms: C4_5  and  C5_6 
REMARK    5  A    between atoms: C5_6  and  C6_7 
REMARK    6  A    between atoms: C6_7  and  C7_8 
REMARK    7  A    between atoms: C7_8  and  C8_9 
REMARK    8  A    between atoms: C8_9  and  C9_10 
REMARK    9  A    between atoms: C9_10  and  C10_11 
REMARK   10  A    between atoms: C10_11  and  N2_12 
REMARK       I    between atoms: N2_12  and  C11_14 
REMARK   11  A    between atoms: C11_14  and  C12_16 
REMARK   12  A    between atoms: C12_16  and  C13_17 
REMARK   13  A    between atoms: C13_17  and  N3_18 
REMARK       I    between atoms: N3_18  and  C14_20 
REMARK   14  A    between atoms: N5_22  and  C15_24 
ROOT
HETATM    1  C10 UNL     1       9.471  -1.937  49.357  1.00  0.00     0.122 C 
ENDROOT
BRANCH   1   2
HETATM    2  C9  UNL     1       8.321  -2.872  49.548  1.00  0.00     0.020 C 
BRANCH   2   3
HETATM    3  C8  UNL     1       8.208  -3.849  48.375  1.00  0.00     0.002 C 
BRANCH   3   4
HETATM    4  C7  UNL     1       7.140  -3.432  47.379  1.00  0.00     0.004 C 
BRANCH   4   5
HETATM    5  C6  UNL     1       5.808  -3.802  47.879  1.00  0.00     0.027 C 
BRANCH   5   6
HETATM    6  C5  UNL     1       4.785  -2.745  47.993  1.00  0.00    -0.025 C 
BRANCH   6   7
HETATM    7  C4  UNL     1       4.342  -2.217  49.262  1.00  0.00     0.021 C 
BRANCH   7   8
HETATM    8  C3  UNL     1       5.055  -1.556  50.327  1.00  0.00     0.204 C 
BRANCH   8   9
HETATM    9  N1  UNL     1       5.326  -0.173  50.353  1.00  0.00    -0.023 N 
HETATM   10  C1  UNL     1       4.193   0.512  50.968  1.00  0.00     0.280 C 
HETATM   11  C2  UNL     1       6.488   0.229  51.134  1.00  0.00     0.280 C 
BRANCH   9  12
HETATM   12  C21 UNL     1       5.514   0.465  49.055  1.00  0.00     0.428 C 
HETATM   13  C22 UNL     1       6.911   0.697  48.611  1.00  0.00     0.071 C 
HETATM   14  C23 UNL     1       6.775   1.456  47.270  1.00  0.00    -0.009 C 
HETATM   15  C24 UNL     1       5.831   0.806  46.337  1.00  0.00     0.006 C 
HETATM   16  C28 UNL     1       6.426   2.892  47.591  1.00  0.00     0.035 C 
HETATM   17  C25 UNL     1       4.391   1.049  46.561  1.00  0.00     0.031 C 
HETATM   18  C26 UNL     1       3.990   1.816  47.748  1.00  0.00     0.275 C 
HETATM   19  N6  UNL     1       4.819   1.723  48.915  1.00  0.00     0.120 N 
HETATM   20  C27 UNL     1       5.684   2.878  48.907  1.00  0.00     0.275 C 
ENDBRANCH   9  12
ENDBRANCH   8   9
ENDBRANCH   7   8
ENDBRANCH   6   7
ENDBRANCH   5   6
ENDBRANCH   4   5
ENDBRANCH   3   4
ENDBRANCH   2   3
ENDBRANCH   1   2
BRANCH   1  21
HETATM   21  N2  UNL     1      10.346  -2.349  48.305  1.00  0.00    -0.361 N 
HETATM   22  C11 UNL     1      11.731  -2.493  48.513  1.00  0.00     0.219 C 
HETATM   23  O1  UNL     1      12.254  -2.278  49.615  1.00  0.00    -0.274 OA
ATOM     24  H2  UNL     1       9.959  -2.542  47.381  1.00  0.00     0.162 HD
BRANCH  22  25
HETATM   25  C12 UNL     1      12.550  -2.924  47.323  1.00  0.00     0.122 C 
BRANCH  25  26
HETATM   26  C13 UNL     1      13.989  -2.815  47.707  1.00  0.00     0.131 C 
BRANCH  26  27
HETATM   27  N3  UNL     1      14.562  -4.053  48.189  1.00  0.00    -0.364 N 
HETATM   28  C14 UNL     1      15.579  -4.074  49.160  1.00  0.00     0.188 C 
HETATM   29  N4  UNL     1      16.167  -2.856  49.576  1.00  0.00    -0.064 NA
HETATM   30  N5  UNL     1      15.986  -5.146  49.684  1.00  0.00    -0.331 N 
ATOM     31  H5  UNL     1      16.728  -5.030  50.374  1.00  0.00     0.168 HD
ATOM     32  H3  UNL     1      14.217  -4.937  47.814  1.00  0.00     0.162 HD
BRANCH  30  33
HETATM   33  C15 UNL     1      15.581  -6.472  49.471  1.00  0.00     0.034 A 
HETATM   34  C16 UNL     1      16.148  -7.315  48.552  1.00  0.00     0.031 A 
HETATM   35  C17 UNL     1      15.702  -8.596  48.404  1.00  0.00     0.021 A 
HETATM   36  C18 UNL     1      14.674  -9.071  49.171  1.00  0.00     0.011 A 
HETATM   37 BR1  UNL     1      14.019 -10.848  49.001  1.00  0.00    -0.051 Br
HETATM   38  C19 UNL     1      14.089  -8.239  50.102  1.00  0.00     0.021 A 
HETATM   39  C20 UNL     1      14.540  -6.951  50.249  1.00  0.00     0.031 A 
ENDBRANCH  30  33
ENDBRANCH  26  27
ENDBRANCH  25  26
ENDBRANCH  22  25
ENDBRANCH   1  21
TORSDOF 14
ENDMDL
