MODEL 1
REMARK VINA RESULT: -8.487212477      0.000      0.000
REMARK  16 active torsions:
REMARK  status: ('A' for Active; 'I' for Inactive)
REMARK    1  A    between atoms: N1_2  and  C2_3 
REMARK       I    between atoms: N1_2  and  C9_16 
REMARK    2  A    between atoms: C2_3  and  C3_4 
REMARK       I    between atoms: C3_4  and  N2_6 
REMARK    3  A    between atoms: N2_6  and  C4_8 
REMARK    4  A    between atoms: C9_16  and  C10_18 
REMARK    5  A    between atoms: C10_18  and  C11_19 
REMARK    6  A    between atoms: C11_19  and  C12_20 
REMARK    7  A    between atoms: C12_20  and  C13_21 
REMARK    8  A    between atoms: C13_21  and  C14_22 
REMARK    9  A    between atoms: C14_22  and  C15_23 
REMARK   10  A    between atoms: C15_23  and  C16_24 
REMARK   11  A    between atoms: C16_24  and  C17_25 
REMARK   12  A    between atoms: C17_25  and  C18_26 
REMARK   13  A    between atoms: C18_26  and  C19_27 
REMARK   14  A    between atoms: C19_27  and  N4_28 
REMARK   15  A    between atoms: N4_28  and  C20_30 
REMARK   16  A    between atoms: C20_30  and  C21_34 
ROOT
HETATM    1  C12 UNL     1       8.641  -3.833  48.055  1.00  0.00     0.000 C 
ENDROOT
BRANCH   1   2
HETATM    2  C11 UNL     1       9.890  -3.167  48.567  1.00  0.00     0.009 C 
BRANCH   2   3
HETATM    3  C10 UNL     1      10.765  -2.715  47.427  1.00  0.00     0.103 C 
BRANCH   3   4
HETATM    4  C9  UNL     1      12.132  -3.261  47.574  1.00  0.00     0.219 C 
HETATM    5  N1  UNL     1      13.224  -2.501  48.025  1.00  0.00    -0.348 N 
HETATM    6  C1  UNL     1      13.056  -1.112  48.369  1.00  0.00     0.153 C 
HETATM    7  O2  UNL     1      12.309  -4.483  47.270  1.00  0.00    -0.273 OA
BRANCH   5   8
HETATM    8  C2  UNL     1      14.531  -3.104  48.157  1.00  0.00     0.228 C 
BRANCH   8   9
HETATM    9  C3  UNL     1      14.625  -4.021  49.310  1.00  0.00     0.241 C 
HETATM   10  O1  UNL     1      14.780  -3.534  50.482  1.00  0.00    -0.271 OA
HETATM   11  N2  UNL     1      14.557  -5.417  49.214  1.00  0.00    -0.312 N 
ATOM     12  H2  UNL     1      13.688  -5.799  48.841  1.00  0.00     0.170 HD
BRANCH  11  13
HETATM   13  C4  UNL     1      15.445  -6.266  49.535  1.00  0.00     0.107 A 
HETATM   14  C5  UNL     1      15.862  -7.217  48.625  1.00  0.00     0.050 A 
HETATM   15  C6  UNL     1      16.833  -8.135  48.976  1.00  0.00     0.024 A 
HETATM   16  C7  UNL     1      17.410  -8.132  50.232  1.00  0.00     0.026 A 
HETATM   17 BR1  UNL     1      18.751  -9.375  50.760  1.00  0.00    -0.050 Br
HETATM   18  C8  UNL     1      16.954  -7.155  51.103  1.00  0.00     0.108 A 
HETATM   19  N3  UNL     1      16.017  -6.278  50.745  1.00  0.00    -0.351 N 
ATOM     20  H3  UNL     1      15.720  -5.582  51.428  1.00  0.00     0.166 HD
ENDBRANCH  11  13
ENDBRANCH   8   9
ENDBRANCH   5   8
ENDBRANCH   3   4
ENDBRANCH   2   3
ENDBRANCH   1   2
BRANCH   1  21
HETATM   21  C13 UNL     1       7.768  -4.244  49.226  1.00  0.00     0.000 C 
BRANCH  21  22
HETATM   22  C14 UNL     1       6.441  -3.530  49.135  1.00  0.00     0.000 C 
BRANCH  22  23
HETATM   23  C15 UNL     1       6.251  -3.189  47.659  1.00  0.00     0.000 C 
BRANCH  23  24
HETATM   24  C16 UNL     1       4.886  -2.634  47.415  1.00  0.00     0.000 C 
BRANCH  24  25
HETATM   25  C17 UNL     1       4.802  -1.152  47.645  1.00  0.00     0.002 C 
BRANCH  25  26
HETATM   26  C18 UNL     1       4.491  -0.403  46.362  1.00  0.00     0.020 C 
BRANCH  26  27
HETATM   27  C19 UNL     1       5.568   0.551  45.981  1.00  0.00     0.121 C 
BRANCH  27  28
HETATM   28  N4  UNL     1       6.610   0.746  46.923  1.00  0.00    -0.380 N 
ATOM     29  H4  UNL     1       7.143  -0.083  47.188  1.00  0.00     0.160 HD
BRANCH  28  30
HETATM   30  C20 UNL     1       6.995   1.969  47.541  1.00  0.00     0.076 C 
HETATM   31  N5  UNL     1       6.193   2.969  47.433  1.00  0.00    -0.389 N 
ATOM     32  H52 UNL     1       5.307   2.942  46.928  1.00  0.00     0.157 HD
ATOM     33  H51 UNL     1       6.469   3.846  47.876  1.00  0.00     0.157 HD
BRANCH  30  34
HETATM   34  C21 UNL     1       8.267   2.008  48.264  1.00  0.00     0.069 A 
HETATM   35  C22 UNL     1       8.672   1.014  49.272  1.00  0.00    -0.029 A 
HETATM   36  C23 UNL     1       7.840  -0.211  49.502  1.00  0.00     0.016 C 
HETATM   37  C24 UNL     1      10.168   0.767  49.478  1.00  0.00     0.016 C 
HETATM   38  C25 UNL     1       8.211   2.360  49.717  1.00  0.00    -0.029 A 
HETATM   39  C26 UNL     1       6.948   2.526  50.482  1.00  0.00     0.016 C 
HETATM   40  C27 UNL     1       9.283   3.378  50.141  1.00  0.00     0.016 C 
ENDBRANCH  30  34
ENDBRANCH  28  30
ENDBRANCH  27  28
ENDBRANCH  26  27
ENDBRANCH  25  26
ENDBRANCH  24  25
ENDBRANCH  23  24
ENDBRANCH  22  23
ENDBRANCH  21  22
ENDBRANCH   1  21
TORSDOF 16
ENDMDL
MODEL 2
REMARK VINA RESULT: -8.463674552      1.512      2.333
REMARK  16 active torsions:
REMARK  status: ('A' for Active; 'I' for Inactive)
REMARK    1  A    between atoms: N1_2  and  C2_3 
REMARK       I    between atoms: N1_2  and  C9_16 
REMARK    2  A    between atoms: C2_3  and  C3_4 
REMARK       I    between atoms: C3_4  and  N2_6 
REMARK    3  A    between atoms: N2_6  and  C4_8 
REMARK    4  A    between atoms: C9_16  and  C10_18 
REMARK    5  A    between atoms: C10_18  and  C11_19 
REMARK    6  A    between atoms: C11_19  and  C12_20 
REMARK    7  A    between atoms: C12_20  and  C13_21 
REMARK    8  A    between atoms: C13_21  and  C14_22 
REMARK    9  A    between atoms: C14_22  and  C15_23 
REMARK   10  A    between atoms: C15_23  and  C16_24 
REMARK   11  A    between atoms: C16_24  and  C17_25 
REMARK   12  A    between atoms: C17_25  and  C18_26 
REMARK   13  A    between atoms: C18_26  and  C19_27 
REMARK   14  A    between atoms: C19_27  and  N4_28 
REMARK   15  A    between atoms: N4_28  and  C20_30 
REMARK   16  A    between atoms: C20_30  and  C21_34 
ROOT
HETATM    1  C12 UNL     1       8.162  -2.674  49.682  1.00  0.00     0.000 C 
ENDROOT
BRANCH   1   2
HETATM    2  C11 UNL     1       9.491  -1.972  49.593  1.00  0.00     0.009 C 
BRANCH   2   3
HETATM    3  C10 UNL     1      10.309  -2.513  48.450  1.00  0.00     0.103 C 
BRANCH   3   4
HETATM    4  C9  UNL     1      11.752  -2.458  48.773  1.00  0.00     0.219 C 
HETATM    5  N1  UNL     1      12.712  -3.285  48.168  1.00  0.00    -0.348 N 
HETATM    6  C1  UNL     1      12.320  -4.260  47.181  1.00  0.00     0.153 C 
HETATM    7  O2  UNL     1      12.123  -1.610  49.646  1.00  0.00    -0.273 OA
BRANCH   5   8
HETATM    8  C2  UNL     1      14.108  -3.167  48.523  1.00  0.00     0.228 C 
BRANCH   8   9
HETATM    9  C3  UNL     1      14.473  -3.987  49.695  1.00  0.00     0.241 C 
HETATM   10  O1  UNL     1      14.910  -3.410  50.748  1.00  0.00    -0.271 OA
HETATM   11  N2  UNL     1      14.374  -5.384  49.740  1.00  0.00    -0.312 N 
ATOM     12  H2  UNL     1      13.438  -5.771  49.621  1.00  0.00     0.170 HD
BRANCH  11  13
HETATM   13  C4  UNL     1      15.307  -6.228  49.910  1.00  0.00     0.107 A 
HETATM   14  C5  UNL     1      15.703  -7.049  48.873  1.00  0.00     0.050 A 
HETATM   15  C6  UNL     1      16.722  -7.962  49.061  1.00  0.00     0.024 A 
HETATM   16  C7  UNL     1      17.372  -8.081  50.276  1.00  0.00     0.026 A 
HETATM   17 BR1  UNL     1      18.782  -9.322  50.581  1.00  0.00    -0.050 Br
HETATM   18  C8  UNL     1      16.934  -7.231  51.279  1.00  0.00     0.108 A 
HETATM   19  N3  UNL     1      15.948  -6.357  51.078  1.00  0.00    -0.351 N 
ATOM     20  H3  UNL     1      15.668  -5.757  51.854  1.00  0.00     0.166 HD
ENDBRANCH  11  13
ENDBRANCH   8   9
ENDBRANCH   5   8
ENDBRANCH   3   4
ENDBRANCH   2   3
ENDBRANCH   1   2
BRANCH   1  21
HETATM   21  C13 UNL     1       8.141  -3.847  48.719  1.00  0.00     0.000 C 
BRANCH  21  22
HETATM   22  C14 UNL     1       6.725  -4.086  48.254  1.00  0.00     0.000 C 
BRANCH  22  23
HETATM   23  C15 UNL     1       6.253  -2.762  47.654  1.00  0.00     0.000 C 
BRANCH  23  24
HETATM   24  C16 UNL     1       4.762  -2.688  47.642  1.00  0.00     0.000 C 
BRANCH  24  25
HETATM   25  C17 UNL     1       4.239  -1.431  47.007  1.00  0.00     0.002 C 
BRANCH  25  26
HETATM   26  C18 UNL     1       5.250  -0.826  46.048  1.00  0.00     0.020 C 
BRANCH  26  27
HETATM   27  C19 UNL     1       5.008   0.622  45.801  1.00  0.00     0.121 C 
BRANCH  27  28
HETATM   28  N4  UNL     1       4.133   1.284  46.699  1.00  0.00    -0.380 N 
ATOM     29  H4  UNL     1       3.135   1.127  46.559  1.00  0.00     0.160 HD
BRANCH  28  30
HETATM   30  C20 UNL     1       4.494   2.145  47.774  1.00  0.00     0.076 C 
HETATM   31  N5  UNL     1       4.899   3.329  47.479  1.00  0.00    -0.389 N 
ATOM     32  H52 UNL     1       4.985   3.686  46.527  1.00  0.00     0.157 HD
ATOM     33  H51 UNL     1       5.156   3.946  48.250  1.00  0.00     0.157 HD
BRANCH  30  34
HETATM   34  C21 UNL     1       4.371   1.633  49.141  1.00  0.00     0.069 A 
HETATM   35  C22 UNL     1       5.110   2.176  50.292  1.00  0.00    -0.029 A 
HETATM   36  C23 UNL     1       5.935   3.418  50.143  1.00  0.00     0.016 C 
HETATM   37  C24 UNL     1       4.480   2.040  51.680  1.00  0.00     0.016 C 
HETATM   38  C25 UNL     1       5.541   0.882  49.691  1.00  0.00    -0.029 A 
HETATM   39  C26 UNL     1       6.848   0.755  48.994  1.00  0.00     0.016 C 
HETATM   40  C27 UNL     1       5.148  -0.412  50.424  1.00  0.00     0.016 C 
ENDBRANCH  30  34
ENDBRANCH  28  30
ENDBRANCH  27  28
ENDBRANCH  26  27
ENDBRANCH  25  26
ENDBRANCH  24  25
ENDBRANCH  23  24
ENDBRANCH  22  23
ENDBRANCH  21  22
ENDBRANCH   1  21
TORSDOF 16
ENDMDL
MODEL 3
REMARK VINA RESULT: -8.435268585      1.929      2.807
REMARK  16 active torsions:
REMARK  status: ('A' for Active; 'I' for Inactive)
REMARK    1  A    between atoms: N1_2  and  C2_3 
REMARK       I    between atoms: N1_2  and  C9_16 
REMARK    2  A    between atoms: C2_3  and  C3_4 
REMARK       I    between atoms: C3_4  and  N2_6 
REMARK    3  A    between atoms: N2_6  and  C4_8 
REMARK    4  A    between atoms: C9_16  and  C10_18 
REMARK    5  A    between atoms: C10_18  and  C11_19 
REMARK    6  A    between atoms: C11_19  and  C12_20 
REMARK    7  A    between atoms: C12_20  and  C13_21 
REMARK    8  A    between atoms: C13_21  and  C14_22 
REMARK    9  A    between atoms: C14_22  and  C15_23 
REMARK   10  A    between atoms: C15_23  and  C16_24 
REMARK   11  A    between atoms: C16_24  and  C17_25 
REMARK   12  A    between atoms: C17_25  and  C18_26 
REMARK   13  A    between atoms: C18_26  and  C19_27 
REMARK   14  A    between atoms: C19_27  and  N4_28 
REMARK   15  A    between atoms: N4_28  and  C20_30 
REMARK   16  A    between atoms: C20_30  and  C21_34 
ROOT
HETATM    1  C12 UNL     1       7.497  -4.164  49.188  1.00  0.00     0.000 C 
ENDROOT
BRANCH   1   2
HETATM    2  C11 UNL     1       8.587  -3.131  49.291  1.00  0.00     0.009 C 
BRANCH   2   3
HETATM    3  C10 UNL     1       9.590  -3.295  48.179  1.00  0.00     0.103 C 
BRANCH   3   4
HETATM    4  C9  UNL     1      10.771  -2.436  48.414  1.00  0.00     0.219 C 
HETATM    5  N1  UNL     1      12.050  -2.722  47.909  1.00  0.00    -0.348 N 
HETATM    6  C1  UNL     1      12.276  -3.908  47.122  1.00  0.00     0.153 C 
HETATM    7  O2  UNL     1      10.600  -1.386  49.112  1.00  0.00    -0.273 OA
BRANCH   5   8
HETATM    8  C2  UNL     1      13.156  -1.829  48.167  1.00  0.00     0.228 C 
BRANCH   8   9
HETATM    9  C3  UNL     1      14.458  -2.524  48.201  1.00  0.00     0.241 C 
HETATM   10  O1  UNL     1      15.113  -2.674  47.113  1.00  0.00    -0.271 OA
HETATM   11  N2  UNL     1      15.042  -3.046  49.363  1.00  0.00    -0.312 N 
ATOM     12  H2  UNL     1      15.258  -2.371  50.097  1.00  0.00     0.170 HD
BRANCH  11  13
HETATM   13  C4  UNL     1      15.336  -4.255  49.614  1.00  0.00     0.107 A 
HETATM   14  C5  UNL     1      15.962  -4.589  50.798  1.00  0.00     0.050 A 
HETATM   15  C6  UNL     1      16.276  -5.907  51.069  1.00  0.00     0.024 A 
HETATM   16  C7  UNL     1      15.977  -6.920  50.177  1.00  0.00     0.026 A 
HETATM   17 BR1  UNL     1      16.388  -8.748  50.508  1.00  0.00    -0.050 Br
HETATM   18  C8  UNL     1      15.349  -6.526  49.006  1.00  0.00     0.108 A 
HETATM   19  N3  UNL     1      15.055  -5.249  48.763  1.00  0.00    -0.351 N 
ATOM     20  H3  UNL     1      14.592  -5.018  47.884  1.00  0.00     0.166 HD
ENDBRANCH  11  13
ENDBRANCH   8   9
ENDBRANCH   5   8
ENDBRANCH   3   4
ENDBRANCH   2   3
ENDBRANCH   1   2
BRANCH   1  21
HETATM   21  C13 UNL     1       6.144  -3.491  49.332  1.00  0.00     0.000 C 
BRANCH  21  22
HETATM   22  C14 UNL     1       5.323  -3.751  48.092  1.00  0.00     0.000 C 
BRANCH  22  23
HETATM   23  C15 UNL     1       4.772  -2.393  47.664  1.00  0.00     0.000 C 
BRANCH  23  24
HETATM   24  C16 UNL     1       5.785  -1.636  46.870  1.00  0.00     0.000 C 
BRANCH  24  25
HETATM   25  C17 UNL     1       5.185  -0.859  45.734  1.00  0.00     0.002 C 
BRANCH  25  26
HETATM   26  C18 UNL     1       5.563   0.610  45.799  1.00  0.00     0.020 C 
BRANCH  26  27
HETATM   27  C19 UNL     1       4.407   1.485  46.135  1.00  0.00     0.121 C 
BRANCH  27  28
HETATM   28  N4  UNL     1       4.556   2.333  47.262  1.00  0.00    -0.380 N 
ATOM     29  H4  UNL     1       5.022   3.226  47.099  1.00  0.00     0.160 HD
BRANCH  28  30
HETATM   30  C20 UNL     1       4.127   2.078  48.594  1.00  0.00     0.076 C 
HETATM   31  N5  UNL     1       3.263   2.881  49.107  1.00  0.00    -0.389 N 
ATOM     32  H52 UNL     1       2.875   3.690  48.623  1.00  0.00     0.157 HD
ATOM     33  H51 UNL     1       2.956   2.698  50.062  1.00  0.00     0.157 HD
BRANCH  30  34
HETATM   34  C21 UNL     1       4.686   0.916  49.290  1.00  0.00     0.069 A 
HETATM   35  C22 UNL     1       4.593   0.706  50.744  1.00  0.00    -0.029 A 
HETATM   36  C23 UNL     1       3.764   1.623  51.590  1.00  0.00     0.016 C 
HETATM   37  C24 UNL     1       4.612  -0.733  51.265  1.00  0.00     0.016 C 
HETATM   38  C25 UNL     1       5.885   1.154  50.151  1.00  0.00    -0.029 A 
HETATM   39  C26 UNL     1       6.442   2.500  50.446  1.00  0.00     0.016 C 
HETATM   40  C27 UNL     1       6.990   0.100  49.965  1.00  0.00     0.016 C 
ENDBRANCH  30  34
ENDBRANCH  28  30
ENDBRANCH  27  28
ENDBRANCH  26  27
ENDBRANCH  25  26
ENDBRANCH  24  25
ENDBRANCH  23  24
ENDBRANCH  22  23
ENDBRANCH  21  22
ENDBRANCH   1  21
TORSDOF 16
ENDMDL
MODEL 4
REMARK VINA RESULT: -8.227790983      1.778      2.808
REMARK  16 active torsions:
REMARK  status: ('A' for Active; 'I' for Inactive)
REMARK    1  A    between atoms: N1_2  and  C2_3 
REMARK       I    between atoms: N1_2  and  C9_16 
REMARK    2  A    between atoms: C2_3  and  C3_4 
REMARK       I    between atoms: C3_4  and  N2_6 
REMARK    3  A    between atoms: N2_6  and  C4_8 
REMARK    4  A    between atoms: C9_16  and  C10_18 
REMARK    5  A    between atoms: C10_18  and  C11_19 
REMARK    6  A    between atoms: C11_19  and  C12_20 
REMARK    7  A    between atoms: C12_20  and  C13_21 
REMARK    8  A    between atoms: C13_21  and  C14_22 
REMARK    9  A    between atoms: C14_22  and  C15_23 
REMARK   10  A    between atoms: C15_23  and  C16_24 
REMARK   11  A    between atoms: C16_24  and  C17_25 
REMARK   12  A    between atoms: C17_25  and  C18_26 
REMARK   13  A    between atoms: C18_26  and  C19_27 
REMARK   14  A    between atoms: C19_27  and  N4_28 
REMARK   15  A    between atoms: N4_28  and  C20_30 
REMARK   16  A    between atoms: C20_30  and  C21_34 
ROOT
HETATM    1  C12 UNL     1       7.479  -3.808  49.499  1.00  0.00     0.000 C 
ENDROOT
BRANCH   1   2
HETATM    2  C11 UNL     1       8.646  -2.857  49.536  1.00  0.00     0.009 C 
BRANCH   2   3
HETATM    3  C10 UNL     1       9.621  -3.159  48.428  1.00  0.00     0.103 C 
BRANCH   3   4
HETATM    4  C9  UNL     1      10.839  -2.332  48.568  1.00  0.00     0.219 C 
HETATM    5  N1  UNL     1      12.084  -2.687  48.023  1.00  0.00    -0.348 N 
HETATM    6  C1  UNL     1      12.233  -3.917  47.285  1.00  0.00     0.153 C 
HETATM    7  O2  UNL     1      10.735  -1.244  49.221  1.00  0.00    -0.273 OA
BRANCH   5   8
HETATM    8  C2  UNL     1      13.230  -1.823  48.189  1.00  0.00     0.228 C 
BRANCH   8   9
HETATM    9  C3  UNL     1      14.510  -2.558  48.161  1.00  0.00     0.241 C 
HETATM   10  O1  UNL     1      15.088  -2.762  47.039  1.00  0.00    -0.271 OA
HETATM   11  N2  UNL     1      15.154  -3.061  49.299  1.00  0.00    -0.312 N 
ATOM     12  H2  UNL     1      15.438  -2.371  49.995  1.00  0.00     0.170 HD
BRANCH  11  13
HETATM   13  C4  UNL     1      15.428  -4.270  49.570  1.00  0.00     0.107 A 
HETATM   14  C5  UNL     1      15.966  -4.605  50.797  1.00  0.00     0.050 A 
HETATM   15  C6  UNL     1      16.258  -5.924  51.090  1.00  0.00     0.024 A 
HETATM   16  C7  UNL     1      16.023  -6.936  50.178  1.00  0.00     0.026 A 
HETATM   17 BR1  UNL     1      16.407  -8.765  50.538  1.00  0.00    -0.050 Br
HETATM   18  C8  UNL     1      15.482  -6.541  48.966  1.00  0.00     0.108 A 
HETATM   19  N3  UNL     1      15.207  -5.265  48.702  1.00  0.00    -0.351 N 
ATOM     20  H3  UNL     1      14.809  -5.034  47.791  1.00  0.00     0.166 HD
ENDBRANCH  11  13
ENDBRANCH   8   9
ENDBRANCH   5   8
ENDBRANCH   3   4
ENDBRANCH   2   3
ENDBRANCH   1   2
BRANCH   1  21
HETATM   21  C13 UNL     1       6.262  -3.141  50.112  1.00  0.00     0.000 C 
BRANCH  21  22
HETATM   22  C14 UNL     1       5.088  -3.286  49.173  1.00  0.00     0.000 C 
BRANCH  22  23
HETATM   23  C15 UNL     1       5.687  -3.533  47.790  1.00  0.00     0.000 C 
BRANCH  23  24
HETATM   24  C16 UNL     1       5.678  -2.280  46.977  1.00  0.00     0.000 C 
BRANCH  24  25
HETATM   25  C17 UNL     1       4.549  -1.355  47.331  1.00  0.00     0.002 C 
BRANCH  25  26
HETATM   26  C18 UNL     1       4.179  -0.454  46.167  1.00  0.00     0.020 C 
BRANCH  26  27
HETATM   27  C19 UNL     1       4.988   0.795  46.130  1.00  0.00     0.121 C 
BRANCH  27  28
HETATM   28  N4  UNL     1       4.429   1.935  46.761  1.00  0.00    -0.380 N 
ATOM     29  H4  UNL     1       3.582   2.318  46.340  1.00  0.00     0.160 HD
BRANCH  28  30
HETATM   30  C20 UNL     1       4.919   2.606  47.917  1.00  0.00     0.076 C 
HETATM   31  N5  UNL     1       5.748   3.573  47.739  1.00  0.00    -0.389 N 
ATOM     32  H52 UNL     1       6.080   3.882  46.826  1.00  0.00     0.157 HD
ATOM     33  H51 UNL     1       6.098   4.053  48.568  1.00  0.00     0.157 HD
BRANCH  30  34
HETATM   34  C21 UNL     1       4.442   2.161  49.229  1.00  0.00     0.069 A 
HETATM   35  C22 UNL     1       5.073   2.537  50.505  1.00  0.00    -0.029 A 
HETATM   36  C23 UNL     1       6.177   3.549  50.532  1.00  0.00     0.016 C 
HETATM   37  C24 UNL     1       4.195   2.576  51.757  1.00  0.00     0.016 C 
HETATM   38  C25 UNL     1       5.290   1.168  49.957  1.00  0.00    -0.029 A 
HETATM   39  C26 UNL     1       6.633   0.726  49.497  1.00  0.00     0.016 C 
HETATM   40  C27 UNL     1       4.484   0.014  50.578  1.00  0.00     0.016 C 
ENDBRANCH  30  34
ENDBRANCH  28  30
ENDBRANCH  27  28
ENDBRANCH  26  27
ENDBRANCH  25  26
ENDBRANCH  24  25
ENDBRANCH  23  24
ENDBRANCH  22  23
ENDBRANCH  21  22
ENDBRANCH   1  21
TORSDOF 16
ENDMDL
MODEL 5
REMARK VINA RESULT: -8.222267837      2.281      3.294
REMARK  16 active torsions:
REMARK  status: ('A' for Active; 'I' for Inactive)
REMARK    1  A    between atoms: N1_2  and  C2_3 
REMARK       I    between atoms: N1_2  and  C9_16 
REMARK    2  A    between atoms: C2_3  and  C3_4 
REMARK       I    between atoms: C3_4  and  N2_6 
REMARK    3  A    between atoms: N2_6  and  C4_8 
REMARK    4  A    between atoms: C9_16  and  C10_18 
REMARK    5  A    between atoms: C10_18  and  C11_19 
REMARK    6  A    between atoms: C11_19  and  C12_20 
REMARK    7  A    between atoms: C12_20  and  C13_21 
REMARK    8  A    between atoms: C13_21  and  C14_22 
REMARK    9  A    between atoms: C14_22  and  C15_23 
REMARK   10  A    between atoms: C15_23  and  C16_24 
REMARK   11  A    between atoms: C16_24  and  C17_25 
REMARK   12  A    between atoms: C17_25  and  C18_26 
REMARK   13  A    between atoms: C18_26  and  C19_27 
REMARK   14  A    between atoms: C19_27  and  N4_28 
REMARK   15  A    between atoms: N4_28  and  C20_30 
REMARK   16  A    between atoms: C20_30  and  C21_34 
ROOT
HETATM    1  C12 UNL     1       6.064  -3.095  49.730  1.00  0.00     0.000 C 
ENDROOT
BRANCH   1   2
HETATM    2  C11 UNL     1       7.374  -3.836  49.733  1.00  0.00     0.009 C 
BRANCH   2   3
HETATM    3  C10 UNL     1       8.534  -2.878  49.662  1.00  0.00     0.103 C 
BRANCH   3   4
HETATM    4  C9  UNL     1       9.319  -3.104  48.428  1.00  0.00     0.219 C 
HETATM    5  N1  UNL     1      10.645  -2.672  48.264  1.00  0.00    -0.348 N 
HETATM    6  C1  UNL     1      11.317  -1.960  49.321  1.00  0.00     0.153 C 
HETATM    7  O2  UNL     1       8.746  -3.725  47.477  1.00  0.00    -0.273 OA
BRANCH   5   8
HETATM    8  C2  UNL     1      11.355  -2.940  47.035  1.00  0.00     0.228 C 
BRANCH   8   9
HETATM    9  C3  UNL     1      12.582  -3.735  47.243  1.00  0.00     0.241 C 
HETATM   10  O1  UNL     1      12.479  -4.956  47.608  1.00  0.00    -0.271 OA
HETATM   11  N2  UNL     1      13.881  -3.239  47.068  1.00  0.00    -0.312 N 
ATOM     12  H2  UNL     1      14.115  -2.919  46.128  1.00  0.00     0.170 HD
BRANCH  11  13
HETATM   13  C4  UNL     1      14.802  -3.140  47.936  1.00  0.00     0.107 A 
HETATM   14  C5  UNL     1      15.802  -2.201  47.787  1.00  0.00     0.050 A 
HETATM   15  C6  UNL     1      16.800  -2.092  48.736  1.00  0.00     0.024 A 
HETATM   16  C7  UNL     1      16.828  -2.909  49.851  1.00  0.00     0.026 A 
HETATM   17 BR1  UNL     1      18.181  -2.796  51.186  1.00  0.00    -0.050 Br
HETATM   18  C8  UNL     1      15.799  -3.832  49.949  1.00  0.00     0.108 A 
HETATM   19  N3  UNL     1      14.846  -3.921  49.022  1.00  0.00    -0.351 N 
ATOM     20  H3  UNL     1      14.114  -4.620  49.147  1.00  0.00     0.166 HD
ENDBRANCH  11  13
ENDBRANCH   8   9
ENDBRANCH   5   8
ENDBRANCH   3   4
ENDBRANCH   2   3
ENDBRANCH   1   2
BRANCH   1  21
HETATM   21  C13 UNL     1       5.220  -3.560  48.558  1.00  0.00     0.000 C 
BRANCH  21  22
HETATM   22  C14 UNL     1       5.409  -2.611  47.399  1.00  0.00     0.000 C 
BRANCH  22  23
HETATM   23  C15 UNL     1       4.443  -1.454  47.643  1.00  0.00     0.000 C 
BRANCH  23  24
HETATM   24  C16 UNL     1       4.192  -0.697  46.380  1.00  0.00     0.000 C 
BRANCH  24  25
HETATM   25  C17 UNL     1       4.037   0.780  46.600  1.00  0.00     0.002 C 
BRANCH  25  26
HETATM   26  C18 UNL     1       4.902   1.270  47.748  1.00  0.00     0.020 C 
BRANCH  26  27
HETATM   27  C19 UNL     1       6.174   1.887  47.283  1.00  0.00     0.121 C 
BRANCH  27  28
HETATM   28  N4  UNL     1       7.360   1.140  47.496  1.00  0.00    -0.380 N 
ATOM     29  H4  UNL     1       7.389   0.208  47.082  1.00  0.00     0.160 HD
BRANCH  28  30
HETATM   30  C20 UNL     1       8.514   1.546  48.223  1.00  0.00     0.076 C 
HETATM   31  N5  UNL     1       9.494   0.716  48.298  1.00  0.00    -0.389 N 
ATOM     32  H52 UNL     1       9.492  -0.213  47.877  1.00  0.00     0.157 HD
ATOM     33  H51 UNL     1      10.321   1.007  48.819  1.00  0.00     0.157 HD
BRANCH  30  34
HETATM   34  C21 UNL     1       8.517   2.880  48.828  1.00  0.00     0.069 A 
HETATM   35  C22 UNL     1       9.256   3.226  50.053  1.00  0.00    -0.029 A 
HETATM   36  C23 UNL     1      10.194   2.237  50.675  1.00  0.00     0.016 C 
HETATM   37  C24 UNL     1       9.712   4.676  50.232  1.00  0.00     0.016 C 
HETATM   38  C25 UNL     1       7.778   3.041  50.118  1.00  0.00    -0.029 A 
HETATM   39  C26 UNL     1       7.177   1.913  50.876  1.00  0.00     0.016 C 
HETATM   40  C27 UNL     1       6.902   4.304  50.167  1.00  0.00     0.016 C 
ENDBRANCH  30  34
ENDBRANCH  28  30
ENDBRANCH  27  28
ENDBRANCH  26  27
ENDBRANCH  25  26
ENDBRANCH  24  25
ENDBRANCH  23  24
ENDBRANCH  22  23
ENDBRANCH  21  22
ENDBRANCH   1  21
TORSDOF 16
ENDMDL
