MODEL 1
REMARK VINA RESULT: -5.568365414      0.000      0.000
REMARK  3 active torsions:
REMARK  status: ('A' for Active; 'I' for Inactive)
REMARK    1  A    between atoms: S1_2  and  C2_3 
REMARK    2  A    between atoms: C5_6  and  C6_7 
REMARK    3  A    between atoms: C6_7  and  O1_9 
ROOT
HETATM    1  C2  UNL     1      54.901  77.865  60.456  1.00  0.00     0.053 C 
HETATM    2  C3  UNL     1      53.957  77.814  61.641  1.00  0.00     0.039 C 
HETATM    3  C4  UNL     1      55.982  76.807  60.453  1.00  0.00     0.049 C 
HETATM    4  C5  UNL     1      57.132  77.764  60.249  1.00  0.00     0.079 C 
HETATM    5  S2  UNL     1      56.108  79.207  60.522  1.00  0.00    -0.141 SA
ENDROOT
BRANCH   4   6
HETATM    6  C6  UNL     1      58.217  77.540  61.285  1.00  0.00     0.128 C 
HETATM    7  C7  UNL     1      58.304  76.041  61.519  1.00  0.00     0.040 C 
BRANCH   6   8
HETATM    8  O1  UNL     1      59.453  77.977  60.838  1.00  0.00    -0.395 OA
ATOM      9  H1  UNL     1      59.850  78.593  61.442  1.00  0.00     0.210 HD
ENDBRANCH   6   8
ENDBRANCH   4   6
BRANCH   1  10
HETATM   10  S1  UNL     1      53.925  77.819  58.920  1.00  0.00    -0.153 SA
HETATM   11  C1  UNL     1      52.220  78.276  59.416  1.00  0.00     0.091 C 
ENDBRANCH   1  10
TORSDOF 3
ENDMDL
MODEL 2
REMARK VINA RESULT: -5.508670309      2.611      4.900
REMARK  3 active torsions:
REMARK  status: ('A' for Active; 'I' for Inactive)
REMARK    1  A    between atoms: S1_2  and  C2_3 
REMARK    2  A    between atoms: C5_6  and  C6_7 
REMARK    3  A    between atoms: C6_7  and  O1_9 
ROOT
HETATM    1  C2  UNL     1      55.832  77.827  60.690  1.00  0.00     0.053 C 
HETATM    2  C3  UNL     1      56.010  76.686  61.673  1.00  0.00     0.039 C 
HETATM    3  C4  UNL     1      54.648  78.728  60.964  1.00  0.00     0.049 C 
HETATM    4  C5  UNL     1      54.070  78.645  59.571  1.00  0.00     0.079 C 
HETATM    5  S2  UNL     1      55.180  77.329  59.082  1.00  0.00    -0.141 SA
ENDROOT
BRANCH   4   6
HETATM    6  C6  UNL     1      52.602  78.266  59.613  1.00  0.00     0.128 C 
HETATM    7  C7  UNL     1      51.821  79.451  59.070  1.00  0.00     0.040 C 
BRANCH   6   8
HETATM    8  O1  UNL     1      52.330  77.169  58.812  1.00  0.00    -0.395 OA
ATOM      9  H1  UNL     1      52.427  76.351  59.287  1.00  0.00     0.210 HD
ENDBRANCH   6   8
ENDBRANCH   4   6
BRANCH   1  10
HETATM   10  S1  UNL     1      57.382  78.778  60.602  1.00  0.00    -0.153 SA
HETATM   11  C1  UNL     1      58.709  77.581  61.013  1.00  0.00     0.091 C 
ENDBRANCH   1  10
TORSDOF 3
ENDMDL
MODEL 3
REMARK VINA RESULT: -5.398892089      2.513      4.724
REMARK  3 active torsions:
REMARK  status: ('A' for Active; 'I' for Inactive)
REMARK    1  A    between atoms: S1_2  and  C2_3 
REMARK    2  A    between atoms: C5_6  and  C6_7 
REMARK    3  A    between atoms: C6_7  and  O1_9 
ROOT
HETATM    1  C2  UNL     1      56.140  78.058  60.600  1.00  0.00     0.053 C 
HETATM    2  C3  UNL     1      57.457  78.743  60.289  1.00  0.00     0.039 C 
HETATM    3  C4  UNL     1      55.260  77.788  59.399  1.00  0.00     0.049 C 
HETATM    4  C5  UNL     1      54.019  78.426  59.976  1.00  0.00     0.079 C 
HETATM    5  S2  UNL     1      54.905  79.130  61.362  1.00  0.00    -0.141 SA
ENDROOT
BRANCH   4   6
HETATM    6  C6  UNL     1      53.427  79.436  59.010  1.00  0.00     0.128 C 
HETATM    7  C7  UNL     1      51.917  79.272  59.066  1.00  0.00     0.040 C 
BRANCH   6   8
HETATM    8  O1  UNL     1      53.731  80.737  59.376  1.00  0.00    -0.395 OA
ATOM      9  H1  UNL     1      53.145  81.061  60.049  1.00  0.00     0.210 HD
ENDBRANCH   6   8
ENDBRANCH   4   6
BRANCH   1  10
HETATM   10  S1  UNL     1      56.475  76.530  61.532  1.00  0.00    -0.153 SA
HETATM   11  C1  UNL     1      58.301  76.369  61.558  1.00  0.00     0.091 C 
ENDBRANCH   1  10
TORSDOF 3
ENDMDL
MODEL 4
REMARK VINA RESULT: -5.334979562      2.789      4.805
REMARK  3 active torsions:
REMARK  status: ('A' for Active; 'I' for Inactive)
REMARK    1  A    between atoms: S1_2  and  C2_3 
REMARK    2  A    between atoms: C5_6  and  C6_7 
REMARK    3  A    between atoms: C6_7  and  O1_9 
ROOT
HETATM    1  C2  UNL     1      55.065  78.179  60.734  1.00  0.00     0.053 C 
HETATM    2  C3  UNL     1      54.329  77.410  61.815  1.00  0.00     0.039 C 
HETATM    3  C4  UNL     1      54.520  79.562  60.450  1.00  0.00     0.049 C 
HETATM    4  C5  UNL     1      54.398  79.372  58.957  1.00  0.00     0.079 C 
HETATM    5  S2  UNL     1      54.723  77.614  59.054  1.00  0.00    -0.141 SA
ENDROOT
BRANCH   4   6
HETATM    6  C6  UNL     1      53.009  79.743  58.473  1.00  0.00     0.128 C 
HETATM    7  C7  UNL     1      52.104  79.762  59.694  1.00  0.00     0.040 C 
BRANCH   6   8
HETATM    8  O1  UNL     1      52.983  81.004  57.900  1.00  0.00    -0.395 OA
ATOM      9  H1  UNL     1      52.531  81.633  58.450  1.00  0.00     0.210 HD
ENDBRANCH   6   8
ENDBRANCH   4   6
BRANCH   1  10
HETATM   10  S1  UNL     1      56.836  78.237  61.153  1.00  0.00    -0.153 SA
HETATM   11  C1  UNL     1      57.279  76.521  61.622  1.00  0.00     0.091 C 
ENDBRANCH   1  10
TORSDOF 3
ENDMDL
MODEL 5
REMARK VINA RESULT: -5.310847421      1.496      1.814
REMARK  3 active torsions:
REMARK  status: ('A' for Active; 'I' for Inactive)
REMARK    1  A    between atoms: S1_2  and  C2_3 
REMARK    2  A    between atoms: C5_6  and  C6_7 
REMARK    3  A    between atoms: C6_7  and  O1_9 
ROOT
HETATM    1  C2  UNL     1      54.338  78.852  60.053  1.00  0.00     0.053 C 
HETATM    2  C3  UNL     1      54.312  80.222  59.405  1.00  0.00     0.039 C 
HETATM    3  C4  UNL     1      55.070  78.784  61.376  1.00  0.00     0.049 C 
HETATM    4  C5  UNL     1      55.954  77.619  61.000  1.00  0.00     0.079 C 
HETATM    5  S2  UNL     1      55.474  77.682  59.277  1.00  0.00    -0.141 SA
ENDROOT
BRANCH   4   6
HETATM    6  C6  UNL     1      57.413  77.932  61.273  1.00  0.00     0.128 C 
HETATM    7  C7  UNL     1      58.075  76.630  61.694  1.00  0.00     0.040 C 
BRANCH   6   8
HETATM    8  O1  UNL     1      58.061  78.397  60.141  1.00  0.00    -0.395 OA
ATOM      9  H1  UNL     1      57.528  78.292  59.361  1.00  0.00     0.210 HD
ENDBRANCH   6   8
ENDBRANCH   4   6
BRANCH   1  10
HETATM   10  S1  UNL     1      52.631  78.239  60.208  1.00  0.00    -0.153 SA
HETATM   11  C1  UNL     1      51.659  79.196  58.984  1.00  0.00     0.091 C 
ENDBRANCH   1  10
TORSDOF 3
ENDMDL
