MODEL 1
REMARK VINA RESULT: -7.662035349      0.000      0.000
REMARK  2 active torsions:
REMARK  status: ('A' for Active; 'I' for Inactive)
REMARK    1  A    between atoms: C2_2  and  C9_11 
REMARK    2  A    between atoms: N1_3  and  C3_5 
ROOT
HETATM    1  C1  UNL     1      51.453  79.078  59.318  1.00  0.00     0.075 C 
HETATM    2  C2  UNL     1      52.934  79.200  59.045  1.00  0.00     0.079 C 
HETATM    3  N1  UNL     1      53.650  78.223  59.306  1.00  0.00    -0.383 N 
ATOM      4  H1  UNL     1      53.119  77.438  59.685  1.00  0.00     0.160 HD
ENDROOT
BRANCH   3   5
HETATM    5  C3  UNL     1      55.041  77.939  59.202  1.00  0.00     0.081 C 
HETATM    6  C4  UNL     1      55.811  78.824  60.142  1.00  0.00     0.025 C 
HETATM    7  C5  UNL     1      55.841  78.370  61.558  1.00  0.00     0.002 C 
HETATM    8  C6  UNL     1      55.387  76.935  61.736  1.00  0.00     0.000 C 
HETATM    9  C7  UNL     1      56.084  76.157  60.636  1.00  0.00     0.002 C 
HETATM   10  C8  UNL     1      55.326  76.474  59.377  1.00  0.00     0.025 C 
ENDBRANCH   3   5
BRANCH   2  11
HETATM   11  C9  UNL     1      53.399  80.447  58.502  1.00  0.00     0.221 C 
HETATM   12  O1  UNL     1      52.871  80.898  57.453  1.00  0.00    -0.643 OA
HETATM   13  O2  UNL     1      54.429  81.188  59.103  1.00  0.00    -0.643 OA
ENDBRANCH   2  11
TORSDOF 2
ENDMDL
MODEL 2
REMARK VINA RESULT: -7.084698471      0.806      1.397
REMARK  2 active torsions:
REMARK  status: ('A' for Active; 'I' for Inactive)
REMARK    1  A    between atoms: C2_2  and  C9_11 
REMARK    2  A    between atoms: N1_3  and  C3_5 
ROOT
HETATM    1  C1  UNL     1      51.425  79.138  58.917  1.00  0.00     0.075 C 
HETATM    2  C2  UNL     1      52.847  79.502  59.273  1.00  0.00     0.079 C 
HETATM    3  N1  UNL     1      53.404  78.845  60.165  1.00  0.00    -0.383 N 
ATOM      4  H1  UNL     1      52.800  78.119  60.551  1.00  0.00     0.160 HD
ENDROOT
BRANCH   3   5
HETATM    5  C3  UNL     1      54.688  78.867  60.777  1.00  0.00     0.081 C 
HETATM    6  C4  UNL     1      54.680  77.999  62.005  1.00  0.00     0.025 C 
HETATM    7  C5  UNL     1      54.843  76.543  61.751  1.00  0.00     0.002 C 
HETATM    8  C6  UNL     1      55.328  76.230  60.350  1.00  0.00     0.000 C 
HETATM    9  C7  UNL     1      56.451  77.213  60.087  1.00  0.00     0.002 C 
HETATM   10  C8  UNL     1      55.778  78.527  59.800  1.00  0.00     0.025 C 
ENDBRANCH   3   5
BRANCH   2  11
HETATM   11  C9  UNL     1      53.446  80.588  58.547  1.00  0.00     0.221 C 
HETATM   12  O1  UNL     1      52.916  80.982  57.477  1.00  0.00    -0.643 OA
HETATM   13  O2  UNL     1      54.612  81.233  58.991  1.00  0.00    -0.643 OA
ENDBRANCH   2  11
TORSDOF 2
ENDMDL
MODEL 3
REMARK VINA RESULT: -7.038891486      1.379      2.199
REMARK  2 active torsions:
REMARK  status: ('A' for Active; 'I' for Inactive)
REMARK    1  A    between atoms: C2_2  and  C9_11 
REMARK    2  A    between atoms: N1_3  and  C3_5 
ROOT
HETATM    1  C1  UNL     1      53.465  77.929  57.491  1.00  0.00     0.075 C 
HETATM    2  C2  UNL     1      53.708  78.741  58.741  1.00  0.00     0.079 C 
HETATM    3  N1  UNL     1      54.488  78.278  59.586  1.00  0.00    -0.383 N 
ATOM      4  H1  UNL     1      54.875  77.376  59.308  1.00  0.00     0.160 HD
ENDROOT
BRANCH   3   5
HETATM    5  C3  UNL     1      54.971  78.711  60.853  1.00  0.00     0.081 C 
HETATM    6  C4  UNL     1      55.090  77.533  61.780  1.00  0.00     0.025 C 
HETATM    7  C5  UNL     1      56.319  76.714  61.608  1.00  0.00     0.002 C 
HETATM    8  C6  UNL     1      57.385  77.401  60.777  1.00  0.00     0.000 C 
HETATM    9  C7  UNL     1      57.442  78.823  61.299  1.00  0.00     0.002 C 
HETATM   10  C8  UNL     1      56.235  79.512  60.725  1.00  0.00     0.025 C 
ENDBRANCH   3   5
BRANCH   2  11
HETATM   11  C9  UNL     1      53.011  79.993  58.856  1.00  0.00     0.221 C 
HETATM   12  O1  UNL     1      52.240  80.182  59.831  1.00  0.00    -0.643 OA
HETATM   13  O2  UNL     1      53.160  81.022  57.912  1.00  0.00    -0.643 OA
ENDBRANCH   2  11
TORSDOF 2
ENDMDL
MODEL 4
REMARK VINA RESULT: -6.923521926      1.383      2.261
REMARK  2 active torsions:
REMARK  status: ('A' for Active; 'I' for Inactive)
REMARK    1  A    between atoms: C2_2  and  C9_11 
REMARK    2  A    between atoms: N1_3  and  C3_5 
ROOT
HETATM    1  C1  UNL     1      55.667  81.333  59.322  1.00  0.00     0.075 C 
HETATM    2  C2  UNL     1      54.646  80.221  59.366  1.00  0.00     0.079 C 
HETATM    3  N1  UNL     1      54.998  79.135  59.850  1.00  0.00    -0.383 N 
ATOM      4  H1  UNL     1      55.968  79.143  60.164  1.00  0.00     0.160 HD
ENDROOT
BRANCH   3   5
HETATM    5  C3  UNL     1      54.365  77.880  60.069  1.00  0.00     0.081 C 
HETATM    6  C4  UNL     1      55.185  76.782  59.449  1.00  0.00     0.025 C 
HETATM    7  C5  UNL     1      56.343  76.323  60.261  1.00  0.00     0.002 C 
HETATM    8  C6  UNL     1      56.289  76.793  61.700  1.00  0.00     0.000 C 
HETATM    9  C7  UNL     1      54.859  76.553  62.145  1.00  0.00     0.002 C 
HETATM   10  C8  UNL     1      54.052  77.657  61.521  1.00  0.00     0.025 C 
ENDBRANCH   3   5
BRANCH   2  11
HETATM   11  C9  UNL     1      53.340  80.510  58.841  1.00  0.00     0.221 C 
HETATM   12  O1  UNL     1      53.236  81.078  57.724  1.00  0.00    -0.643 OA
HETATM   13  O2  UNL     1      52.164  80.177  59.533  1.00  0.00    -0.643 OA
ENDBRANCH   2  11
TORSDOF 2
ENDMDL
MODEL 5
REMARK VINA RESULT: -6.809092374      1.544      1.717
REMARK  2 active torsions:
REMARK  status: ('A' for Active; 'I' for Inactive)
REMARK    1  A    between atoms: C2_2  and  C9_11 
REMARK    2  A    between atoms: N1_3  and  C3_5 
ROOT
HETATM    1  C1  UNL     1      53.620  80.982  61.182  1.00  0.00     0.075 C 
HETATM    2  C2  UNL     1      54.057  80.020  60.103  1.00  0.00     0.079 C 
HETATM    3  N1  UNL     1      55.064  79.329  60.320  1.00  0.00    -0.383 N 
ATOM      4  H1  UNL     1      55.475  79.514  61.236  1.00  0.00     0.160 HD
ENDROOT
BRANCH   3   5
HETATM    5  C3  UNL     1      55.781  78.340  59.591  1.00  0.00     0.081 C 
HETATM    6  C4  UNL     1      57.217  78.322  60.037  1.00  0.00     0.025 C 
HETATM    7  C5  UNL     1      57.481  77.568  61.291  1.00  0.00     0.002 C 
HETATM    8  C6  UNL     1      56.331  76.673  61.704  1.00  0.00     0.000 C 
HETATM    9  C7  UNL     1      55.891  75.974  60.433  1.00  0.00     0.002 C 
HETATM   10  C8  UNL     1      55.109  76.998  59.660  1.00  0.00     0.025 C 
ENDBRANCH   3   5
BRANCH   2  11
HETATM   11  C9  UNL     1      53.269  79.980  58.902  1.00  0.00     0.221 C 
HETATM   12  O1  UNL     1      52.499  79.006  58.702  1.00  0.00    -0.643 OA
HETATM   13  O2  UNL     1      53.326  80.996  57.934  1.00  0.00    -0.643 OA
ENDBRANCH   2  11
TORSDOF 2
ENDMDL
