MODEL 1
REMARK VINA RESULT: -6.123104365      0.000      0.000
REMARK  3 active torsions:
REMARK  status: ('A' for Active; 'I' for Inactive)
REMARK    1  A    between atoms: N1_2  and  N2_3 
REMARK    2  A    between atoms: N1_2  and  N3_6 
REMARK    3  A    between atoms: N4_8  and  C2_10 
ROOT
HETATM    1  N3  UNL     1      54.902  80.825  59.640  1.00  0.00    -0.231 N 
ATOM      2  H3  UNL     1      55.155  81.813  59.648  1.00  0.00     0.209 HD
HETATM    3  N4  UNL     1      55.698  80.024  60.214  1.00  0.00    -0.316 N 
ATOM      4  H4  UNL     1      56.547  80.373  60.659  1.00  0.00     0.182 HD
ENDROOT
BRANCH   3   5
HETATM    5  C2  UNL     1      55.396  78.629  60.234  1.00  0.00     0.101 C 
HETATM    6  C3  UNL     1      54.949  78.146  61.604  1.00  0.00     0.027 C 
HETATM    7  C4  UNL     1      55.499  76.739  61.654  1.00  0.00     0.011 C 
HETATM    8  C5  UNL     1      56.889  76.937  61.082  1.00  0.00    -0.046 C 
HETATM    9  C6  UNL     1      57.547  75.638  60.731  1.00  0.00     0.015 C 
HETATM   10  C7  UNL     1      57.749  77.799  61.978  1.00  0.00     0.015 C 
HETATM   11  C8  UNL     1      56.577  77.768  59.845  1.00  0.00     0.035 C 
ENDBRANCH   3   5
BRANCH   1  12
HETATM   12  N1  UNL     1      53.727  80.484  59.006  1.00  0.00    -0.231 N 
HETATM   13  C1  UNL     1      52.603  80.033  59.839  1.00  0.00     0.201 C 
BRANCH  12  14
HETATM   14  N2  UNL     1      53.499  80.528  57.638  1.00  0.00    -0.328 N 
ATOM     15  H22 UNL     1      52.586  80.550  57.184  1.00  0.00     0.178 HD
ATOM     16  H21 UNL     1      54.327  80.538  57.042  1.00  0.00     0.178 HD
ENDBRANCH  12  14
ENDBRANCH   1  12
TORSDOF 3
ENDMDL
MODEL 2
REMARK VINA RESULT: -5.894211704      1.142      1.255
REMARK  3 active torsions:
REMARK  status: ('A' for Active; 'I' for Inactive)
REMARK    1  A    between atoms: N1_2  and  N2_3 
REMARK    2  A    between atoms: N1_2  and  N3_6 
REMARK    3  A    between atoms: N4_8  and  C2_10 
ROOT
HETATM    1  N3  UNL     1      53.577  80.365  60.012  1.00  0.00    -0.231 N 
ATOM      2  H3  UNL     1      53.268  81.188  60.529  1.00  0.00     0.209 HD
HETATM    3  N4  UNL     1      54.519  79.688  60.519  1.00  0.00    -0.316 N 
ATOM      4  H4  UNL     1      54.936  79.970  61.406  1.00  0.00     0.182 HD
ENDROOT
BRANCH   3   5
HETATM    5  C2  UNL     1      54.994  78.527  59.838  1.00  0.00     0.101 C 
HETATM    6  C3  UNL     1      54.129  77.303  60.095  1.00  0.00     0.027 C 
HETATM    7  C4  UNL     1      55.137  76.177  60.078  1.00  0.00     0.011 C 
HETATM    8  C5  UNL     1      56.271  76.773  60.889  1.00  0.00    -0.046 C 
HETATM    9  C6  UNL     1      57.532  75.976  60.768  1.00  0.00     0.015 C 
HETATM   10  C7  UNL     1      55.869  77.010  62.327  1.00  0.00     0.015 C 
HETATM   11  C8  UNL     1      56.400  78.144  60.240  1.00  0.00     0.035 C 
ENDBRANCH   3   5
BRANCH   1  12
HETATM   12  N1  UNL     1      52.930  80.092  58.826  1.00  0.00    -0.231 N 
HETATM   13  C1  UNL     1      51.681  79.320  58.887  1.00  0.00     0.201 C 
BRANCH  12  14
HETATM   14  N2  UNL     1      53.349  80.483  57.562  1.00  0.00    -0.328 N 
ATOM     15  H22 UNL     1      52.805  80.412  56.703  1.00  0.00     0.178 HD
ATOM     16  H21 UNL     1      54.289  80.876  57.500  1.00  0.00     0.178 HD
ENDBRANCH  12  14
ENDBRANCH   1  12
TORSDOF 3
ENDMDL
MODEL 3
REMARK VINA RESULT: -5.843553604      2.002      4.794
REMARK  3 active torsions:
REMARK  status: ('A' for Active; 'I' for Inactive)
REMARK    1  A    between atoms: N1_2  and  N2_3 
REMARK    2  A    between atoms: N1_2  and  N3_6 
REMARK    3  A    between atoms: N4_8  and  C2_10 
ROOT
HETATM    1  N3  UNL     1      57.020  78.910  60.777  1.00  0.00    -0.231 N 
ATOM      2  H3  UNL     1      57.799  79.566  60.828  1.00  0.00     0.209 HD
HETATM    3  N4  UNL     1      55.934  79.342  60.289  1.00  0.00    -0.316 N 
ATOM      4  H4  UNL     1      55.864  80.308  59.967  1.00  0.00     0.182 HD
ENDROOT
BRANCH   3   5
HETATM    5  C2  UNL     1      54.810  78.469  60.195  1.00  0.00     0.101 C 
HETATM    6  C3  UNL     1      54.681  77.828  58.822  1.00  0.00     0.027 C 
HETATM    7  C4  UNL     1      53.183  77.717  58.649  1.00  0.00     0.011 C 
HETATM    8  C5  UNL     1      52.719  79.068  59.157  1.00  0.00    -0.046 C 
HETATM    9  C6  UNL     1      51.239  79.109  59.384  1.00  0.00     0.015 C 
HETATM   10  C7  UNL     1      53.201  80.196  58.273  1.00  0.00     0.015 C 
HETATM   11  C8  UNL     1      53.497  79.171  60.460  1.00  0.00     0.035 C 
ENDBRANCH   3   5
BRANCH   1  12
HETATM   12  N1  UNL     1      57.245  77.633  61.246  1.00  0.00    -0.231 N 
HETATM   13  C1  UNL     1      58.622  77.122  61.209  1.00  0.00     0.201 C 
BRANCH  12  14
HETATM   14  N2  UNL     1      56.284  76.773  61.757  1.00  0.00    -0.328 N 
ATOM     15  H22 UNL     1      56.187  76.498  62.735  1.00  0.00     0.178 HD
ATOM     16  H21 UNL     1      55.620  76.387  61.086  1.00  0.00     0.178 HD
ENDBRANCH  12  14
ENDBRANCH   1  12
TORSDOF 3
ENDMDL
MODEL 4
REMARK VINA RESULT: -5.635957122      2.157      4.558
REMARK  3 active torsions:
REMARK  status: ('A' for Active; 'I' for Inactive)
REMARK    1  A    between atoms: N1_2  and  N2_3 
REMARK    2  A    between atoms: N1_2  and  N3_6 
REMARK    3  A    between atoms: N4_8  and  C2_10 
ROOT
HETATM    1  N3  UNL     1      56.898  78.980  61.745  1.00  0.00    -0.231 N 
ATOM      2  H3  UNL     1      57.361  79.696  62.303  1.00  0.00     0.209 HD
HETATM    3  N4  UNL     1      55.654  79.114  61.555  1.00  0.00    -0.316 N 
ATOM      4  H4  UNL     1      55.156  79.911  61.951  1.00  0.00     0.182 HD
ENDROOT
BRANCH   3   5
HETATM    5  C2  UNL     1      54.953  78.140  60.781  1.00  0.00     0.101 C 
HETATM    6  C3  UNL     1      55.279  78.225  59.299  1.00  0.00     0.027 C 
HETATM    7  C4  UNL     1      53.970  77.836  58.650  1.00  0.00     0.011 C 
HETATM    8  C5  UNL     1      52.974  78.612  59.489  1.00  0.00    -0.046 C 
HETATM    9  C6  UNL     1      51.565  78.164  59.253  1.00  0.00     0.015 C 
HETATM   10  C7  UNL     1      53.142  80.105  59.324  1.00  0.00     0.015 C 
HETATM   11  C8  UNL     1      53.451  78.272  60.893  1.00  0.00     0.035 C 
ENDBRANCH   3   5
BRANCH   1  12
HETATM   12  N1  UNL     1      57.685  77.954  61.266  1.00  0.00    -0.231 N 
HETATM   13  C1  UNL     1      57.509  76.620  61.857  1.00  0.00     0.201 C 
BRANCH  12  14
HETATM   14  N2  UNL     1      58.640  78.062  60.265  1.00  0.00    -0.328 N 
ATOM     15  H22 UNL     1      59.465  77.471  60.159  1.00  0.00     0.178 HD
ATOM     16  H21 UNL     1      58.494  78.802  59.579  1.00  0.00     0.178 HD
ENDBRANCH  12  14
ENDBRANCH   1  12
TORSDOF 3
ENDMDL
MODEL 5
REMARK VINA RESULT: -5.602968945      2.636      4.865
REMARK  3 active torsions:
REMARK  status: ('A' for Active; 'I' for Inactive)
REMARK    1  A    between atoms: N1_2  and  N2_3 
REMARK    2  A    between atoms: N1_2  and  N3_6 
REMARK    3  A    between atoms: N4_8  and  C2_10 
ROOT
HETATM    1  N3  UNL     1      56.095  76.521  61.247  1.00  0.00    -0.231 N 
ATOM      2  H3  UNL     1      55.919  75.613  61.678  1.00  0.00     0.209 HD
HETATM    3  N4  UNL     1      55.083  77.203  60.909  1.00  0.00    -0.316 N 
ATOM      4  H4  UNL     1      54.143  76.842  61.071  1.00  0.00     0.182 HD
ENDROOT
BRANCH   3   5
HETATM    5  C2  UNL     1      55.268  78.480  60.301  1.00  0.00     0.101 C 
HETATM    6  C3  UNL     1      54.785  79.623  61.180  1.00  0.00     0.027 C 
HETATM    7  C4  UNL     1      54.273  80.623  60.168  1.00  0.00     0.011 C 
HETATM    8  C5  UNL     1      53.515  79.724  59.211  1.00  0.00    -0.046 C 
HETATM    9  C6  UNL     1      53.161  80.426  57.936  1.00  0.00     0.015 C 
HETATM   10  C7  UNL     1      52.316  79.083  59.872  1.00  0.00     0.015 C 
HETATM   11  C8  UNL     1      54.534  78.616  58.986  1.00  0.00     0.035 C 
ENDBRANCH   3   5
BRANCH   1  12
HETATM   12  N1  UNL     1      57.413  76.892  61.086  1.00  0.00    -0.231 N 
HETATM   13  C1  UNL     1      58.448  76.003  61.631  1.00  0.00     0.201 C 
BRANCH  12  14
HETATM   14  N2  UNL     1      57.862  78.040  60.449  1.00  0.00    -0.328 N 
ATOM     15  H22 UNL     1      58.112  78.918  60.904  1.00  0.00     0.178 HD
ATOM     16  H21 UNL     1      57.945  77.990  59.433  1.00  0.00     0.178 HD
ENDBRANCH  12  14
ENDBRANCH   1  12
TORSDOF 3
ENDMDL
