MODEL 1
REMARK VINA RESULT: -5.921132937      0.000      0.000
REMARK  3 active torsions:
REMARK  status: ('A' for Active; 'I' for Inactive)
REMARK    1  A    between atoms: C2_2  and  C3_3 
REMARK       I    between atoms: C3_3  and  N1_5 
REMARK    2  A    between atoms: N1_5  and  O2_6 
REMARK    3  A    between atoms: N1_5  and  C4_8 
ROOT
HETATM    1  C3  UNL     1      57.354  78.152  60.929  1.00  0.00     0.243 C 
HETATM    2  O1  UNL     1      58.607  78.344  60.694  1.00  0.00    -0.271 OA
HETATM    3  N1  UNL     1      56.480  79.199  60.620  1.00  0.00    -0.212 N 
ENDROOT
BRANCH   3   4
HETATM    4  O2  UNL     1      57.036  80.346  60.100  1.00  0.00    -0.284 OA
ATOM      5  H2  UNL     1      56.669  81.174  60.388  1.00  0.00     0.245 HD
ENDBRANCH   3   4
BRANCH   3   6
HETATM    6  C4  UNL     1      55.050  79.220  60.776  1.00  0.00     0.200 A 
HETATM    7  C5  UNL     1      54.389  80.547  60.422  1.00  0.00     0.125 A 
HETATM    8  S1  UNL     1      53.233  80.131  59.103  1.00  0.00    -0.092 SA
HETATM    9  S2  UNL     1      54.139  78.292  59.549  1.00  0.00    -0.068 SA
ENDBRANCH   3   6
BRANCH   1  10
HETATM   10  C2  UNL     1      57.023  76.840  61.498  1.00  0.00     0.101 C 
HETATM   11  C1  UNL     1      58.247  75.954  61.651  1.00  0.00     0.014 C 
ENDBRANCH   1  10
TORSDOF 3
ENDMDL
MODEL 2
REMARK VINA RESULT: -5.645125695      2.948      4.735
REMARK  3 active torsions:
REMARK  status: ('A' for Active; 'I' for Inactive)
REMARK    1  A    between atoms: C2_2  and  C3_3 
REMARK       I    between atoms: C3_3  and  N1_5 
REMARK    2  A    between atoms: N1_5  and  O2_6 
REMARK    3  A    between atoms: N1_5  and  C4_8 
ROOT
HETATM    1  C3  UNL     1      53.256  80.051  58.731  1.00  0.00     0.243 C 
HETATM    2  O1  UNL     1      53.058  81.097  58.006  1.00  0.00    -0.271 OA
HETATM    3  N1  UNL     1      54.365  80.067  59.584  1.00  0.00    -0.212 N 
ENDROOT
BRANCH   3   4
HETATM    4  O2  UNL     1      55.153  81.197  59.566  1.00  0.00    -0.284 OA
ATOM      5  H2  UNL     1      55.901  81.211  60.151  1.00  0.00     0.245 HD
ENDBRANCH   3   4
BRANCH   3   6
HETATM    6  C4  UNL     1      54.784  79.035  60.495  1.00  0.00     0.200 A 
HETATM    7  C5  UNL     1      55.276  77.756  59.827  1.00  0.00     0.125 A 
HETATM    8  S1  UNL     1      56.969  77.568  60.418  1.00  0.00    -0.092 SA
HETATM    9  S2  UNL     1      56.332  79.345  61.334  1.00  0.00    -0.068 SA
ENDBRANCH   3   6
BRANCH   1  10
HETATM   10  C2  UNL     1      52.273  78.976  58.553  1.00  0.00     0.101 C 
HETATM   11  C1  UNL     1      51.075  79.134  59.473  1.00  0.00     0.014 C 
ENDBRANCH   1  10
TORSDOF 3
ENDMDL
MODEL 3
REMARK VINA RESULT: -5.297573871      1.628      1.946
REMARK  3 active torsions:
REMARK  status: ('A' for Active; 'I' for Inactive)
REMARK    1  A    between atoms: C2_2  and  C3_3 
REMARK       I    between atoms: C3_3  and  N1_5 
REMARK    2  A    between atoms: N1_5  and  O2_6 
REMARK    3  A    between atoms: N1_5  and  C4_8 
ROOT
HETATM    1  C3  UNL     1      56.312  78.823  60.805  1.00  0.00     0.243 C 
HETATM    2  O1  UNL     1      56.963  79.460  61.717  1.00  0.00    -0.271 OA
HETATM    3  N1  UNL     1      55.151  79.427  60.312  1.00  0.00    -0.212 N 
ENDROOT
BRANCH   3   4
HETATM    4  O2  UNL     1      54.800  80.645  60.851  1.00  0.00    -0.284 OA
ATOM      5  H2  UNL     1      55.251  80.913  61.644  1.00  0.00     0.245 HD
ENDBRANCH   3   4
BRANCH   3   6
HETATM    6  C4  UNL     1      54.270  78.926  59.291  1.00  0.00     0.200 A 
HETATM    7  C5  UNL     1      53.060  78.159  59.812  1.00  0.00     0.125 A 
HETATM    8  S1  UNL     1      51.644  79.074  59.174  1.00  0.00    -0.092 SA
HETATM    9  S2  UNL     1      53.286  80.167  58.460  1.00  0.00    -0.068 SA
ENDBRANCH   3   6
BRANCH   1  10
HETATM   10  C2  UNL     1      56.894  77.535  60.412  1.00  0.00     0.101 C 
HETATM   11  C1  UNL     1      56.864  76.521  61.542  1.00  0.00     0.014 C 
ENDBRANCH   1  10
TORSDOF 3
ENDMDL
MODEL 4
REMARK VINA RESULT: -5.175477588      2.258      4.265
REMARK  3 active torsions:
REMARK  status: ('A' for Active; 'I' for Inactive)
REMARK    1  A    between atoms: C2_2  and  C3_3 
REMARK       I    between atoms: C3_3  and  N1_5 
REMARK    2  A    between atoms: N1_5  and  O2_6 
REMARK    3  A    between atoms: N1_5  and  C4_8 
ROOT
HETATM    1  C3  UNL     1      54.732  79.712  60.310  1.00  0.00     0.243 C 
HETATM    2  O1  UNL     1      54.507  80.969  60.487  1.00  0.00    -0.271 OA
HETATM    3  N1  UNL     1      56.070  79.302  60.287  1.00  0.00    -0.212 N 
ENDROOT
BRANCH   3   4
HETATM    4  O2  UNL     1      57.027  80.279  60.447  1.00  0.00    -0.284 OA
ATOM      5  H2  UNL     1      56.729  81.181  60.448  1.00  0.00     0.245 HD
ENDBRANCH   3   4
BRANCH   3   6
HETATM    6  C4  UNL     1      56.572  77.964  60.122  1.00  0.00     0.200 A 
HETATM    7  C5  UNL     1      58.048  77.790  60.459  1.00  0.00     0.125 A 
HETATM    8  S1  UNL     1      58.062  76.557  61.774  1.00  0.00    -0.092 SA
HETATM    9  S2  UNL     1      56.020  76.788  61.351  1.00  0.00    -0.068 SA
ENDBRANCH   3   6
BRANCH   1  10
HETATM   10  C2  UNL     1      53.533  78.882  60.154  1.00  0.00     0.101 C 
HETATM   11  C1  UNL     1      52.414  79.616  59.436  1.00  0.00     0.014 C 
ENDBRANCH   1  10
TORSDOF 3
ENDMDL
MODEL 5
REMARK VINA RESULT: -5.056620661      3.160      4.804
REMARK  3 active torsions:
REMARK  status: ('A' for Active; 'I' for Inactive)
REMARK    1  A    between atoms: C2_2  and  C3_3 
REMARK       I    between atoms: C3_3  and  N1_5 
REMARK    2  A    between atoms: N1_5  and  O2_6 
REMARK    3  A    between atoms: N1_5  and  C4_8 
ROOT
HETATM    1  C3  UNL     1      53.408  78.129  59.735  1.00  0.00     0.243 C 
HETATM    2  O1  UNL     1      52.616  77.498  58.938  1.00  0.00    -0.271 OA
HETATM    3  N1  UNL     1      54.443  77.391  60.319  1.00  0.00    -0.212 N 
ENDROOT
BRANCH   3   4
HETATM    4  O2  UNL     1      54.519  76.055  59.997  1.00  0.00    -0.284 OA
ATOM      5  H2  UNL     1      55.360  75.730  59.696  1.00  0.00     0.245 HD
ENDBRANCH   3   4
BRANCH   3   6
HETATM    6  C4  UNL     1      55.456  77.868  61.222  1.00  0.00     0.200 A 
HETATM    7  C5  UNL     1      56.471  76.817  61.657  1.00  0.00     0.125 A 
HETATM    8  S1  UNL     1      58.058  77.482  61.120  1.00  0.00    -0.092 SA
HETATM    9  S2  UNL     1      56.686  78.938  60.488  1.00  0.00    -0.068 SA
ENDBRANCH   3   6
BRANCH   1  10
HETATM   10  C2  UNL     1      53.102  79.552  59.918  1.00  0.00     0.101 C 
HETATM   11  C1  UNL     1      53.340  80.359  58.654  1.00  0.00     0.014 C 
ENDBRANCH   1  10
TORSDOF 3
ENDMDL
