MODEL 1
REMARK VINA RESULT: -7.322666477      0.000      0.000
REMARK  2 active torsions:
REMARK  status: ('A' for Active; 'I' for Inactive)
REMARK    1  A    between atoms: C2_2  and  C3_3 
REMARK    2  A    between atoms: C9_12  and  O1_13 
ROOT
HETATM    1  O1  UNL     1      55.129  80.047  58.838  1.00  0.00    -0.275 OA
HETATM    2  C10 UNL     1      53.926  80.558  58.454  1.00  0.00     0.229 C 
HETATM    3  N2  UNL     1      52.891  80.976  58.124  1.00  0.00    -0.164 NA
ENDROOT
BRANCH   1   4
HETATM    4  C9  UNL     1      55.230  79.424  60.081  1.00  0.00     0.177 C 
HETATM    5  C3  UNL     1      54.822  77.967  60.049  1.00  0.00     0.149 C 
HETATM    6  C4  UNL     1      53.860  77.772  61.226  1.00  0.00     0.049 C 
HETATM    7  N1  UNL     1      55.907  77.061  60.249  1.00  0.00    -0.060 N 
HETATM    8  C5  UNL     1      56.621  77.262  61.477  1.00  0.00     0.183 C 
ATOM      9  H12 UNL     1      55.585  76.096  60.177  1.00  0.00     0.278 HD
ATOM     10  H11 UNL     1      56.548  77.090  59.456  1.00  0.00     0.278 HD
HETATM   11  C6  UNL     1      57.951  76.509  61.369  1.00  0.00     0.040 C 
HETATM   12  C7  UNL     1      56.962  78.709  61.734  1.00  0.00     0.035 C 
HETATM   13  C8  UNL     1      56.691  79.564  60.516  1.00  0.00     0.038 C 
BRANCH   5  14
HETATM   14  C2  UNL     1      54.050  77.593  58.813  1.00  0.00     0.037 C 
HETATM   15  C1  UNL     1      52.581  77.444  59.027  1.00  0.00     0.007 C 
ENDBRANCH   5  14
ENDBRANCH   1   4
TORSDOF 2
ENDMDL
MODEL 2
REMARK VINA RESULT: -7.291805287      1.844      4.204
REMARK  2 active torsions:
REMARK  status: ('A' for Active; 'I' for Inactive)
REMARK    1  A    between atoms: C2_2  and  C3_3 
REMARK    2  A    between atoms: C9_12  and  O1_13 
ROOT
HETATM    1  O1  UNL     1      55.875  79.180  61.333  1.00  0.00    -0.275 OA
HETATM    2  C10 UNL     1      57.162  78.734  61.373  1.00  0.00     0.229 C 
HETATM    3  N2  UNL     1      58.254  78.333  61.405  1.00  0.00    -0.164 NA
ENDROOT
BRANCH   1   4
HETATM    4  C9  UNL     1      55.189  79.149  60.119  1.00  0.00     0.177 C 
HETATM    5  C3  UNL     1      54.442  77.852  59.894  1.00  0.00     0.149 C 
HETATM    6  C4  UNL     1      54.804  77.399  58.475  1.00  0.00     0.049 C 
HETATM    7  N1  UNL     1      53.022  77.992  59.933  1.00  0.00    -0.060 N 
HETATM    8  C5  UNL     1      52.499  78.938  58.990  1.00  0.00     0.183 C 
ATOM      9  H12 UNL     1      52.571  77.085  59.817  1.00  0.00     0.278 HD
ATOM     10  H11 UNL     1      52.712  78.221  60.877  1.00  0.00     0.278 HD
HETATM   11  C6  UNL     1      51.061  79.263  59.408  1.00  0.00     0.040 C 
HETATM   12  C7  UNL     1      53.253  80.245  58.982  1.00  0.00     0.035 C 
HETATM   13  C8  UNL     1      54.218  80.332  60.143  1.00  0.00     0.038 C 
BRANCH   5  14
HETATM   14  C2  UNL     1      54.884  76.745  60.810  1.00  0.00     0.037 C 
HETATM   15  C1  UNL     1      55.773  75.732  60.169  1.00  0.00     0.007 C 
ENDBRANCH   5  14
ENDBRANCH   1   4
TORSDOF 2
ENDMDL
MODEL 3
REMARK VINA RESULT: -7.158397735      1.274      1.472
REMARK  2 active torsions:
REMARK  status: ('A' for Active; 'I' for Inactive)
REMARK    1  A    between atoms: C2_2  and  C3_3 
REMARK    2  A    between atoms: C9_12  and  O1_13 
ROOT
HETATM    1  O1  UNL     1      53.888  78.906  58.902  1.00  0.00    -0.275 OA
HETATM    2  C10 UNL     1      53.418  80.066  58.363  1.00  0.00     0.229 C 
HETATM    3  N2  UNL     1      53.002  81.057  57.918  1.00  0.00    -0.164 NA
ENDROOT
BRANCH   1   4
HETATM    4  C9  UNL     1      54.577  78.957  60.113  1.00  0.00     0.177 C 
HETATM    5  C3  UNL     1      54.979  77.590  60.624  1.00  0.00     0.149 C 
HETATM    6  C4  UNL     1      54.553  77.548  62.096  1.00  0.00     0.049 C 
HETATM    7  N1  UNL     1      56.387  77.356  60.595  1.00  0.00    -0.060 N 
HETATM    8  C5  UNL     1      57.157  78.314  61.334  1.00  0.00     0.183 C 
ATOM      9  H12 UNL     1      56.598  76.409  60.909  1.00  0.00     0.278 HD
ATOM     10  H11 UNL     1      56.719  77.297  59.632  1.00  0.00     0.278 HD
HETATM   11  C6  UNL     1      58.618  78.172  60.896  1.00  0.00     0.040 C 
HETATM   12  C7  UNL     1      56.757  79.741  61.049  1.00  0.00     0.035 C 
HETATM   13  C8  UNL     1      55.814  79.825  59.870  1.00  0.00     0.038 C 
BRANCH   5  14
HETATM   14  C2  UNL     1      54.247  76.464  59.946  1.00  0.00     0.037 C 
HETATM   15  C1  UNL     1      55.052  75.219  59.779  1.00  0.00     0.007 C 
ENDBRANCH   5  14
ENDBRANCH   1   4
TORSDOF 2
ENDMDL
MODEL 4
REMARK VINA RESULT: -6.907057854      1.816      4.362
REMARK  2 active torsions:
REMARK  status: ('A' for Active; 'I' for Inactive)
REMARK    1  A    between atoms: C2_2  and  C3_3 
REMARK    2  A    between atoms: C9_12  and  O1_13 
ROOT
HETATM    1  O1  UNL     1      56.593  78.105  59.511  1.00  0.00    -0.275 OA
HETATM    2  C10 UNL     1      57.650  77.949  60.357  1.00  0.00     0.229 C 
HETATM    3  N2  UNL     1      58.545  77.831  61.092  1.00  0.00    -0.164 NA
ENDROOT
BRANCH   1   4
HETATM    4  C9  UNL     1      55.333  77.672  59.921  1.00  0.00     0.177 C 
HETATM    5  C3  UNL     1      54.601  78.693  60.765  1.00  0.00     0.149 C 
HETATM    6  C4  UNL     1      54.080  77.932  61.990  1.00  0.00     0.049 C 
HETATM    7  N1  UNL     1      53.464  79.264  60.120  1.00  0.00    -0.060 N 
HETATM    8  C5  UNL     1      52.485  78.304  59.696  1.00  0.00     0.183 C 
ATOM      9  H12 UNL     1      53.034  79.973  60.715  1.00  0.00     0.278 HD
ATOM     10  H11 UNL     1      53.753  79.849  59.336  1.00  0.00     0.278 HD
HETATM   11  C6  UNL     1      51.551  79.003  58.702  1.00  0.00     0.040 C 
HETATM   12  C7  UNL     1      53.088  77.128  58.968  1.00  0.00     0.035 C 
HETATM   13  C8  UNL     1      54.545  77.367  58.644  1.00  0.00     0.038 C 
BRANCH   5  14
HETATM   14  C2  UNL     1      55.499  79.775  61.299  1.00  0.00     0.037 C 
HETATM   15  C1  UNL     1      55.431  81.060  60.542  1.00  0.00     0.007 C 
ENDBRANCH   5  14
ENDBRANCH   1   4
TORSDOF 2
ENDMDL
MODEL 5
REMARK VINA RESULT: -6.482693835      1.376      1.574
REMARK  2 active torsions:
REMARK  status: ('A' for Active; 'I' for Inactive)
REMARK    1  A    between atoms: C2_2  and  C3_3 
REMARK    2  A    between atoms: C9_12  and  O1_13 
ROOT
HETATM    1  O1  UNL     1      52.658  80.197  59.867  1.00  0.00    -0.275 OA
HETATM    2  C10 UNL     1      53.063  80.596  58.629  1.00  0.00     0.229 C 
HETATM    3  N2  UNL     1      53.418  80.954  57.580  1.00  0.00    -0.164 NA
ENDROOT
BRANCH   1   4
HETATM    4  C9  UNL     1      53.608  79.702  60.760  1.00  0.00     0.177 C 
HETATM    5  C3  UNL     1      53.855  78.218  60.599  1.00  0.00     0.149 C 
HETATM    6  C4  UNL     1      53.785  77.623  62.010  1.00  0.00     0.049 C 
HETATM    7  N1  UNL     1      55.148  77.903  60.083  1.00  0.00    -0.060 N 
HETATM    8  C5  UNL     1      56.234  78.419  60.865  1.00  0.00     0.183 C 
ATOM      9  H12 UNL     1      55.247  76.896  59.955  1.00  0.00     0.278 HD
ATOM     10  H11 UNL     1      55.230  78.209  59.113  1.00  0.00     0.278 HD
HETATM   11  C6  UNL     1      57.500  78.348  60.004  1.00  0.00     0.040 C 
HETATM   12  C7  UNL     1      56.052  79.868  61.247  1.00  0.00     0.035 C 
HETATM   13  C8  UNL     1      54.893  80.493  60.505  1.00  0.00     0.038 C 
BRANCH   5  14
HETATM   14  C2  UNL     1      52.789  77.521  59.799  1.00  0.00     0.037 C 
HETATM   15  C1  UNL     1      53.213  77.117  58.426  1.00  0.00     0.007 C 
ENDBRANCH   5  14
ENDBRANCH   1   4
TORSDOF 2
ENDMDL
