MODEL 1
REMARK VINA RESULT: -8.207373330      0.000      0.000
REMARK  8 active torsions:
REMARK  status: ('A' for Active; 'I' for Inactive)
REMARK    1  A    between atoms: C2_2  and  C5_5 
REMARK    2  A    between atoms: C5_5  and  C6_6 
REMARK    3  A    between atoms: C7_7  and  C8_8 
REMARK    4  A    between atoms: C8_8  and  O1_9 
REMARK    5  A    between atoms: C8_8  and  N1_11 
REMARK    6  A    between atoms: N1_11  and  C9_13 
REMARK    7  A    between atoms: C15_23  and  N4_24 
REMARK    8  A    between atoms: N4_24  and  C16_26 
ROOT
HETATM    1  C9  UNL     1      49.080  -7.723  10.746  1.00  0.00     0.131 A 
HETATM    2  N2  UNL     1      48.092  -6.842  10.802  1.00  0.00    -0.348 N 
ATOM      3  H2  UNL     1      48.213  -5.958  10.306  1.00  0.00     0.167 HD
HETATM    4  C10 UNL     1      46.939  -7.036  11.472  1.00  0.00     0.120 A 
HETATM    5  C11 UNL     1      46.776  -8.243  12.150  1.00  0.00     0.060 A 
HETATM    6  N3  UNL     1      45.762  -8.716  12.895  1.00  0.00    -0.364 N 
ATOM      7  H3  UNL     1      44.886  -8.232  13.093  1.00  0.00     0.165 HD
HETATM    8  C12 UNL     1      46.103  -9.929  13.328  1.00  0.00     0.089 A 
HETATM    9  C13 UNL     1      47.348 -10.268  12.873  1.00  0.00     0.033 A 
HETATM   10  C14 UNL     1      47.791  -9.205  12.121  1.00  0.00     0.023 A 
HETATM   11  C15 UNL     1      48.937  -8.923  11.409  1.00  0.00     0.085 A 
ENDROOT
BRANCH   1  12
HETATM   12  N1  UNL     1      50.141  -7.488  10.101  1.00  0.00    -0.338 N 
ATOM     13  H1  UNL     1      51.006  -7.539  10.641  1.00  0.00     0.164 HD
BRANCH  12  14
HETATM   14  C8  UNL     1      50.295  -7.163   8.726  1.00  0.00     0.301 C 
BRANCH  14  15
HETATM   15  C7  UNL     1      51.673  -6.790   8.363  1.00  0.00    -0.053 C 
HETATM   16  C6  UNL     1      52.802  -6.487   8.065  1.00  0.00    -0.101 C 
BRANCH  16  17
HETATM   17  C5  UNL     1      54.167  -6.110   7.698  1.00  0.00     0.102 C 
BRANCH  17  18
HETATM   18  C2  UNL     1      54.726  -7.250   6.854  1.00  0.00    -0.041 C 
HETATM   19  C1  UNL     1      53.928  -7.376   5.558  1.00  0.00     0.015 C 
HETATM   20  C3  UNL     1      54.626  -8.564   7.571  1.00  0.00     0.015 C 
HETATM   21  C4  UNL     1      56.139  -6.907   6.497  1.00  0.00     0.015 C 
ENDBRANCH  17  18
ENDBRANCH  16  17
ENDBRANCH  14  15
BRANCH  14  22
HETATM   22  O1  UNL     1      49.365  -6.243   8.247  1.00  0.00    -0.366 OA
ATOM     23  H1  UNL     1      48.492  -6.417   8.579  1.00  0.00     0.213 HD
ENDBRANCH  14  22
ENDBRANCH  12  14
ENDBRANCH   1  12
BRANCH  11  24
HETATM   24  N4  UNL     1      49.994  -9.886  11.371  1.00  0.00    -0.382 N 
ATOM     25  H4  UNL     1      50.613  -9.947  12.179  1.00  0.00     0.160 HD
BRANCH  24  26
HETATM   26  C16 UNL     1      50.239 -10.771  10.271  1.00  0.00     0.082 C 
HETATM   27  C17 UNL     1      51.666 -10.630   9.810  1.00  0.00     0.025 C 
HETATM   28  C18 UNL     1      52.387 -11.961   9.769  1.00  0.00     0.002 C 
HETATM   29  C19 UNL     1      51.617 -12.974   8.934  1.00  0.00     0.000 C 
HETATM   30  C20 UNL     1      50.162 -12.999   9.285  1.00  0.00     0.002 C 
HETATM   31  C21 UNL     1      49.945 -12.218  10.579  1.00  0.00     0.025 C 
ENDBRANCH  24  26
ENDBRANCH  11  24
TORSDOF 8
ENDMDL
MODEL 2
REMARK VINA RESULT: -8.190447790      0.669      1.094
REMARK  8 active torsions:
REMARK  status: ('A' for Active; 'I' for Inactive)
REMARK    1  A    between atoms: C2_2  and  C5_5 
REMARK    2  A    between atoms: C5_5  and  C6_6 
REMARK    3  A    between atoms: C7_7  and  C8_8 
REMARK    4  A    between atoms: C8_8  and  O1_9 
REMARK    5  A    between atoms: C8_8  and  N1_11 
REMARK    6  A    between atoms: N1_11  and  C9_13 
REMARK    7  A    between atoms: C15_23  and  N4_24 
REMARK    8  A    between atoms: N4_24  and  C16_26 
ROOT
HETATM    1  C9  UNL     1      49.104  -7.722  10.719  1.00  0.00     0.131 A 
HETATM    2  N2  UNL     1      48.119  -6.837  10.760  1.00  0.00    -0.348 N 
ATOM      3  H2  UNL     1      48.245  -5.959  10.256  1.00  0.00     0.167 HD
HETATM    4  C10 UNL     1      46.961  -7.021  11.425  1.00  0.00     0.120 A 
HETATM    5  C11 UNL     1      46.789  -8.220  12.114  1.00  0.00     0.060 A 
HETATM    6  N3  UNL     1      45.769  -8.682  12.858  1.00  0.00    -0.364 N 
ATOM      7  H3  UNL     1      44.894  -8.193  13.046  1.00  0.00     0.165 HD
HETATM    8  C12 UNL     1      46.104  -9.892  13.306  1.00  0.00     0.089 A 
HETATM    9  C13 UNL     1      47.351 -10.239  12.863  1.00  0.00     0.033 A 
HETATM   10  C14 UNL     1      47.802  -9.185  12.102  1.00  0.00     0.023 A 
HETATM   11  C15 UNL     1      48.954  -8.914  11.395  1.00  0.00     0.085 A 
ENDROOT
BRANCH   1  12
HETATM   12  N1  UNL     1      50.170  -7.497  10.079  1.00  0.00    -0.338 N 
ATOM     13  H1  UNL     1      51.026  -7.492  10.635  1.00  0.00     0.164 HD
BRANCH  12  14
HETATM   14  C8  UNL     1      50.339  -7.248   8.690  1.00  0.00     0.301 C 
BRANCH  14  15
HETATM   15  C7  UNL     1      51.741  -7.011   8.304  1.00  0.00    -0.053 C 
HETATM   16  C6  UNL     1      52.889  -6.819   7.988  1.00  0.00    -0.101 C 
BRANCH  16  17
HETATM   17  C5  UNL     1      54.279  -6.575   7.599  1.00  0.00     0.102 C 
BRANCH  17  18
HETATM   18  C2  UNL     1      54.243  -5.586   6.439  1.00  0.00    -0.041 C 
HETATM   19  C1  UNL     1      53.689  -4.244   6.918  1.00  0.00     0.015 C 
HETATM   20  C3  UNL     1      53.353  -6.068   5.332  1.00  0.00     0.015 C 
HETATM   21  C4  UNL     1      55.651  -5.368   5.979  1.00  0.00     0.015 C 
ENDBRANCH  17  18
ENDBRANCH  16  17
ENDBRANCH  14  15
BRANCH  14  22
HETATM   22  O1  UNL     1      49.487  -6.276   8.173  1.00  0.00    -0.366 OA
ATOM     23  H1  UNL     1      49.078  -5.762   8.860  1.00  0.00     0.213 HD
ENDBRANCH  14  22
ENDBRANCH  12  14
ENDBRANCH   1  12
BRANCH  11  24
HETATM   24  N4  UNL     1      50.008  -9.881  11.373  1.00  0.00    -0.382 N 
ATOM     25  H4  UNL     1      50.609  -9.948  12.193  1.00  0.00     0.160 HD
BRANCH  24  26
HETATM   26  C16 UNL     1      50.272 -10.761  10.274  1.00  0.00     0.082 C 
HETATM   27  C17 UNL     1      51.716 -10.643   9.861  1.00  0.00     0.025 C 
HETATM   28  C18 UNL     1      52.413 -11.986   9.832  1.00  0.00     0.002 C 
HETATM   29  C19 UNL     1      51.653 -12.978   8.964  1.00  0.00     0.000 C 
HETATM   30  C20 UNL     1      50.187 -12.979   9.267  1.00  0.00     0.002 C 
HETATM   31  C21 UNL     1      49.941 -12.204  10.560  1.00  0.00     0.025 C 
ENDBRANCH  24  26
ENDBRANCH  11  24
TORSDOF 8
ENDMDL
MODEL 3
REMARK VINA RESULT: -7.620745005      1.205      1.921
REMARK  8 active torsions:
REMARK  status: ('A' for Active; 'I' for Inactive)
REMARK    1  A    between atoms: C2_2  and  C5_5 
REMARK    2  A    between atoms: C5_5  and  C6_6 
REMARK    3  A    between atoms: C7_7  and  C8_8 
REMARK    4  A    between atoms: C8_8  and  O1_9 
REMARK    5  A    between atoms: C8_8  and  N1_11 
REMARK    6  A    between atoms: N1_11  and  C9_13 
REMARK    7  A    between atoms: C15_23  and  N4_24 
REMARK    8  A    between atoms: N4_24  and  C16_26 
ROOT
HETATM    1  C9  UNL     1      49.117  -7.936  10.698  1.00  0.00     0.131 A 
HETATM    2  N2  UNL     1      48.244  -6.945  10.793  1.00  0.00    -0.348 N 
ATOM      3  H2  UNL     1      48.456  -6.074  10.306  1.00  0.00     0.167 HD
HETATM    4  C10 UNL     1      47.094  -7.011  11.493  1.00  0.00     0.120 A 
HETATM    5  C11 UNL     1      46.806  -8.200  12.160  1.00  0.00     0.060 A 
HETATM    6  N3  UNL     1      45.763  -8.561  12.927  1.00  0.00    -0.364 N 
ATOM      7  H3  UNL     1      44.957  -7.979  13.157  1.00  0.00     0.165 HD
HETATM    8  C12 UNL     1      45.968  -9.813  13.336  1.00  0.00     0.089 A 
HETATM    9  C13 UNL     1      47.151 -10.291  12.841  1.00  0.00     0.033 A 
HETATM   10  C14 UNL     1      47.697  -9.276  12.090  1.00  0.00     0.023 A 
HETATM   11  C15 UNL     1      48.850  -9.121  11.349  1.00  0.00     0.085 A 
ENDROOT
BRANCH   1  12
HETATM   12  N1  UNL     1      50.182  -7.819  10.026  1.00  0.00    -0.338 N 
ATOM     13  H1  UNL     1      51.041  -8.073  10.514  1.00  0.00     0.164 HD
BRANCH  12  14
HETATM   14  C8  UNL     1      50.344  -7.382   8.684  1.00  0.00     0.301 C 
BRANCH  14  15
HETATM   15  C7  UNL     1      51.740  -7.063   8.337  1.00  0.00    -0.053 C 
HETATM   16  C6  UNL     1      52.883  -6.801   8.051  1.00  0.00    -0.101 C 
BRANCH  16  17
HETATM   17  C5  UNL     1      54.272  -6.490   7.714  1.00  0.00     0.102 C 
BRANCH  17  18
HETATM   18  C2  UNL     1      54.234  -5.563   6.504  1.00  0.00    -0.041 C 
HETATM   19  C1  UNL     1      55.655  -5.299   6.008  1.00  0.00     0.015 C 
HETATM   20  C3  UNL     1      53.625  -4.236   6.847  1.00  0.00     0.015 C 
HETATM   21  C4  UNL     1      53.485  -6.264   5.413  1.00  0.00     0.015 C 
ENDBRANCH  17  18
ENDBRANCH  16  17
ENDBRANCH  14  15
BRANCH  14  22
HETATM   22  O1  UNL     1      49.470  -6.368   8.301  1.00  0.00    -0.366 OA
ATOM     23  H1  UNL     1      48.984  -6.596   7.517  1.00  0.00     0.213 HD
ENDBRANCH  14  22
ENDBRANCH  12  14
ENDBRANCH   1  12
BRANCH  11  24
HETATM   24  N4  UNL     1      49.782 -10.203  11.269  1.00  0.00    -0.382 N 
ATOM     25  H4  UNL     1      49.410 -11.152  11.253  1.00  0.00     0.160 HD
BRANCH  24  26
HETATM   26  C16 UNL     1      51.205 -10.040  11.207  1.00  0.00     0.082 C 
HETATM   27  C17 UNL     1      51.821 -10.429  12.525  1.00  0.00     0.025 C 
HETATM   28  C18 UNL     1      52.915 -11.461  12.361  1.00  0.00     0.002 C 
HETATM   29  C19 UNL     1      53.962 -10.994  11.360  1.00  0.00     0.000 C 
HETATM   30  C20 UNL     1      53.340 -10.457  10.108  1.00  0.00     0.002 C 
HETATM   31  C21 UNL     1      51.856 -10.818  10.091  1.00  0.00     0.025 C 
ENDBRANCH  24  26
ENDBRANCH  11  24
TORSDOF 8
ENDMDL
MODEL 4
REMARK VINA RESULT: -7.419896827      1.519      2.112
REMARK  8 active torsions:
REMARK  status: ('A' for Active; 'I' for Inactive)
REMARK    1  A    between atoms: C2_2  and  C5_5 
REMARK    2  A    between atoms: C5_5  and  C6_6 
REMARK    3  A    between atoms: C7_7  and  C8_8 
REMARK    4  A    between atoms: C8_8  and  O1_9 
REMARK    5  A    between atoms: C8_8  and  N1_11 
REMARK    6  A    between atoms: N1_11  and  C9_13 
REMARK    7  A    between atoms: C15_23  and  N4_24 
REMARK    8  A    between atoms: N4_24  and  C16_26 
ROOT
HETATM    1  C9  UNL     1      49.560  -8.073  10.384  1.00  0.00     0.131 A 
HETATM    2  N2  UNL     1      48.842  -6.997  10.669  1.00  0.00    -0.348 N 
ATOM      3  H2  UNL     1      49.151  -6.103  10.288  1.00  0.00     0.167 HD
HETATM    4  C10 UNL     1      47.730  -7.006  11.432  1.00  0.00     0.120 A 
HETATM    5  C11 UNL     1      47.310  -8.227  11.954  1.00  0.00     0.060 A 
HETATM    6  N3  UNL     1      46.265  -8.549  12.736  1.00  0.00    -0.364 N 
ATOM      7  H3  UNL     1      45.562  -7.903  13.096  1.00  0.00     0.165 HD
HETATM    8  C12 UNL     1      46.310  -9.862  12.961  1.00  0.00     0.089 A 
HETATM    9  C13 UNL     1      47.387 -10.420  12.328  1.00  0.00     0.033 A 
HETATM   10  C14 UNL     1      48.035  -9.392  11.681  1.00  0.00     0.023 A 
HETATM   11  C15 UNL     1      49.160  -9.291  10.891  1.00  0.00     0.085 A 
ENDROOT
BRANCH   1  12
HETATM   12  N1  UNL     1      50.595  -8.007   9.663  1.00  0.00    -0.338 N 
ATOM     13  H1  UNL     1      51.424  -8.468  10.037  1.00  0.00     0.164 HD
BRANCH  12  14
HETATM   14  C8  UNL     1      50.762  -7.376   8.400  1.00  0.00     0.301 C 
BRANCH  14  15
HETATM   15  C7  UNL     1      52.132  -6.885   8.167  1.00  0.00    -0.053 C 
HETATM   16  C6  UNL     1      53.253  -6.482   7.977  1.00  0.00    -0.101 C 
BRANCH  16  17
HETATM   17  C5  UNL     1      54.616  -6.005   7.743  1.00  0.00     0.102 C 
BRANCH  17  18
HETATM   18  C2  UNL     1      54.607  -5.297   6.393  1.00  0.00    -0.041 C 
HETATM   19  C1  UNL     1      55.989  -4.711   6.105  1.00  0.00     0.015 C 
HETATM   20  C3  UNL     1      53.627  -4.162   6.374  1.00  0.00     0.015 C 
HETATM   21  C4  UNL     1      54.310  -6.319   5.340  1.00  0.00     0.015 C 
ENDBRANCH  17  18
ENDBRANCH  16  17
ENDBRANCH  14  15
BRANCH  14  22
HETATM   22  O1  UNL     1      49.807  -6.403   8.114  1.00  0.00    -0.366 OA
ATOM     23  H1  UNL     1      49.415  -6.049   8.904  1.00  0.00     0.213 HD
ENDBRANCH  14  22
ENDBRANCH  12  14
ENDBRANCH   1  12
BRANCH  11  24
HETATM   24  N4  UNL     1      49.924 -10.465  10.604  1.00  0.00    -0.382 N 
ATOM     25  H4  UNL     1      49.727 -10.962   9.735  1.00  0.00     0.160 HD
BRANCH  24  26
HETATM   26  C16 UNL     1      50.948 -10.991  11.458  1.00  0.00     0.082 C 
HETATM   27  C17 UNL     1      52.151 -11.373  10.637  1.00  0.00     0.025 C 
HETATM   28  C18 UNL     1      53.420 -10.727  11.151  1.00  0.00     0.002 C 
HETATM   29  C19 UNL     1      53.624 -11.023  12.630  1.00  0.00     0.000 C 
HETATM   30  C20 UNL     1      52.375 -10.795  13.424  1.00  0.00     0.002 C 
HETATM   31  C21 UNL     1      51.361 -10.048  12.560  1.00  0.00     0.025 C 
ENDBRANCH  24  26
ENDBRANCH  11  24
TORSDOF 8
ENDMDL
MODEL 5
REMARK VINA RESULT: -7.416480707      1.575      2.128
REMARK  8 active torsions:
REMARK  status: ('A' for Active; 'I' for Inactive)
REMARK    1  A    between atoms: C2_2  and  C5_5 
REMARK    2  A    between atoms: C5_5  and  C6_6 
REMARK    3  A    between atoms: C7_7  and  C8_8 
REMARK    4  A    between atoms: C8_8  and  O1_9 
REMARK    5  A    between atoms: C8_8  and  N1_11 
REMARK    6  A    between atoms: N1_11  and  C9_13 
REMARK    7  A    between atoms: C15_23  and  N4_24 
REMARK    8  A    between atoms: N4_24  and  C16_26 
ROOT
HETATM    1  C9  UNL     1      49.533  -8.476  10.458  1.00  0.00     0.131 A 
HETATM    2  N2  UNL     1      48.930  -7.300  10.543  1.00  0.00    -0.348 N 
ATOM      3  H2  UNL     1      49.333  -6.519  10.025  1.00  0.00     0.167 HD
HETATM    4  C10 UNL     1      47.820  -7.067  11.271  1.00  0.00     0.120 A 
HETATM    5  C11 UNL     1      47.271  -8.133  11.980  1.00  0.00     0.060 A 
HETATM    6  N3  UNL     1      46.194  -8.210  12.781  1.00  0.00    -0.364 N 
ATOM      7  H3  UNL     1      45.561  -7.444  13.011  1.00  0.00     0.165 HD
HETATM    8  C12 UNL     1      46.101  -9.464  13.223  1.00  0.00     0.089 A 
HETATM    9  C13 UNL     1      47.117 -10.228  12.717  1.00  0.00     0.033 A 
HETATM   10  C14 UNL     1      47.872  -9.395  11.922  1.00  0.00     0.023 A 
HETATM   11  C15 UNL     1      49.005  -9.544  11.152  1.00  0.00     0.085 A 
ENDROOT
BRANCH   1  12
HETATM   12  N1  UNL     1      50.574  -8.638   9.760  1.00  0.00    -0.338 N 
ATOM     13  H1  UNL     1      50.986  -9.571   9.792  1.00  0.00     0.164 HD
BRANCH  12  14
HETATM   14  C8  UNL     1      51.249  -7.697   8.935  1.00  0.00     0.301 C 
BRANCH  14  15
HETATM   15  C7  UNL     1      52.533  -8.193   8.411  1.00  0.00    -0.053 C 
HETATM   16  C6  UNL     1      53.584  -8.601   7.981  1.00  0.00    -0.101 C 
BRANCH  16  17
HETATM   17  C5  UNL     1      54.859  -9.087   7.453  1.00  0.00     0.102 C 
BRANCH  17  18
HETATM   18  C2  UNL     1      55.444  -7.958   6.613  1.00  0.00    -0.041 C 
HETATM   19  C1  UNL     1      55.712  -6.739   7.495  1.00  0.00     0.015 C 
HETATM   20  C3  UNL     1      54.497  -7.529   5.532  1.00  0.00     0.015 C 
HETATM   21  C4  UNL     1      56.755  -8.427   6.062  1.00  0.00     0.015 C 
ENDBRANCH  17  18
ENDBRANCH  16  17
ENDBRANCH  14  15
BRANCH  14  22
HETATM   22  O1  UNL     1      51.372  -6.429   9.497  1.00  0.00    -0.366 OA
ATOM     23  H1  UNL     1      52.000  -6.416  10.209  1.00  0.00     0.213 HD
ENDBRANCH  14  22
ENDBRANCH  12  14
ENDBRANCH   1  12
BRANCH  11  24
HETATM   24  N4  UNL     1      49.644 -10.822  11.083  1.00  0.00    -0.382 N 
ATOM     25  H4  UNL     1      49.237 -11.525  10.467  1.00  0.00     0.160 HD
BRANCH  24  26
HETATM   26  C16 UNL     1      50.818 -11.178  11.823  1.00  0.00     0.082 C 
HETATM   27  C17 UNL     1      51.916 -11.584  10.875  1.00  0.00     0.025 C 
HETATM   28  C18 UNL     1      53.193 -10.807  11.114  1.00  0.00     0.002 C 
HETATM   29  C19 UNL     1      53.630 -10.909  12.568  1.00  0.00     0.000 C 
HETATM   30  C20 UNL     1      52.496 -10.662  13.514  1.00  0.00     0.002 C 
HETATM   31  C21 UNL     1      51.313 -10.086  12.738  1.00  0.00     0.025 C 
ENDBRANCH  24  26
ENDBRANCH  11  24
TORSDOF 8
ENDMDL
