MODEL 1
REMARK VINA RESULT: -7.423183303      0.000      0.000
REMARK  6 active torsions:
REMARK  status: ('A' for Active; 'I' for Inactive)
REMARK    1  A    between atoms: C2_2  and  C3_3 
REMARK    2  A    between atoms: C3_3  and  C4_4 
REMARK    3  A    between atoms: C4_4  and  C5_5 
REMARK       I    between atoms: C5_5  and  N1_7 
REMARK    4  A    between atoms: N1_7  and  C6_9 
REMARK    5  A    between atoms: C17_20  and  O2_21 
REMARK    6  A    between atoms: C18_25  and  O3_26 
ROOT
HETATM    1  C6  UNL     1      55.748  -4.511   4.493  1.00  0.00     0.093 C 
HETATM    2  C7  UNL     1      56.453  -3.520   5.411  1.00  0.00     0.026 C 
HETATM    3  C8  UNL     1      56.664  -4.027   6.797  1.00  0.00     0.007 C 
HETATM    4  C9  UNL     1      55.320  -4.483   7.325  1.00  0.00    -0.009 C 
HETATM    5  C10 UNL     1      54.291  -3.454   7.016  1.00  0.00     0.006 C 
HETATM    6  C11 UNL     1      53.802  -3.436   5.607  1.00  0.00     0.012 C 
HETATM    7  C12 UNL     1      54.265  -4.620   4.781  1.00  0.00    -0.011 C 
HETATM    8  C13 UNL     1      53.444  -4.609   3.540  1.00  0.00     0.018 C 
HETATM    9  C14 UNL     1      54.059  -5.852   5.620  1.00  0.00     0.002 C 
HETATM   10  C15 UNL     1      54.305  -7.132   4.865  1.00  0.00     0.022 C 
HETATM   11  C16 UNL     1      52.719  -5.953   6.247  1.00  0.00     0.013 A 
HETATM   12  C17 UNL     1      51.362  -5.792   6.076  1.00  0.00     0.149 A 
HETATM   13  N2  UNL     1      50.743  -6.119   7.231  1.00  0.00    -0.317 N 
ATOM     14  H2  UNL     1      49.734  -6.088   7.379  1.00  0.00     0.170 HD
HETATM   15  C18 UNL     1      51.636  -6.490   8.150  1.00  0.00     0.148 A 
HETATM   16  C19 UNL     1      52.883  -6.398   7.568  1.00  0.00     0.004 A 
HETATM   17  C20 UNL     1      54.318  -6.620   7.868  1.00  0.00     0.050 C 
HETATM   18  C21 UNL     1      55.006  -5.851   6.790  1.00  0.00     0.008 C 
ENDROOT
BRANCH   1  19
HETATM   19  N1  UNL     1      56.058  -4.149   3.124  1.00  0.00    -0.356 N 
HETATM   20  C5  UNL     1      57.291  -4.549   2.491  1.00  0.00     0.217 C 
HETATM   21  O1  UNL     1      58.138  -5.228   3.116  1.00  0.00    -0.274 OA
ATOM     22  H1  UNL     1      55.385  -3.597   2.593  1.00  0.00     0.162 HD
BRANCH  20  23
HETATM   23  C4  UNL     1      57.558  -4.157   1.099  1.00  0.00     0.103 C 
BRANCH  23  24
HETATM   24  C3  UNL     1      57.260  -2.735   0.818  1.00  0.00     0.009 C 
BRANCH  24  25
HETATM   25  C2  UNL     1      58.111  -1.802   1.592  1.00  0.00    -0.004 C 
HETATM   26  C1  UNL     1      59.074  -1.060   0.662  1.00  0.00     0.005 C 
ENDBRANCH  24  25
ENDBRANCH  23  24
ENDBRANCH  20  23
ENDBRANCH   1  19
BRANCH  12  27
HETATM   27  O2  UNL     1      50.656  -5.363   4.928  1.00  0.00    -0.346 OA
ATOM     28  H2  UNL     1      50.211  -5.886   4.271  1.00  0.00     0.219 HD
ENDBRANCH  12  27
BRANCH  15  29
HETATM   29  O3  UNL     1      51.400  -6.904   9.475  1.00  0.00    -0.346 OA
ATOM     30  H3  UNL     1      50.862  -7.625   9.777  1.00  0.00     0.219 HD
ENDBRANCH  15  29
TORSDOF 6
ENDMDL
MODEL 2
REMARK VINA RESULT: -7.246433412      2.893      6.396
REMARK  6 active torsions:
REMARK  status: ('A' for Active; 'I' for Inactive)
REMARK    1  A    between atoms: C2_2  and  C3_3 
REMARK    2  A    between atoms: C3_3  and  C4_4 
REMARK    3  A    between atoms: C4_4  and  C5_5 
REMARK       I    between atoms: C5_5  and  N1_7 
REMARK    4  A    between atoms: N1_7  and  C6_9 
REMARK    5  A    between atoms: C17_20  and  O2_21 
REMARK    6  A    between atoms: C18_25  and  O3_26 
ROOT
HETATM    1  C6  UNL     1      51.626  -6.428   4.957  1.00  0.00     0.093 C 
HETATM    2  C7  UNL     1      51.035  -6.481   6.361  1.00  0.00     0.026 C 
HETATM    3  C8  UNL     1      51.240  -5.231   7.148  1.00  0.00     0.007 C 
HETATM    4  C9  UNL     1      52.722  -4.919   7.131  1.00  0.00    -0.009 C 
HETATM    5  C10 UNL     1      53.492  -6.159   7.416  1.00  0.00     0.006 C 
HETATM    6  C11 UNL     1      53.617  -7.116   6.279  1.00  0.00     0.012 C 
HETATM    7  C12 UNL     1      53.135  -6.560   4.953  1.00  0.00    -0.011 C 
HETATM    8  C13 UNL     1      53.620  -7.499   3.906  1.00  0.00     0.018 C 
HETATM    9  C14 UNL     1      53.707  -5.174   4.821  1.00  0.00     0.002 C 
HETATM   10  C15 UNL     1      53.465  -4.558   3.468  1.00  0.00     0.022 C 
HETATM   11  C16 UNL     1      55.160  -5.078   5.102  1.00  0.00     0.013 A 
HETATM   12  C17 UNL     1      56.400  -5.652   4.923  1.00  0.00     0.149 A 
HETATM   13  N2  UNL     1      57.319  -4.890   5.551  1.00  0.00    -0.317 N 
ATOM     14  H2  UNL     1      58.320  -5.088   5.577  1.00  0.00     0.170 HD
HETATM   15  C18 UNL     1      56.736  -3.840   6.133  1.00  0.00     0.148 A 
HETATM   16  C19 UNL     1      55.385  -3.927   5.872  1.00  0.00     0.004 A 
HETATM   17  C20 UNL     1      54.111  -3.211   6.122  1.00  0.00     0.050 C 
HETATM   18  C21 UNL     1      53.082  -4.252   5.834  1.00  0.00     0.008 C 
ENDROOT
BRANCH   1  19
HETATM   19  N1  UNL     1      50.946  -7.421   4.149  1.00  0.00    -0.356 N 
HETATM   20  C5  UNL     1      50.040  -7.050   3.089  1.00  0.00     0.217 C 
HETATM   21  O1  UNL     1      49.814  -5.844   2.836  1.00  0.00    -0.274 OA
ATOM     22  H1  UNL     1      51.113  -8.410   4.334  1.00  0.00     0.162 HD
BRANCH  20  23
HETATM   23  C4  UNL     1      49.375  -8.096   2.298  1.00  0.00     0.103 C 
BRANCH  23  24
HETATM   24  C3  UNL     1      49.191  -9.367   3.033  1.00  0.00     0.009 C 
BRANCH  24  25
HETATM   25  C2  UNL     1      49.664 -10.547   2.274  1.00  0.00    -0.004 C 
HETATM   26  C1  UNL     1      51.141 -10.388   1.903  1.00  0.00     0.005 C 
ENDBRANCH  24  25
ENDBRANCH  23  24
ENDBRANCH  20  23
ENDBRANCH   1  19
BRANCH  12  27
HETATM   27  O2  UNL     1      56.739  -6.831   4.218  1.00  0.00    -0.346 OA
ATOM     28  H2  UNL     1      57.576  -7.085   3.849  1.00  0.00     0.219 HD
ENDBRANCH  12  27
BRANCH  15  29
HETATM   29  O3  UNL     1      57.342  -2.813   6.882  1.00  0.00    -0.346 OA
ATOM     30  H3  UNL     1      57.288  -2.659   7.818  1.00  0.00     0.219 HD
ENDBRANCH  15  29
TORSDOF 6
ENDMDL
MODEL 3
REMARK VINA RESULT: -7.056387033      2.001      7.150
REMARK  6 active torsions:
REMARK  status: ('A' for Active; 'I' for Inactive)
REMARK    1  A    between atoms: C2_2  and  C3_3 
REMARK    2  A    between atoms: C3_3  and  C4_4 
REMARK    3  A    between atoms: C4_4  and  C5_5 
REMARK       I    between atoms: C5_5  and  N1_7 
REMARK    4  A    between atoms: N1_7  and  C6_9 
REMARK    5  A    between atoms: C17_20  and  O2_21 
REMARK    6  A    between atoms: C18_25  and  O3_26 
ROOT
HETATM    1  C6  UNL     1      54.262  -6.281   7.055  1.00  0.00     0.093 C 
HETATM    2  C7  UNL     1      55.479  -6.936   7.696  1.00  0.00     0.026 C 
HETATM    3  C8  UNL     1      56.670  -6.043   7.780  1.00  0.00     0.007 C 
HETATM    4  C9  UNL     1      56.938  -5.509   6.389  1.00  0.00    -0.009 C 
HETATM    5  C10 UNL     1      56.863  -6.624   5.407  1.00  0.00     0.006 C 
HETATM    6  C11 UNL     1      55.488  -7.067   5.040  1.00  0.00     0.012 C 
HETATM    7  C12 UNL     1      54.391  -6.154   5.552  1.00  0.00    -0.011 C 
HETATM    8  C13 UNL     1      53.148  -6.555   4.839  1.00  0.00     0.018 C 
HETATM    9  C14 UNL     1      54.817  -4.741   5.254  1.00  0.00     0.002 C 
HETATM   10  C15 UNL     1      53.744  -3.725   5.542  1.00  0.00     0.022 C 
HETATM   11  C16 UNL     1      55.284  -4.519   3.865  1.00  0.00     0.013 A 
HETATM   12  C17 UNL     1      55.064  -4.778   2.529  1.00  0.00     0.149 A 
HETATM   13  N2  UNL     1      56.023  -4.157   1.809  1.00  0.00    -0.317 N 
ATOM     14  H2  UNL     1      56.096  -4.185   0.792  1.00  0.00     0.170 HD
HETATM   15  C18 UNL     1      56.860  -3.502   2.615  1.00  0.00     0.148 A 
HETATM   16  C19 UNL     1      56.427  -3.706   3.908  1.00  0.00     0.004 A 
HETATM   17  C20 UNL     1      56.758  -3.349   5.309  1.00  0.00     0.050 C 
HETATM   18  C21 UNL     1      56.006  -4.367   6.098  1.00  0.00     0.008 C 
ENDROOT
BRANCH   1  19
HETATM   19  N1  UNL     1      53.084  -7.009   7.486  1.00  0.00    -0.356 N 
HETATM   20  C5  UNL     1      51.925  -6.335   8.019  1.00  0.00     0.217 C 
HETATM   21  O1  UNL     1      51.905  -5.087   8.124  1.00  0.00    -0.274 OA
ATOM     22  H1  UNL     1      53.075  -8.026   7.411  1.00  0.00     0.162 HD
BRANCH  20  23
HETATM   23  C4  UNL     1      50.755  -7.119   8.443  1.00  0.00     0.103 C 
BRANCH  23  24
HETATM   24  C3  UNL     1      51.028  -8.016   9.587  1.00  0.00     0.009 C 
BRANCH  24  25
HETATM   25  C2  UNL     1      49.833  -8.263  10.425  1.00  0.00    -0.004 C 
HETATM   26  C1  UNL     1      49.681  -9.759  10.713  1.00  0.00     0.005 C 
ENDBRANCH  24  25
ENDBRANCH  23  24
ENDBRANCH  20  23
ENDBRANCH   1  19
BRANCH  12  27
HETATM   27  O2  UNL     1      54.039  -5.548   1.931  1.00  0.00    -0.346 OA
ATOM     28  H2  UNL     1      53.161  -5.283   1.683  1.00  0.00     0.219 HD
ENDBRANCH  12  27
BRANCH  15  29
HETATM   29  O3  UNL     1      57.985  -2.733   2.260  1.00  0.00    -0.346 OA
ATOM     30  H3  UNL     1      58.258  -1.894   2.613  1.00  0.00     0.219 HD
ENDBRANCH  15  29
TORSDOF 6
ENDMDL
MODEL 4
REMARK VINA RESULT: -6.863749507      2.650      7.119
REMARK  6 active torsions:
REMARK  status: ('A' for Active; 'I' for Inactive)
REMARK    1  A    between atoms: C2_2  and  C3_3 
REMARK    2  A    between atoms: C3_3  and  C4_4 
REMARK    3  A    between atoms: C4_4  and  C5_5 
REMARK       I    between atoms: C5_5  and  N1_7 
REMARK    4  A    between atoms: N1_7  and  C6_9 
REMARK    5  A    between atoms: C17_20  and  O2_21 
REMARK    6  A    between atoms: C18_25  and  O3_26 
ROOT
HETATM    1  C6  UNL     1      54.457  -6.983   6.178  1.00  0.00     0.093 C 
HETATM    2  C7  UNL     1      53.091  -6.900   5.507  1.00  0.00     0.026 C 
HETATM    3  C8  UNL     1      53.156  -6.656   4.037  1.00  0.00     0.007 C 
HETATM    4  C9  UNL     1      54.010  -5.425   3.818  1.00  0.00    -0.009 C 
HETATM    5  C10 UNL     1      53.598  -4.359   4.771  1.00  0.00     0.006 C 
HETATM    6  C11 UNL     1      54.085  -4.525   6.170  1.00  0.00     0.012 C 
HETATM    7  C12 UNL     1      55.113  -5.628   6.337  1.00  0.00    -0.011 C 
HETATM    8  C13 UNL     1      55.710  -5.440   7.686  1.00  0.00     0.018 C 
HETATM    9  C14 UNL     1      56.109  -5.476   5.219  1.00  0.00     0.002 C 
HETATM   10  C15 UNL     1      57.296  -6.392   5.354  1.00  0.00     0.022 C 
HETATM   11  C16 UNL     1      56.625  -4.098   5.037  1.00  0.00     0.013 A 
HETATM   12  C17 UNL     1      57.087  -2.958   5.658  1.00  0.00     0.149 A 
HETATM   13  N2  UNL     1      57.390  -2.046   4.710  1.00  0.00    -0.317 N 
ATOM     14  H2  UNL     1      57.753  -1.111   4.897  1.00  0.00     0.170 HD
HETATM   15  C18 UNL     1      57.148  -2.540   3.495  1.00  0.00     0.148 A 
HETATM   16  C19 UNL     1      56.669  -3.822   3.662  1.00  0.00     0.004 A 
HETATM   17  C20 UNL     1      56.201  -4.992   2.880  1.00  0.00     0.050 C 
HETATM   18  C21 UNL     1      55.463  -5.797   3.897  1.00  0.00     0.008 C 
ENDROOT
BRANCH   1  19
HETATM   19  N1  UNL     1      54.299  -7.710   7.422  1.00  0.00    -0.356 N 
HETATM   20  C5  UNL     1      54.655  -9.104   7.541  1.00  0.00     0.217 C 
HETATM   21  O1  UNL     1      55.117  -9.729   6.559  1.00  0.00    -0.274 OA
ATOM     22  H1  UNL     1      53.926  -7.224   8.237  1.00  0.00     0.162 HD
BRANCH  20  23
HETATM   23  C4  UNL     1      54.476  -9.796   8.825  1.00  0.00     0.103 C 
BRANCH  23  24
HETATM   24  C3  UNL     1      53.220 -10.574   8.908  1.00  0.00     0.009 C 
BRANCH  24  25
HETATM   25  C2  UNL     1      52.395 -10.216  10.084  1.00  0.00    -0.004 C 
HETATM   26  C1  UNL     1      51.411  -9.098   9.727  1.00  0.00     0.005 C 
ENDBRANCH  24  25
ENDBRANCH  23  24
ENDBRANCH  20  23
ENDBRANCH   1  19
BRANCH  12  27
HETATM   27  O2  UNL     1      57.248  -2.704   7.041  1.00  0.00    -0.346 OA
ATOM     28  H2  UNL     1      56.699  -2.190   7.620  1.00  0.00     0.219 HD
ENDBRANCH  12  27
BRANCH  15  29
HETATM   29  O3  UNL     1      57.331  -1.910   2.248  1.00  0.00    -0.346 OA
ATOM     30  H3  UNL     1      56.680  -1.479   1.707  1.00  0.00     0.219 HD
ENDBRANCH  15  29
TORSDOF 6
ENDMDL
MODEL 5
REMARK VINA RESULT: -6.850049149      5.789      8.808
REMARK  6 active torsions:
REMARK  status: ('A' for Active; 'I' for Inactive)
REMARK    1  A    between atoms: C2_2  and  C3_3 
REMARK    2  A    between atoms: C3_3  and  C4_4 
REMARK    3  A    between atoms: C4_4  and  C5_5 
REMARK       I    between atoms: C5_5  and  N1_7 
REMARK    4  A    between atoms: N1_7  and  C6_9 
REMARK    5  A    between atoms: C17_20  and  O2_21 
REMARK    6  A    between atoms: C18_25  and  O3_26 
ROOT
HETATM    1  C6  UNL     1      51.997  -9.411   9.818  1.00  0.00     0.093 C 
HETATM    2  C7  UNL     1      50.522  -9.067   9.980  1.00  0.00     0.026 C 
HETATM    3  C8  UNL     1      50.020  -9.209  11.377  1.00  0.00     0.007 C 
HETATM    4  C9  UNL     1      50.366 -10.607  11.846  1.00  0.00    -0.009 C 
HETATM    5  C10 UNL     1      50.013 -11.587  10.784  1.00  0.00     0.006 C 
HETATM    6  C11 UNL     1      50.966 -11.667   9.640  1.00  0.00     0.012 C 
HETATM    7  C12 UNL     1      52.257 -10.902   9.861  1.00  0.00    -0.011 C 
HETATM    8  C13 UNL     1      53.193 -11.347   8.793  1.00  0.00     0.018 C 
HETATM    9  C14 UNL     1      52.736 -11.236  11.248  1.00  0.00     0.002 C 
HETATM   10  C15 UNL     1      54.108 -10.693  11.549  1.00  0.00     0.022 C 
HETATM   11  C16 UNL     1      52.750 -12.685  11.563  1.00  0.00     0.013 A 
HETATM   12  C17 UNL     1      53.051 -13.951  11.109  1.00  0.00     0.149 A 
HETATM   13  N2  UNL     1      52.749 -14.838  12.081  1.00  0.00    -0.317 N 
ATOM     14  H2  UNL     1      52.874 -15.847  12.008  1.00  0.00     0.170 HD
HETATM   15  C18 UNL     1      52.264 -14.207  13.153  1.00  0.00     0.148 A 
HETATM   16  C19 UNL     1      52.251 -12.859  12.863  1.00  0.00     0.004 A 
HETATM   17  C20 UNL     1      51.900 -11.550  13.465  1.00  0.00     0.050 C 
HETATM   18  C21 UNL     1      51.804 -10.653  12.276  1.00  0.00     0.008 C 
ENDROOT
BRANCH   1  19
HETATM   19  N1  UNL     1      52.477  -8.764   8.613  1.00  0.00    -0.356 N 
HETATM   20  C5  UNL     1      52.277  -7.355   8.373  1.00  0.00     0.217 C 
HETATM   21  O1  UNL     1      51.676  -6.645   9.212  1.00  0.00    -0.274 OA
ATOM     22  H1  UNL     1      52.970  -9.320   7.914  1.00  0.00     0.162 HD
BRANCH  20  23
HETATM   23  C4  UNL     1      52.783  -6.746   7.134  1.00  0.00     0.103 C 
BRANCH  23  24
HETATM   24  C3  UNL     1      53.700  -5.609   7.366  1.00  0.00     0.009 C 
BRANCH  24  25
HETATM   25  C2  UNL     1      55.114  -6.026   7.507  1.00  0.00    -0.004 C 
HETATM   26  C1  UNL     1      55.942  -4.905   8.140  1.00  0.00     0.005 C 
ENDBRANCH  24  25
ENDBRANCH  23  24
ENDBRANCH  20  23
ENDBRANCH   1  19
BRANCH  12  27
HETATM   27  O2  UNL     1      53.586 -14.343   9.859  1.00  0.00    -0.346 OA
ATOM     28  H2  UNL     1      53.145 -14.749   9.122  1.00  0.00     0.219 HD
ENDBRANCH  12  27
BRANCH  15  29
HETATM   29  O3  UNL     1      51.834 -14.768  14.371  1.00  0.00    -0.346 OA
ATOM     30  H3  UNL     1      52.206 -14.646  15.236  1.00  0.00     0.219 HD
ENDBRANCH  15  29
TORSDOF 6
ENDMDL
