MODEL 1
REMARK VINA RESULT: -7.258498417      0.000      0.000
REMARK  6 active torsions:
REMARK  status: ('A' for Active; 'I' for Inactive)
REMARK    1  A    between atoms: C2_2  and  C3_3 
REMARK    2  A    between atoms: C3_3  and  C4_4 
REMARK    3  A    between atoms: C4_4  and  O1_5 
REMARK    4  A    between atoms: C12_14  and  C13_15 
REMARK    5  A    between atoms: C16_18  and  O2_19 
REMARK    6  A    between atoms: C17_21  and  C18_22 
ROOT
HETATM    1  C3  UNL     1      54.496  -5.740   6.542  1.00  0.00    -0.015 C 
HETATM    2  C5  UNL     1      53.584  -6.325   5.510  1.00  0.00     0.013 C 
HETATM    3  C6  UNL     1      52.673  -7.334   6.164  1.00  0.00     0.015 C 
HETATM    4  C7  UNL     1      53.472  -7.722   7.453  1.00  0.00    -0.011 C 
HETATM    5  C8  UNL     1      54.448  -8.642   6.822  1.00  0.00     0.021 C 
HETATM    6  C9  UNL     1      52.575  -8.254   8.487  1.00  0.00    -0.035 A 
HETATM    7  C10 UNL     1      52.763  -9.547   8.988  1.00  0.00    -0.041 A 
HETATM    8  C11 UNL     1      54.084 -10.184   8.963  1.00  0.00     0.050 C 
HETATM    9  C12 UNL     1      51.820 -10.146   9.829  1.00  0.00     0.006 A 
HETATM   10  C16 UNL     1      50.689  -9.405  10.167  1.00  0.00     0.094 A 
HETATM   11  C17 UNL     1      50.488  -8.087   9.687  1.00  0.00     0.081 A 
HETATM   12  C19 UNL     1      51.447  -7.531   8.846  1.00  0.00    -0.031 A 
HETATM   13  C20 UNL     1      51.357  -6.102   8.468  1.00  0.00     0.041 C 
HETATM   14  C21 UNL     1      52.543  -5.516   7.834  1.00  0.00     0.011 C 
HETATM   15  C22 UNL     1      53.846  -6.323   7.785  1.00  0.00     0.009 C 
ENDROOT
BRANCH   1  16
HETATM   16  C2  UNL     1      54.380  -4.212   6.523  1.00  0.00     0.007 C 
HETATM   17  C1  UNL     1      55.337  -3.577   5.560  1.00  0.00     0.006 C 
ENDBRANCH   1  16
BRANCH   1  18
HETATM   18  C4  UNL     1      55.947  -5.967   6.389  1.00  0.00     0.173 C 
BRANCH  18  19
HETATM   19  O1  UNL     1      56.572  -6.003   7.683  1.00  0.00    -0.400 OA
ATOM     20  H1  UNL     1      57.466  -5.691   7.616  1.00  0.00     0.209 HD
ENDBRANCH  18  19
ENDBRANCH   1  18
BRANCH   9  21
HETATM   21  C13 UNL     1      51.974 -11.581  10.100  1.00  0.00    -0.074 C 
HETATM   22  C14 UNL     1      51.402 -12.605   9.208  1.00  0.00     0.044 C 
HETATM   23  C15 UNL     1      52.476 -12.012  11.443  1.00  0.00     0.044 C 
ENDBRANCH   9  21
BRANCH  11  24
HETATM   24  C18 UNL     1      49.295  -7.376  10.054  1.00  0.00     0.212 C 
HETATM   25  O3  UNL     1      48.959  -7.263  11.267  1.00  0.00    -0.644 OA
HETATM   26  O4  UNL     1      48.452  -6.777   9.147  1.00  0.00    -0.644 OA
ENDBRANCH  11  24
BRANCH  10  27
HETATM   27  O2  UNL     1      49.750  -9.955  10.977  1.00  0.00    -0.359 OA
ATOM     28  H2  UNL     1      49.013  -9.428  11.262  1.00  0.00     0.217 HD
ENDBRANCH  10  27
TORSDOF 6
ENDMDL
MODEL 2
REMARK VINA RESULT: -7.197580740      2.043      6.388
REMARK  6 active torsions:
REMARK  status: ('A' for Active; 'I' for Inactive)
REMARK    1  A    between atoms: C2_2  and  C3_3 
REMARK    2  A    between atoms: C3_3  and  C4_4 
REMARK    3  A    between atoms: C4_4  and  O1_5 
REMARK    4  A    between atoms: C12_14  and  C13_15 
REMARK    5  A    between atoms: C16_18  and  O2_19 
REMARK    6  A    between atoms: C17_21  and  C18_22 
ROOT
HETATM    1  C3  UNL     1      53.308 -12.994  11.883  1.00  0.00    -0.015 C 
HETATM    2  C5  UNL     1      53.793 -11.919  12.803  1.00  0.00     0.013 C 
HETATM    3  C6  UNL     1      53.393 -10.573  12.252  1.00  0.00     0.015 C 
HETATM    4  C7  UNL     1      53.184 -10.881  10.731  1.00  0.00    -0.011 C 
HETATM    5  C8  UNL     1      54.610 -10.900  10.326  1.00  0.00     0.021 C 
HETATM    6  C9  UNL     1      52.293  -9.892  10.112  1.00  0.00    -0.035 A 
HETATM    7  C10 UNL     1      52.740  -9.113   9.039  1.00  0.00    -0.041 A 
HETATM    8  C11 UNL     1      53.808  -9.587   8.152  1.00  0.00     0.050 C 
HETATM    9  C12 UNL     1      51.986  -8.039   8.555  1.00  0.00     0.006 A 
HETATM   10  C16 UNL     1      50.760  -7.779   9.167  1.00  0.00     0.094 A 
HETATM   11  C17 UNL     1      50.281  -8.567  10.242  1.00  0.00     0.081 A 
HETATM   12  C19 UNL     1      51.066  -9.621  10.699  1.00  0.00    -0.031 A 
HETATM   13  C20 UNL     1      50.521 -10.568  11.698  1.00  0.00     0.041 C 
HETATM   14  C21 UNL     1      51.278 -11.806  11.909  1.00  0.00     0.011 C 
HETATM   15  C22 UNL     1      52.441 -12.146  10.969  1.00  0.00     0.009 C 
ENDROOT
BRANCH   1  16
HETATM   16  C2  UNL     1      52.462 -14.000  12.670  1.00  0.00     0.007 C 
HETATM   17  C1  UNL     1      52.266 -15.288  11.929  1.00  0.00     0.006 C 
ENDBRANCH   1  16
BRANCH   1  18
HETATM   18  C4  UNL     1      54.318 -13.849  11.227  1.00  0.00     0.173 C 
BRANCH  18  19
HETATM   19  O1  UNL     1      55.524 -13.865  12.011  1.00  0.00    -0.400 OA
ATOM     20  H1  UNL     1      55.734 -14.758  12.257  1.00  0.00     0.209 HD
ENDBRANCH  18  19
ENDBRANCH   1  18
BRANCH   9  21
HETATM   21  C13 UNL     1      52.638  -7.131   7.604  1.00  0.00    -0.074 C 
HETATM   22  C14 UNL     1      53.521  -6.040   8.053  1.00  0.00     0.044 C 
HETATM   23  C15 UNL     1      52.186  -7.133   6.176  1.00  0.00     0.044 C 
ENDBRANCH   9  21
BRANCH  11  24
HETATM   24  C18 UNL     1      49.018  -8.242  10.847  1.00  0.00     0.212 C 
HETATM   25  O3  UNL     1      48.775  -7.065  11.238  1.00  0.00    -0.644 OA
HETATM   26  O4  UNL     1      48.006  -9.151  11.040  1.00  0.00    -0.644 OA
ENDBRANCH  11  24
BRANCH  10  27
HETATM   27  O2  UNL     1      50.004  -6.743   8.727  1.00  0.00    -0.359 OA
ATOM     28  H2  UNL     1      49.227  -6.493   9.214  1.00  0.00     0.217 HD
ENDBRANCH  10  27
TORSDOF 6
ENDMDL
MODEL 3
REMARK VINA RESULT: -7.169271749      1.781      6.117
REMARK  6 active torsions:
REMARK  status: ('A' for Active; 'I' for Inactive)
REMARK    1  A    between atoms: C2_2  and  C3_3 
REMARK    2  A    between atoms: C3_3  and  C4_4 
REMARK    3  A    between atoms: C4_4  and  O1_5 
REMARK    4  A    between atoms: C12_14  and  C13_15 
REMARK    5  A    between atoms: C16_18  and  O2_19 
REMARK    6  A    between atoms: C17_21  and  C18_22 
ROOT
HETATM    1  C3  UNL     1      52.712 -12.951   9.946  1.00  0.00    -0.015 C 
HETATM    2  C5  UNL     1      53.271 -12.262  11.151  1.00  0.00     0.013 C 
HETATM    3  C6  UNL     1      53.251 -10.770  10.927  1.00  0.00     0.015 C 
HETATM    4  C7  UNL     1      53.210 -10.665   9.365  1.00  0.00    -0.011 C 
HETATM    5  C8  UNL     1      54.644 -10.935   9.102  1.00  0.00     0.021 C 
HETATM    6  C9  UNL     1      52.650  -9.376   8.939  1.00  0.00    -0.035 A 
HETATM    7  C10 UNL     1      53.407  -8.506   8.146  1.00  0.00    -0.041 A 
HETATM    8  C11 UNL     1      54.470  -9.010   7.271  1.00  0.00     0.050 C 
HETATM    9  C12 UNL     1      52.977  -7.201   7.884  1.00  0.00     0.006 A 
HETATM   10  C16 UNL     1      51.757  -6.799   8.427  1.00  0.00     0.094 A 
HETATM   11  C17 UNL     1      50.967  -7.670   9.216  1.00  0.00     0.081 A 
HETATM   12  C19 UNL     1      51.435  -8.958   9.460  1.00  0.00    -0.031 A 
HETATM   13  C20 UNL     1      50.560  -9.947  10.130  1.00  0.00     0.041 C 
HETATM   14  C21 UNL     1      50.998 -11.346  10.087  1.00  0.00     0.011 C 
HETATM   15  C22 UNL     1      52.190 -11.734   9.203  1.00  0.00     0.009 C 
ENDROOT
BRANCH   1  16
HETATM   16  C2  UNL     1      51.565 -13.874  10.369  1.00  0.00     0.007 C 
HETATM   17  C1  UNL     1      51.934 -14.755  11.525  1.00  0.00     0.006 C 
ENDBRANCH   1  16
BRANCH   1  18
HETATM   18  C4  UNL     1      53.605 -13.852   9.190  1.00  0.00     0.173 C 
BRANCH  18  19
HETATM   19  O1  UNL     1      53.208 -13.881   7.808  1.00  0.00    -0.400 OA
ATOM     20  H1  UNL     1      53.955 -14.100   7.265  1.00  0.00     0.209 HD
ENDBRANCH  18  19
ENDBRANCH   1  18
BRANCH   9  21
HETATM   21  C13 UNL     1      53.941  -6.286   7.261  1.00  0.00    -0.074 C 
HETATM   22  C14 UNL     1      54.926  -5.535   8.059  1.00  0.00     0.044 C 
HETATM   23  C15 UNL     1      53.744  -5.895   5.829  1.00  0.00     0.044 C 
ENDBRANCH   9  21
BRANCH  11  24
HETATM   24  C18 UNL     1      49.726  -7.196   9.765  1.00  0.00     0.212 C 
HETATM   25  O3  UNL     1      48.811  -6.763   9.009  1.00  0.00    -0.644 OA
HETATM   26  O4  UNL     1      49.441  -7.181  11.109  1.00  0.00    -0.644 OA
ENDBRANCH  11  24
BRANCH  10  27
HETATM   27  O2  UNL     1      51.311  -5.539   8.197  1.00  0.00    -0.359 OA
ATOM     28  H2  UNL     1      50.886  -5.060   8.900  1.00  0.00     0.217 HD
ENDBRANCH  10  27
TORSDOF 6
ENDMDL
MODEL 4
REMARK VINA RESULT: -6.714779574      2.332      7.045
REMARK  6 active torsions:
REMARK  status: ('A' for Active; 'I' for Inactive)
REMARK    1  A    between atoms: C2_2  and  C3_3 
REMARK    2  A    between atoms: C3_3  and  C4_4 
REMARK    3  A    between atoms: C4_4  and  O1_5 
REMARK    4  A    between atoms: C12_14  and  C13_15 
REMARK    5  A    between atoms: C16_18  and  O2_19 
REMARK    6  A    between atoms: C17_21  and  C18_22 
ROOT
HETATM    1  C3  UNL     1      52.064 -11.558  11.723  1.00  0.00    -0.015 C 
HETATM    2  C5  UNL     1      51.450 -12.244  10.544  1.00  0.00     0.013 C 
HETATM    3  C6  UNL     1      51.739 -11.447   9.297  1.00  0.00     0.015 C 
HETATM    4  C7  UNL     1      52.025 -10.018   9.870  1.00  0.00    -0.011 C 
HETATM    5  C8  UNL     1      50.621  -9.606  10.107  1.00  0.00     0.021 C 
HETATM    6  C9  UNL     1      52.838  -9.229   8.935  1.00  0.00    -0.035 A 
HETATM    7  C10 UNL     1      52.354  -8.019   8.426  1.00  0.00    -0.041 A 
HETATM    8  C11 UNL     1      51.364  -7.228   9.165  1.00  0.00     0.050 C 
HETATM    9  C12 UNL     1      53.018  -7.345   7.397  1.00  0.00     0.006 A 
HETATM   10  C16 UNL     1      54.193  -7.911   6.903  1.00  0.00     0.094 A 
HETATM   11  C17 UNL     1      54.711  -9.125   7.418  1.00  0.00     0.081 A 
HETATM   12  C19 UNL     1      54.014  -9.768   8.436  1.00  0.00    -0.031 A 
HETATM   13  C20 UNL     1      54.614 -10.940   9.114  1.00  0.00     0.041 C 
HETATM   14  C21 UNL     1      53.971 -11.379  10.357  1.00  0.00     0.011 C 
HETATM   15  C22 UNL     1      52.876 -10.508  10.985  1.00  0.00     0.009 C 
ENDROOT
BRANCH   1  16
HETATM   16  C2  UNL     1      52.976 -12.537  12.470  1.00  0.00     0.007 C 
HETATM   17  C1  UNL     1      52.350 -13.890  12.635  1.00  0.00     0.006 C 
ENDBRANCH   1  16
BRANCH   1  18
HETATM   18  C4  UNL     1      51.160 -11.068  12.784  1.00  0.00     0.173 C 
BRANCH  18  19
HETATM   19  O1  UNL     1      51.934 -10.513  13.862  1.00  0.00    -0.400 OA
ATOM     20  H1  UNL     1      51.446  -9.813  14.279  1.00  0.00     0.209 HD
ENDBRANCH  18  19
ENDBRANCH   1  18
BRANCH   9  21
HETATM   21  C13 UNL     1      52.313  -6.227   6.758  1.00  0.00    -0.074 C 
HETATM   22  C14 UNL     1      51.365  -6.438   5.651  1.00  0.00     0.044 C 
HETATM   23  C15 UNL     1      52.768  -4.829   7.043  1.00  0.00     0.044 C 
ENDBRANCH   9  21
BRANCH  11  24
HETATM   24  C18 UNL     1      55.917  -9.672   6.859  1.00  0.00     0.212 C 
HETATM   25  O3  UNL     1      57.045  -9.191   7.165  1.00  0.00    -0.644 OA
HETATM   26  O4  UNL     1      55.942 -10.729   5.981  1.00  0.00    -0.644 OA
ENDBRANCH  11  24
BRANCH  10  27
HETATM   27  O2  UNL     1      54.863  -7.287   5.902  1.00  0.00    -0.359 OA
ATOM     28  H2  UNL     1      55.045  -6.358   5.972  1.00  0.00     0.217 HD
ENDBRANCH  10  27
TORSDOF 6
ENDMDL
MODEL 5
REMARK VINA RESULT: -6.574924663      4.999      7.532
REMARK  6 active torsions:
REMARK  status: ('A' for Active; 'I' for Inactive)
REMARK    1  A    between atoms: C2_2  and  C3_3 
REMARK    2  A    between atoms: C3_3  and  C4_4 
REMARK    3  A    between atoms: C4_4  and  O1_5 
REMARK    4  A    between atoms: C12_14  and  C13_15 
REMARK    5  A    between atoms: C16_18  and  O2_19 
REMARK    6  A    between atoms: C17_21  and  C18_22 
ROOT
HETATM    1  C3  UNL     1      51.433 -11.693  10.999  1.00  0.00    -0.015 C 
HETATM    2  C5  UNL     1      51.924 -12.918  11.705  1.00  0.00     0.013 C 
HETATM    3  C6  UNL     1      53.297 -12.651  12.270  1.00  0.00     0.015 C 
HETATM    4  C7  UNL     1      53.801 -11.464  11.382  1.00  0.00    -0.011 C 
HETATM    5  C8  UNL     1      54.177 -12.249  10.182  1.00  0.00     0.021 C 
HETATM    6  C9  UNL     1      54.846 -10.698  12.073  1.00  0.00    -0.035 A 
HETATM    7  C10 UNL     1      56.119 -10.569  11.506  1.00  0.00    -0.041 A 
HETATM    8  C11 UNL     1      56.316 -10.668  10.056  1.00  0.00     0.050 C 
HETATM    9  C12 UNL     1      57.182 -10.011  12.223  1.00  0.00     0.006 A 
HETATM   10  C16 UNL     1      56.928  -9.568  13.521  1.00  0.00     0.094 A 
HETATM   11  C17 UNL     1      55.642  -9.671  14.106  1.00  0.00     0.081 A 
HETATM   12  C19 UNL     1      54.614 -10.241  13.362  1.00  0.00    -0.031 A 
HETATM   13  C20 UNL     1      53.225 -10.206  13.874  1.00  0.00     0.041 C 
HETATM   14  C21 UNL     1      52.165 -10.551  12.921  1.00  0.00     0.011 C 
HETATM   15  C22 UNL     1      52.515 -10.722  11.437  1.00  0.00     0.009 C 
ENDROOT
BRANCH   1  16
HETATM   16  C2  UNL     1      50.067 -11.289  11.562  1.00  0.00     0.007 C 
HETATM   17  C1  UNL     1      49.357 -10.299  10.688  1.00  0.00     0.006 C 
ENDBRANCH   1  16
BRANCH   1  18
HETATM   18  C4  UNL     1      51.181 -11.788   9.547  1.00  0.00     0.173 C 
BRANCH  18  19
HETATM   19  O1  UNL     1      50.856 -13.145   9.198  1.00  0.00    -0.400 OA
ATOM     20  H1  UNL     1      49.913 -13.257   9.192  1.00  0.00     0.209 HD
ENDBRANCH  18  19
ENDBRANCH   1  18
BRANCH   9  21
HETATM   21  C13 UNL     1      58.526 -10.144  11.649  1.00  0.00    -0.074 C 
HETATM   22  C14 UNL     1      59.361 -11.334  11.895  1.00  0.00     0.044 C 
HETATM   23  C15 UNL     1      59.173  -8.941  11.035  1.00  0.00     0.044 C 
ENDBRANCH   9  21
BRANCH  11  24
HETATM   24  C18 UNL     1      55.442  -9.214  15.454  1.00  0.00     0.212 C 
HETATM   25  O3  UNL     1      55.391  -7.979  15.715  1.00  0.00    -0.644 OA
HETATM   26  O4  UNL     1      55.289 -10.055  16.531  1.00  0.00    -0.644 OA
ENDBRANCH  11  24
BRANCH  10  27
HETATM   27  O2  UNL     1      57.936  -9.025  14.247  1.00  0.00    -0.359 OA
ATOM     28  H2  UNL     1      57.842  -8.949  15.189  1.00  0.00     0.217 HD
ENDBRANCH  10  27
TORSDOF 6
ENDMDL
