MODEL 1
REMARK VINA RESULT: -8.351444053      0.000      0.000
REMARK  6 active torsions:
REMARK  status: ('A' for Active; 'I' for Inactive)
REMARK    1  A    between atoms: C5_5  and  C6_6 
REMARK    2  A    between atoms: C6_6  and  N1_7 
REMARK    3  A    between atoms: N1_7  and  C7_9 
REMARK    4  A    between atoms: C9_13  and  C10_14 
REMARK    5  A    between atoms: C11_17  and  N4_18 
REMARK    6  A    between atoms: C13_24  and  C14_25 
ROOT
HETATM    1  C7  UNL     1      51.316  -6.289   7.016  1.00  0.00     0.678 A 
HETATM    2  N2  UNL     1      52.471  -6.836   7.368  1.00  0.00    -0.200 N 
ATOM      3  H2  UNL     1      53.363  -6.733   6.883  1.00  0.00     0.183 HD
HETATM    4  C8  UNL     1      52.244  -7.568   8.509  1.00  0.00     0.138 A 
HETATM    5  C9  UNL     1      50.946  -7.479   8.871  1.00  0.00     0.093 A 
HETATM    6  N6  UNL     1      50.401  -6.670   7.910  1.00  0.00    -0.188 N 
ATOM      7  H6  UNL     1      49.420  -6.393   7.882  1.00  0.00     0.184 HD
ENDROOT
BRANCH   5   8
HETATM    8  C10 UNL     1      50.135  -8.007   9.963  1.00  0.00     0.086 A 
HETATM    9  N3  UNL     1      48.954  -7.356  10.243  1.00  0.00    -0.189 N 
HETATM   10  C11 UNL     1      48.108  -7.685  11.199  1.00  0.00     0.676 A 
ATOM     11  H3  UNL     1      48.714  -6.552   9.663  1.00  0.00     0.184 HD
HETATM   12  N5  UNL     1      48.380  -8.735  11.985  1.00  0.00    -0.202 N 
HETATM   13  C12 UNL     1      49.520  -9.427  11.774  1.00  0.00     0.116 A 
ATOM     14  H5  UNL     1      47.739  -9.006  12.731  1.00  0.00     0.183 HD
HETATM   15  C13 UNL     1      50.418  -9.073  10.758  1.00  0.00    -0.008 A 
BRANCH  10  16
HETATM   16  N4  UNL     1      47.010  -7.055  11.435  1.00  0.00    -0.234 N 
ATOM     17  H42 UNL     1      46.918  -6.624  12.355  1.00  0.00     0.174 HD
ATOM     18  H41 UNL     1      46.247  -6.968  10.763  1.00  0.00     0.174 HD
ENDBRANCH  10  16
BRANCH  15  19
HETATM   19  C14 UNL     1      51.595  -9.916  10.592  1.00  0.00     0.022 C 
HETATM   20  C15 UNL     1      51.983 -10.664  11.868  1.00  0.00     0.009 C 
HETATM   21  C16 UNL     1      51.418 -12.043  11.777  1.00  0.00     0.001 C 
HETATM   22  C17 UNL     1      50.619 -12.083  10.510  1.00  0.00     0.001 C 
HETATM   23  C18 UNL     1      51.317 -11.070   9.619  1.00  0.00     0.009 C 
ENDBRANCH  15  19
ENDBRANCH   5   8
BRANCH   1  24
HETATM   24  N1  UNL     1      51.098  -5.509   5.977  1.00  0.00    -0.226 N 
ATOM     25  H1  UNL     1      50.614  -4.621   6.109  1.00  0.00     0.177 HD
BRANCH  24  26
HETATM   26  C6  UNL     1      51.532  -5.892   4.655  1.00  0.00     0.142 C 
BRANCH  26  27
HETATM   27  C5  UNL     1      50.288  -6.410   3.928  1.00  0.00     0.004 C 
HETATM   28  C4  UNL     1      50.513  -7.838   3.524  1.00  0.00     0.006 C 
HETATM   29  C3  UNL     1      49.338  -8.391   2.786  1.00  0.00     0.005 C 
HETATM   30  C2  UNL     1      48.984  -7.593   1.568  1.00  0.00    -0.019 C 
HETATM   31  C1  UNL     1      49.224  -8.415   0.298  1.00  0.00     0.010 C 
HETATM   32  C20 UNL     1      49.838  -6.364   1.451  1.00  0.00     0.005 C 
HETATM   33  C19 UNL     1      49.946  -5.583   2.728  1.00  0.00     0.006 C 
ENDBRANCH  26  27
ENDBRANCH  24  26
ENDBRANCH   1  24
TORSDOF 6
ENDMDL
MODEL 2
REMARK VINA RESULT: -8.327215551      2.789      4.407
REMARK  6 active torsions:
REMARK  status: ('A' for Active; 'I' for Inactive)
REMARK    1  A    between atoms: C5_5  and  C6_6 
REMARK    2  A    between atoms: C6_6  and  N1_7 
REMARK    3  A    between atoms: N1_7  and  C7_9 
REMARK    4  A    between atoms: C9_13  and  C10_14 
REMARK    5  A    between atoms: C11_17  and  N4_18 
REMARK    6  A    between atoms: C13_24  and  C14_25 
ROOT
HETATM    1  C7  UNL     1      52.095  -6.154   7.542  1.00  0.00     0.678 A 
HETATM    2  N2  UNL     1      52.912  -7.198   7.505  1.00  0.00    -0.200 N 
ATOM      3  H2  UNL     1      53.742  -7.297   6.921  1.00  0.00     0.183 HD
HETATM    4  C8  UNL     1      52.429  -8.123   8.400  1.00  0.00     0.138 A 
HETATM    5  C9  UNL     1      51.311  -7.659   8.997  1.00  0.00     0.093 A 
HETATM    6  N6  UNL     1      51.137  -6.423   8.431  1.00  0.00    -0.188 N 
ATOM      7  H6  UNL     1      50.372  -5.790   8.661  1.00  0.00     0.184 HD
ENDROOT
BRANCH   5   8
HETATM    8  C10 UNL     1      50.390  -8.162  10.010  1.00  0.00     0.086 A 
HETATM    9  N3  UNL     1      49.236  -7.442  10.227  1.00  0.00    -0.189 N 
HETATM   10  C11 UNL     1      48.303  -7.741  11.109  1.00  0.00     0.676 A 
ATOM     11  H3  UNL     1      49.092  -6.607   9.659  1.00  0.00     0.184 HD
HETATM   12  N5  UNL     1      48.449  -8.828  11.877  1.00  0.00    -0.202 N 
HETATM   13  C12 UNL     1      49.554  -9.589  11.724  1.00  0.00     0.116 A 
ATOM     14  H5  UNL     1      47.738  -9.077  12.566  1.00  0.00     0.183 HD
HETATM   15  C13 UNL     1      50.544  -9.267  10.787  1.00  0.00    -0.008 A 
BRANCH  10  16
HETATM   16  N4  UNL     1      47.234  -7.045  11.288  1.00  0.00    -0.234 N 
ATOM     17  H42 UNL     1      47.110  -6.232  10.686  1.00  0.00     0.174 HD
ATOM     18  H41 UNL     1      46.522  -7.264  11.985  1.00  0.00     0.174 HD
ENDBRANCH  10  16
BRANCH  15  19
HETATM   19  C14 UNL     1      51.673 -10.182  10.678  1.00  0.00     0.022 C 
HETATM   20  C15 UNL     1      51.901 -11.010  11.942  1.00  0.00     0.009 C 
HETATM   21  C16 UNL     1      51.256 -12.341  11.737  1.00  0.00     0.001 C 
HETATM   22  C17 UNL     1      50.568 -12.270  10.407  1.00  0.00     0.001 C 
HETATM   23  C18 UNL     1      51.404 -11.270   9.628  1.00  0.00     0.009 C 
ENDBRANCH  15  19
ENDBRANCH   5   8
BRANCH   1  24
HETATM   24  N1  UNL     1      52.200  -5.046   6.836  1.00  0.00    -0.226 N 
ATOM     25  H1  UNL     1      51.814  -4.178   7.206  1.00  0.00     0.177 HD
BRANCH  24  26
HETATM   26  C6  UNL     1      52.852  -5.043   5.549  1.00  0.00     0.142 C 
BRANCH  26  27
HETATM   27  C5  UNL     1      54.244  -4.448   5.774  1.00  0.00     0.004 C 
HETATM   28  C4  UNL     1      55.276  -5.519   5.567  1.00  0.00     0.006 C 
HETATM   29  C3  UNL     1      56.658  -5.001   5.798  1.00  0.00     0.005 C 
HETATM   30  C2  UNL     1      56.840  -4.410   7.164  1.00  0.00    -0.019 C 
HETATM   31  C1  UNL     1      57.820  -5.250   7.987  1.00  0.00     0.010 C 
HETATM   32  C20 UNL     1      55.547  -4.388   7.927  1.00  0.00     0.005 C 
HETATM   33  C19 UNL     1      54.391  -3.849   7.138  1.00  0.00     0.006 C 
ENDBRANCH  26  27
ENDBRANCH  24  26
ENDBRANCH   1  24
TORSDOF 6
ENDMDL
MODEL 3
REMARK VINA RESULT: -8.200989903      2.604      8.454
REMARK  6 active torsions:
REMARK  status: ('A' for Active; 'I' for Inactive)
REMARK    1  A    between atoms: C5_5  and  C6_6 
REMARK    2  A    between atoms: C6_6  and  N1_7 
REMARK    3  A    between atoms: N1_7  and  C7_9 
REMARK    4  A    between atoms: C9_13  and  C10_14 
REMARK    5  A    between atoms: C11_17  and  N4_18 
REMARK    6  A    between atoms: C13_24  and  C14_25 
ROOT
HETATM    1  C7  UNL     1      51.056  -7.137   8.343  1.00  0.00     0.678 A 
HETATM    2  N2  UNL     1      52.200  -7.805   8.409  1.00  0.00    -0.200 N 
ATOM      3  H2  UNL     1      52.506  -8.408   9.173  1.00  0.00     0.183 HD
HETATM    4  C8  UNL     1      52.897  -7.531   7.257  1.00  0.00     0.138 A 
HETATM    5  C9  UNL     1      52.190  -6.693   6.469  1.00  0.00     0.093 A 
HETATM    6  N6  UNL     1      51.045  -6.471   7.187  1.00  0.00    -0.188 N 
ATOM      7  H6  UNL     1      50.280  -5.873   6.876  1.00  0.00     0.184 HD
ENDROOT
BRANCH   5   8
HETATM    8  C10 UNL     1      52.394  -6.077   5.162  1.00  0.00     0.086 A 
HETATM    9  N3  UNL     1      51.292  -5.951   4.346  1.00  0.00    -0.189 N 
HETATM   10  C11 UNL     1      51.294  -5.434   3.133  1.00  0.00     0.676 A 
ATOM     11  H3  UNL     1      50.399  -6.286   4.710  1.00  0.00     0.184 HD
HETATM   12  N5  UNL     1      52.442  -4.981   2.614  1.00  0.00    -0.202 N 
HETATM   13  C12 UNL     1      53.569  -5.068   3.353  1.00  0.00     0.116 A 
ATOM     14  H5  UNL     1      52.466  -4.578   1.677  1.00  0.00     0.183 HD
HETATM   15  C13 UNL     1      53.563  -5.619   4.641  1.00  0.00    -0.008 A 
BRANCH  10  16
HETATM   16  N4  UNL     1      50.244  -5.331   2.394  1.00  0.00    -0.234 N 
ATOM     17  H42 UNL     1      49.346  -5.299   2.876  1.00  0.00     0.174 HD
ATOM     18  H41 UNL     1      50.268  -5.280   1.375  1.00  0.00     0.174 HD
ENDBRANCH  10  16
BRANCH  15  19
HETATM   19  C14 UNL     1      54.828  -5.623   5.364  1.00  0.00     0.022 C 
HETATM   20  C15 UNL     1      55.997  -5.094   4.534  1.00  0.00     0.009 C 
HETATM   21  C16 UNL     1      56.199  -3.660   4.896  1.00  0.00     0.001 C 
HETATM   22  C17 UNL     1      55.102  -3.312   5.855  1.00  0.00     0.001 C 
HETATM   23  C18 UNL     1      54.797  -4.634   6.538  1.00  0.00     0.009 C 
ENDBRANCH  15  19
ENDBRANCH   5   8
BRANCH   1  24
HETATM   24  N1  UNL     1      50.097  -7.127   9.246  1.00  0.00    -0.226 N 
ATOM     25  H1  UNL     1      49.298  -6.506   9.122  1.00  0.00     0.177 HD
BRANCH  24  26
HETATM   26  C6  UNL     1      50.160  -7.980  10.409  1.00  0.00     0.142 C 
BRANCH  26  27
HETATM   27  C5  UNL     1      48.723  -8.421  10.696  1.00  0.00     0.004 C 
HETATM   28  C4  UNL     1      48.072  -7.418  11.604  1.00  0.00     0.006 C 
HETATM   29  C3  UNL     1      46.671  -7.811  11.940  1.00  0.00     0.005 C 
HETATM   30  C2  UNL     1      46.579  -9.167  12.571  1.00  0.00    -0.019 C 
HETATM   31  C1  UNL     1      46.103  -9.054  14.022  1.00  0.00     0.010 C 
HETATM   32  C20 UNL     1      47.917  -9.845  12.609  1.00  0.00     0.005 C 
HETATM   33  C19 UNL     1      48.659  -9.786  11.307  1.00  0.00     0.006 C 
ENDBRANCH  26  27
ENDBRANCH  24  26
ENDBRANCH   1  24
TORSDOF 6
ENDMDL
MODEL 4
REMARK VINA RESULT: -8.148890642      2.842      3.962
REMARK  6 active torsions:
REMARK  status: ('A' for Active; 'I' for Inactive)
REMARK    1  A    between atoms: C5_5  and  C6_6 
REMARK    2  A    between atoms: C6_6  and  N1_7 
REMARK    3  A    between atoms: N1_7  and  C7_9 
REMARK    4  A    between atoms: C9_13  and  C10_14 
REMARK    5  A    between atoms: C11_17  and  N4_18 
REMARK    6  A    between atoms: C13_24  and  C14_25 
ROOT
HETATM    1  C7  UNL     1      52.279  -6.132   7.725  1.00  0.00     0.678 A 
HETATM    2  N2  UNL     1      53.013  -7.227   7.588  1.00  0.00    -0.200 N 
ATOM      3  H2  UNL     1      53.827  -7.339   6.983  1.00  0.00     0.183 HD
HETATM    4  C8  UNL     1      52.472  -8.186   8.412  1.00  0.00     0.138 A 
HETATM    5  C9  UNL     1      51.399  -7.690   9.065  1.00  0.00     0.093 A 
HETATM    6  N6  UNL     1      51.313  -6.402   8.606  1.00  0.00    -0.188 N 
ATOM      7  H6  UNL     1      50.601  -5.735   8.901  1.00  0.00     0.184 HD
ENDROOT
BRANCH   5   8
HETATM    8  C10 UNL     1      50.454  -8.206  10.049  1.00  0.00     0.086 A 
HETATM    9  N3  UNL     1      49.300  -7.483  10.255  1.00  0.00    -0.189 N 
HETATM   10  C11 UNL     1      48.347  -7.792  11.111  1.00  0.00     0.676 A 
ATOM     11  H3  UNL     1      49.173  -6.637   9.699  1.00  0.00     0.184 HD
HETATM   12  N5  UNL     1      48.470  -8.894  11.862  1.00  0.00    -0.202 N 
HETATM   13  C12 UNL     1      49.574  -9.659  11.718  1.00  0.00     0.116 A 
ATOM     14  H5  UNL     1      47.744  -9.151  12.531  1.00  0.00     0.183 HD
HETATM   15  C13 UNL     1      50.585  -9.327  10.808  1.00  0.00    -0.008 A 
BRANCH  10  16
HETATM   16  N4  UNL     1      47.278  -7.093  11.281  1.00  0.00    -0.234 N 
ATOM     17  H42 UNL     1      47.189  -6.601  12.169  1.00  0.00     0.174 HD
ATOM     18  H41 UNL     1      46.536  -7.010  10.586  1.00  0.00     0.174 HD
ENDBRANCH  10  16
BRANCH  15  19
HETATM   19  C14 UNL     1      51.710 -10.246  10.705  1.00  0.00     0.022 C 
HETATM   20  C15 UNL     1      51.938 -11.063  11.977  1.00  0.00     0.009 C 
HETATM   21  C16 UNL     1      51.288 -12.393  11.786  1.00  0.00     0.001 C 
HETATM   22  C17 UNL     1      50.597 -12.333  10.457  1.00  0.00     0.001 C 
HETATM   23  C18 UNL     1      51.435 -11.343   9.667  1.00  0.00     0.009 C 
ENDBRANCH  15  19
ENDBRANCH   5   8
BRANCH   1  24
HETATM   24  N1  UNL     1      52.460  -4.980   7.112  1.00  0.00    -0.226 N 
ATOM     25  H1  UNL     1      52.419  -4.114   7.649  1.00  0.00     0.177 HD
BRANCH  24  26
HETATM   26  C6  UNL     1      52.713  -4.925   5.692  1.00  0.00     0.142 C 
BRANCH  26  27
HETATM   27  C5  UNL     1      54.235  -4.909   5.529  1.00  0.00     0.004 C 
HETATM   28  C4  UNL     1      54.746  -3.526   5.811  1.00  0.00     0.006 C 
HETATM   29  C3  UNL     1      56.228  -3.443   5.642  1.00  0.00     0.005 C 
HETATM   30  C2  UNL     1      56.685  -3.860   4.277  1.00  0.00    -0.019 C 
HETATM   31  C1  UNL     1      57.282  -2.668   3.523  1.00  0.00     0.010 C 
HETATM   32  C20 UNL     1      55.541  -4.364   3.446  1.00  0.00     0.005 C 
HETATM   33  C19 UNL     1      54.664  -5.348   4.163  1.00  0.00     0.006 C 
ENDBRANCH  26  27
ENDBRANCH  24  26
ENDBRANCH   1  24
TORSDOF 6
ENDMDL
MODEL 5
REMARK VINA RESULT: -8.095922876      2.898      3.563
REMARK  6 active torsions:
REMARK  status: ('A' for Active; 'I' for Inactive)
REMARK    1  A    between atoms: C5_5  and  C6_6 
REMARK    2  A    between atoms: C6_6  and  N1_7 
REMARK    3  A    between atoms: N1_7  and  C7_9 
REMARK    4  A    between atoms: C9_13  and  C10_14 
REMARK    5  A    between atoms: C11_17  and  N4_18 
REMARK    6  A    between atoms: C13_24  and  C14_25 
ROOT
HETATM    1  C7  UNL     1      52.227  -6.138   7.641  1.00  0.00     0.678 A 
HETATM    2  N2  UNL     1      52.997  -7.213   7.544  1.00  0.00    -0.200 N 
ATOM      3  H2  UNL     1      53.818  -7.318   6.948  1.00  0.00     0.183 HD
HETATM    4  C8  UNL     1      52.481  -8.160   8.397  1.00  0.00     0.138 A 
HETATM    5  C9  UNL     1      51.389  -7.677   9.027  1.00  0.00     0.093 A 
HETATM    6  N6  UNL     1      51.265  -6.409   8.525  1.00  0.00    -0.188 N 
ATOM      7  H6  UNL     1      50.530  -5.755   8.793  1.00  0.00     0.184 HD
ENDROOT
BRANCH   5   8
HETATM    8  C10 UNL     1      50.454  -8.190  10.023  1.00  0.00     0.086 A 
HETATM    9  N3  UNL     1      49.302  -7.467  10.238  1.00  0.00    -0.189 N 
HETATM   10  C11 UNL     1      48.357  -7.774  11.105  1.00  0.00     0.676 A 
ATOM     11  H3  UNL     1      49.168  -6.624   9.680  1.00  0.00     0.184 HD
HETATM   12  N5  UNL     1      48.489  -8.873  11.859  1.00  0.00    -0.202 N 
HETATM   13  C12 UNL     1      49.592  -9.637  11.707  1.00  0.00     0.116 A 
ATOM     14  H5  UNL     1      47.770  -9.127  12.537  1.00  0.00     0.183 HD
HETATM   15  C13 UNL     1      50.594  -9.308  10.786  1.00  0.00    -0.008 A 
BRANCH  10  16
HETATM   16  N4  UNL     1      47.290  -7.075  11.282  1.00  0.00    -0.234 N 
ATOM     17  H42 UNL     1      46.708  -7.322  12.082  1.00  0.00     0.174 HD
ATOM     18  H41 UNL     1      47.006  -6.305  10.676  1.00  0.00     0.174 HD
ENDBRANCH  10  16
BRANCH  15  19
HETATM   19  C14 UNL     1      51.719 -10.226  10.675  1.00  0.00     0.022 C 
HETATM   20  C15 UNL     1      51.971 -11.025  11.954  1.00  0.00     0.009 C 
HETATM   21  C16 UNL     1      51.320 -12.359  11.793  1.00  0.00     0.001 C 
HETATM   22  C17 UNL     1      50.605 -12.318  10.476  1.00  0.00     0.001 C 
HETATM   23  C18 UNL     1      51.427 -11.338   9.657  1.00  0.00     0.009 C 
ENDBRANCH  15  19
ENDBRANCH   5   8
BRANCH   1  24
HETATM   24  N1  UNL     1      52.375  -5.002   6.990  1.00  0.00    -0.226 N 
ATOM     25  H1  UNL     1      51.651  -4.699   6.338  1.00  0.00     0.177 HD
BRANCH  24  26
HETATM   26  C6  UNL     1      53.545  -4.180   7.184  1.00  0.00     0.142 C 
BRANCH  26  27
HETATM   27  C5  UNL     1      54.040  -3.801   5.786  1.00  0.00     0.004 C 
HETATM   28  C4  UNL     1      53.721  -4.915   4.832  1.00  0.00     0.006 C 
HETATM   29  C3  UNL     1      54.204  -4.611   3.452  1.00  0.00     0.005 C 
HETATM   30  C2  UNL     1      55.675  -4.332   3.396  1.00  0.00    -0.019 C 
HETATM   31  C1  UNL     1      56.401  -5.424   2.605  1.00  0.00     0.010 C 
HETATM   32  C20 UNL     1      56.283  -4.320   4.768  1.00  0.00     0.005 C 
HETATM   33  C19 UNL     1      55.508  -3.509   5.763  1.00  0.00     0.006 C 
ENDBRANCH  26  27
ENDBRANCH  24  26
ENDBRANCH   1  24
TORSDOF 6
ENDMDL
