MODEL 1
REMARK VINA RESULT: -9.008273709      0.000      0.000
REMARK  4 active torsions:
REMARK  status: ('A' for Active; 'I' for Inactive)
REMARK    1  A    between atoms: C4_4  and  C5_5 
REMARK    2  A    between atoms: C8_12  and  C9_13 
REMARK    3  A    between atoms: C14_18  and  C15_19 
REMARK    4  A    between atoms: C15_19  and  C16_20 
ROOT
HETATM    1  C5  UNL     1      50.001  87.920  39.908  1.00  0.00     0.180 C 
HETATM    2  C6  UNL     1      51.255  88.511  40.387  1.00  0.00     0.065 C 
HETATM    3  N1  UNL     1      52.223  88.991  40.768  1.00  0.00    -0.197 NA
ENDROOT
BRANCH   1   4
HETATM    4  C4  UNL     1      49.268  88.838  39.008  1.00  0.00     0.024 A 
HETATM    5  C3  UNL     1      47.911  88.652  38.810  1.00  0.00     0.033 A 
HETATM    6  C2  UNL     1      47.190  89.454  37.954  1.00  0.00    -0.050 A 
HETATM    7  C1  UNL     1      45.758  89.122  37.805  1.00  0.00     0.049 C 
HETATM    8  C8  UNL     1      47.840  90.517  37.237  1.00  0.00    -0.010 A 
HETATM    9  C7  UNL     1      49.188  90.657  37.475  1.00  0.00     0.108 A 
HETATM   10  N2  UNL     1      49.856  89.834  38.335  1.00  0.00    -0.349 N 
HETATM   11  S1  UNL     1      49.984  91.885  36.796  1.00  0.00    -0.060 SA
ATOM     12  H2  UNL     1      50.856  89.985  38.471  1.00  0.00     0.166 HD
BRANCH   8  13
HETATM   13  C9  UNL     1      46.948  91.268  36.426  1.00  0.00     0.026 C 
HETATM   14  C10 UNL     1      47.179  90.790  34.966  1.00  0.00     0.010 C 
HETATM   15  C11 UNL     1      45.854  90.819  34.277  1.00  0.00     0.001 C 
HETATM   16  C12 UNL     1      44.850  91.603  35.095  1.00  0.00     0.000 C 
HETATM   17  C13 UNL     1      45.366  92.869  35.699  1.00  0.00     0.005 C 
HETATM   18  C14 UNL     1      46.852  92.728  36.241  1.00  0.00    -0.002 C 
BRANCH  18  19
HETATM   19  C15 UNL     1      47.626  93.397  35.157  1.00  0.00     0.065 C 
BRANCH  19  20
HETATM   20  C16 UNL     1      47.823  94.867  35.237  1.00  0.00     0.175 C 
HETATM   21  C17 UNL     1      48.615  95.408  36.386  1.00  0.00     0.070 C 
HETATM   22  F1  UNL     1      46.768  95.691  35.000  1.00  0.00    -0.226 F 
HETATM   23 CL1  UNL     1      48.908  95.224  33.775  1.00  0.00    -0.083 Cl
ENDBRANCH  19  20
ENDBRANCH  18  19
ENDBRANCH   8  13
ENDBRANCH   1   4
TORSDOF 4
ENDMDL
MODEL 2
REMARK VINA RESULT: -8.943017443      1.073      1.110
REMARK  4 active torsions:
REMARK  status: ('A' for Active; 'I' for Inactive)
REMARK    1  A    between atoms: C4_4  and  C5_5 
REMARK    2  A    between atoms: C8_12  and  C9_13 
REMARK    3  A    between atoms: C14_18  and  C15_19 
REMARK    4  A    between atoms: C15_19  and  C16_20 
ROOT
HETATM    1  C5  UNL     1      49.939  87.898  40.063  1.00  0.00     0.180 C 
HETATM    2  C6  UNL     1      51.241  88.419  40.494  1.00  0.00     0.065 C 
HETATM    3  N1  UNL     1      52.248  88.845  40.836  1.00  0.00    -0.197 NA
ENDROOT
BRANCH   1   4
HETATM    4  C4  UNL     1      49.262  88.818  39.122  1.00  0.00     0.024 A 
HETATM    5  C3  UNL     1      47.899  88.696  38.918  1.00  0.00     0.033 A 
HETATM    6  C2  UNL     1      47.228  89.501  38.026  1.00  0.00    -0.050 A 
HETATM    7  C1  UNL     1      45.782  89.239  37.876  1.00  0.00     0.049 C 
HETATM    8  C8  UNL     1      47.938  90.499  37.275  1.00  0.00    -0.010 A 
HETATM    9  C7  UNL     1      49.290  90.578  37.520  1.00  0.00     0.108 A 
HETATM   10  N2  UNL     1      49.908  89.755  38.417  1.00  0.00    -0.349 N 
HETATM   11  S1  UNL     1      50.154  91.735  36.801  1.00  0.00    -0.060 SA
ATOM     12  H2  UNL     1      50.912  89.859  38.557  1.00  0.00     0.166 HD
BRANCH   8  13
HETATM   13  C9  UNL     1      47.092  91.264  36.427  1.00  0.00     0.026 C 
HETATM   14  C10 UNL     1      47.350  90.755  34.982  1.00  0.00     0.010 C 
HETATM   15  C11 UNL     1      46.046  90.814  34.254  1.00  0.00     0.001 C 
HETATM   16  C12 UNL     1      45.044  91.641  35.032  1.00  0.00     0.000 C 
HETATM   17  C13 UNL     1      45.582  92.900  35.631  1.00  0.00     0.005 C 
HETATM   18  C14 UNL     1      47.047  92.723  36.217  1.00  0.00    -0.002 C 
BRANCH  18  19
HETATM   19  C15 UNL     1      47.872  93.351  35.146  1.00  0.00     0.065 C 
BRANCH  19  20
HETATM   20  C16 UNL     1      48.485  94.676  35.415  1.00  0.00     0.175 C 
HETATM   21  C17 UNL     1      47.825  95.886  34.832  1.00  0.00     0.070 C 
HETATM   22  F1  UNL     1      49.833  94.816  35.313  1.00  0.00    -0.226 F 
HETATM   23 CL1  UNL     1      48.226  94.895  37.239  1.00  0.00    -0.083 Cl
ENDBRANCH  19  20
ENDBRANCH  18  19
ENDBRANCH   8  13
ENDBRANCH   1   4
TORSDOF 4
ENDMDL
MODEL 3
REMARK VINA RESULT: -8.756668612      1.563      1.656
REMARK  4 active torsions:
REMARK  status: ('A' for Active; 'I' for Inactive)
REMARK    1  A    between atoms: C4_4  and  C5_5 
REMARK    2  A    between atoms: C8_12  and  C9_13 
REMARK    3  A    between atoms: C14_18  and  C15_19 
REMARK    4  A    between atoms: C15_19  and  C16_20 
ROOT
HETATM    1  C5  UNL     1      49.717  87.983  40.261  1.00  0.00     0.180 C 
HETATM    2  C6  UNL     1      48.735  87.541  41.258  1.00  0.00     0.065 C 
HETATM    3  N1  UNL     1      47.956  87.191  42.020  1.00  0.00    -0.197 NA
ENDROOT
BRANCH   1   4
HETATM    4  C4  UNL     1      49.115  88.890  39.259  1.00  0.00     0.024 A 
HETATM    5  C3  UNL     1      47.755  88.818  39.010  1.00  0.00     0.033 A 
HETATM    6  C2  UNL     1      47.153  89.613  38.062  1.00  0.00    -0.050 A 
HETATM    7  C1  UNL     1      45.702  89.407  37.869  1.00  0.00     0.049 C 
HETATM    8  C8  UNL     1      47.932  90.547  37.298  1.00  0.00    -0.010 A 
HETATM    9  C7  UNL     1      49.277  90.578  37.589  1.00  0.00     0.108 A 
HETATM   10  N2  UNL     1      49.826  89.768  38.541  1.00  0.00    -0.349 N 
HETATM   11  S1  UNL     1      50.217  91.666  36.857  1.00  0.00    -0.060 SA
ATOM     12  H2  UNL     1      50.828  89.834  38.714  1.00  0.00     0.166 HD
BRANCH   8  13
HETATM   13  C9  UNL     1      47.152  91.312  36.389  1.00  0.00     0.026 C 
HETATM   14  C10 UNL     1      47.445  90.739  34.975  1.00  0.00     0.010 C 
HETATM   15  C11 UNL     1      46.175  90.820  34.193  1.00  0.00     0.001 C 
HETATM   16  C12 UNL     1      45.177  91.714  34.899  1.00  0.00     0.000 C 
HETATM   17  C13 UNL     1      45.741  92.973  35.473  1.00  0.00     0.005 C 
HETATM   18  C14 UNL     1      47.174  92.762  36.124  1.00  0.00    -0.002 C 
BRANCH  18  19
HETATM   19  C15 UNL     1      48.064  93.316  35.065  1.00  0.00     0.065 C 
BRANCH  19  20
HETATM   20  C16 UNL     1      48.708  94.633  35.305  1.00  0.00     0.175 C 
HETATM   21  C17 UNL     1      48.119  95.835  34.636  1.00  0.00     0.070 C 
HETATM   22  F1  UNL     1      50.064  94.725  35.264  1.00  0.00    -0.226 F 
HETATM   23 CL1  UNL     1      48.370  94.944  37.102  1.00  0.00    -0.083 Cl
ENDBRANCH  19  20
ENDBRANCH  18  19
ENDBRANCH   8  13
ENDBRANCH   1   4
TORSDOF 4
ENDMDL
MODEL 4
REMARK VINA RESULT: -8.097971211      1.960      2.027
REMARK  4 active torsions:
REMARK  status: ('A' for Active; 'I' for Inactive)
REMARK    1  A    between atoms: C4_4  and  C5_5 
REMARK    2  A    between atoms: C8_12  and  C9_13 
REMARK    3  A    between atoms: C14_18  and  C15_19 
REMARK    4  A    between atoms: C15_19  and  C16_20 
ROOT
HETATM    1  C5  UNL     1      50.090  86.350  38.252  1.00  0.00     0.180 C 
HETATM    2  C6  UNL     1      49.955  86.361  39.712  1.00  0.00     0.065 C 
HETATM    3  N1  UNL     1      49.827  86.372  40.851  1.00  0.00    -0.197 NA
ENDROOT
BRANCH   1   4
HETATM    4  C4  UNL     1      49.442  87.525  37.629  1.00  0.00     0.024 A 
HETATM    5  C3  UNL     1      48.162  87.878  38.019  1.00  0.00     0.033 A 
HETATM    6  C2  UNL     1      47.499  88.939  37.444  1.00  0.00    -0.050 A 
HETATM    7  C1  UNL     1      46.123  89.182  37.924  1.00  0.00     0.049 C 
HETATM    8  C8  UNL     1      48.131  89.715  36.413  1.00  0.00    -0.010 A 
HETATM    9  C7  UNL     1      49.404  89.322  36.068  1.00  0.00     0.108 A 
HETATM   10  N2  UNL     1      50.017  88.261  36.670  1.00  0.00    -0.349 N 
HETATM   11  S1  UNL     1      50.234  90.194  34.994  1.00  0.00    -0.060 SA
ATOM     12  H2  UNL     1      50.961  88.015  36.373  1.00  0.00     0.166 HD
BRANCH   8  13
HETATM   13  C9  UNL     1      47.326  90.792  35.954  1.00  0.00     0.026 C 
HETATM   14  C10 UNL     1      46.771  90.361  34.568  1.00  0.00     0.010 C 
HETATM   15  C11 UNL     1      45.389  90.916  34.453  1.00  0.00     0.001 C 
HETATM   16  C12 UNL     1      45.146  91.955  35.528  1.00  0.00     0.000 C 
HETATM   17  C13 UNL     1      46.277  92.903  35.767  1.00  0.00     0.005 C 
HETATM   18  C14 UNL     1      47.697  92.196  35.694  1.00  0.00    -0.002 C 
BRANCH  18  19
HETATM   19  C15 UNL     1      48.162  92.608  34.339  1.00  0.00     0.065 C 
BRANCH  19  20
HETATM   20  C16 UNL     1      49.163  93.700  34.241  1.00  0.00     0.175 C 
HETATM   21  C17 UNL     1      48.696  95.041  33.771  1.00  0.00     0.070 C 
HETATM   22  F1  UNL     1      50.379  93.437  33.689  1.00  0.00    -0.226 F 
HETATM   23 CL1  UNL     1      49.619  94.010  36.012  1.00  0.00    -0.083 Cl
ENDBRANCH  19  20
ENDBRANCH  18  19
ENDBRANCH   8  13
ENDBRANCH   1   4
TORSDOF 4
ENDMDL
MODEL 5
REMARK VINA RESULT: -7.955407392      3.183      4.111
REMARK  4 active torsions:
REMARK  status: ('A' for Active; 'I' for Inactive)
REMARK    1  A    between atoms: C4_4  and  C5_5 
REMARK    2  A    between atoms: C8_12  and  C9_13 
REMARK    3  A    between atoms: C14_18  and  C15_19 
REMARK    4  A    between atoms: C15_19  and  C16_20 
ROOT
HETATM    1  C5  UNL     1      47.209  88.761  39.409  1.00  0.00     0.180 C 
HETATM    2  C6  UNL     1      48.308  88.328  40.280  1.00  0.00     0.065 C 
HETATM    3  N1  UNL     1      49.171  88.011  40.963  1.00  0.00    -0.197 NA
ENDROOT
BRANCH   1   4
HETATM    4  C4  UNL     1      47.683  89.648  38.324  1.00  0.00     0.024 A 
HETATM    5  C3  UNL     1      47.979  90.969  38.609  1.00  0.00     0.033 A 
HETATM    6  C2  UNL     1      48.387  91.845  37.629  1.00  0.00    -0.050 A 
HETATM    7  C1  UNL     1      48.631  93.237  38.063  1.00  0.00     0.049 C 
HETATM    8  C8  UNL     1      48.517  91.401  36.269  1.00  0.00    -0.010 A 
HETATM    9  C7  UNL     1      48.213  90.078  36.044  1.00  0.00     0.108 A 
HETATM   10  N2  UNL     1      47.813  89.250  37.053  1.00  0.00    -0.349 N 
HETATM   11  S1  UNL     1      48.428  89.461  34.569  1.00  0.00    -0.060 SA
ATOM     12  H2  UNL     1      47.601  88.279  36.826  1.00  0.00     0.166 HD
BRANCH   8  13
HETATM   13  C9  UNL     1      48.980  92.419  35.393  1.00  0.00     0.026 C 
HETATM   14  C10 UNL     1      48.082  92.346  34.127  1.00  0.00     0.010 C 
HETATM   15  C11 UNL     1      47.892  93.745  33.639  1.00  0.00     0.001 C 
HETATM   16  C12 UNL     1      48.881  94.677  34.308  1.00  0.00     0.000 C 
HETATM   17  C13 UNL     1      50.274  94.149  34.431  1.00  0.00     0.005 C 
HETATM   18  C14 UNL     1      50.314  92.604  34.792  1.00  0.00    -0.002 C 
BRANCH  18  19
HETATM   19  C15 UNL     1      50.627  91.999  33.466  1.00  0.00     0.065 C 
BRANCH  19  20
HETATM   20  C16 UNL     1      51.859  91.178  33.340  1.00  0.00     0.175 C 
HETATM   21  C17 UNL     1      51.704  89.696  33.203  1.00  0.00     0.070 C 
HETATM   22  F1  UNL     1      52.916  91.439  34.154  1.00  0.00    -0.226 F 
HETATM   23 CL1  UNL     1      52.531  91.684  31.686  1.00  0.00    -0.083 Cl
ENDBRANCH  19  20
ENDBRANCH  18  19
ENDBRANCH   8  13
ENDBRANCH   1   4
TORSDOF 4
ENDMDL
