MODEL 1
REMARK VINA RESULT: -10.251108513      0.000      0.000
REMARK  3 active torsions:
REMARK  status: ('A' for Active; 'I' for Inactive)
REMARK    1  A    between atoms: C2_2  and  N1_3 
REMARK    2  A    between atoms: N1_3  and  C3_5 
REMARK    3  A    between atoms: C5_7  and  C6_8 
ROOT
HETATM    1  C3  UNL     1      49.197  91.901  34.066  1.00  0.00     0.036 A 
HETATM    2  C4  UNL     1      48.763  91.066  35.065  1.00  0.00     0.042 A 
HETATM    3  C5  UNL     1      47.908  91.486  36.082  1.00  0.00    -0.016 A 
HETATM    4  C10 UNL     1      47.463  92.767  36.120  1.00  0.00     0.020 A 
HETATM    5  C11 UNL     1      47.878  93.623  35.139  1.00  0.00    -0.049 A 
HETATM    6  C12 UNL     1      48.717  93.218  34.138  1.00  0.00    -0.025 A 
HETATM    7  C13 UNL     1      48.955  94.366  33.261  1.00  0.00     0.042 C 
HETATM    8  C14 UNL     1      48.743  95.552  34.173  1.00  0.00     0.009 C 
HETATM    9  C15 UNL     1      47.534  95.072  34.967  1.00  0.00     0.039 C 
ENDROOT
BRANCH   1  10
HETATM   10  N1  UNL     1      50.057  91.521  33.029  1.00  0.00    -0.381 N 
ATOM     11  H1  UNL     1      49.694  91.667  32.087  1.00  0.00     0.160 HD
BRANCH  10  12
HETATM   12  C2  UNL     1      51.364  90.961  33.096  1.00  0.00     0.027 C 
HETATM   13  C1  UNL     1      52.088  91.626  34.293  1.00  0.00     0.038 C 
HETATM   14  C16 UNL     1      51.408  89.484  33.418  1.00  0.00     0.036 C 
HETATM   15  C17 UNL     1      52.425  88.742  32.617  1.00  0.00     0.081 C 
HETATM   16  C18 UNL     1      53.742  89.425  32.464  1.00  0.00     0.243 C 
HETATM   17  F1  UNL     1      54.319  88.916  31.291  1.00  0.00    -0.206 F 
HETATM   18  F2  UNL     1      54.639  89.050  33.474  1.00  0.00    -0.206 F 
HETATM   19  C19 UNL     1      53.675  90.917  32.325  1.00  0.00     0.081 C 
HETATM   20  C20 UNL     1      52.250  91.275  31.908  1.00  0.00     0.036 C 
ENDBRANCH  10  12
ENDBRANCH   1  10
BRANCH   3  21
HETATM   21  C6  UNL     1      47.493  90.530  37.110  1.00  0.00     0.015 A 
HETATM   22  C7  UNL     1      46.401  89.706  37.098  1.00  0.00     0.020 A 
HETATM   23  C8  UNL     1      46.219  88.910  38.156  1.00  0.00     0.008 A 
HETATM   24  C9  UNL     1      47.140  88.984  39.169  1.00  0.00     0.050 A 
HETATM   25  S1  UNL     1      48.232  90.167  38.602  1.00  0.00    -0.101 SA
ENDBRANCH   3  21
TORSDOF 3
ENDMDL
MODEL 2
REMARK VINA RESULT: -9.816998770      1.990      4.374
REMARK  3 active torsions:
REMARK  status: ('A' for Active; 'I' for Inactive)
REMARK    1  A    between atoms: C2_2  and  N1_3 
REMARK    2  A    between atoms: N1_3  and  C3_5 
REMARK    3  A    between atoms: C5_7  and  C6_8 
ROOT
HETATM    1  C3  UNL     1      49.077  91.421  33.840  1.00  0.00     0.036 A 
HETATM    2  C4  UNL     1      49.263  92.778  33.744  1.00  0.00     0.042 A 
HETATM    3  C5  UNL     1      48.449  93.700  34.399  1.00  0.00    -0.016 A 
HETATM    4  C10 UNL     1      47.419  93.278  35.175  1.00  0.00     0.020 A 
HETATM    5  C11 UNL     1      47.209  91.932  35.290  1.00  0.00    -0.049 A 
HETATM    6  C12 UNL     1      48.003  91.022  34.650  1.00  0.00    -0.025 A 
HETATM    7  C13 UNL     1      47.513  89.685  34.987  1.00  0.00     0.042 C 
HETATM    8  C14 UNL     1      46.053  89.915  35.300  1.00  0.00     0.009 C 
HETATM    9  C15 UNL     1      46.145  91.226  36.074  1.00  0.00     0.039 C 
ENDROOT
BRANCH   1  10
HETATM   10  N1  UNL     1      49.868  90.463  33.197  1.00  0.00    -0.381 N 
ATOM     11  H1  UNL     1      49.356  89.777  32.642  1.00  0.00     0.160 HD
BRANCH  10  12
HETATM   12  C2  UNL     1      51.283  90.304  33.203  1.00  0.00     0.027 C 
HETATM   13  C1  UNL     1      51.835  91.147  34.380  1.00  0.00     0.038 C 
HETATM   14  C16 UNL     1      51.765  88.902  33.500  1.00  0.00     0.036 C 
HETATM   15  C17 UNL     1      52.918  88.489  32.647  1.00  0.00     0.081 C 
HETATM   16  C18 UNL     1      53.974  89.525  32.452  1.00  0.00     0.243 C 
HETATM   17  F1  UNL     1      54.624  89.209  31.250  1.00  0.00    -0.206 F 
HETATM   18  F2  UNL     1      54.984  89.422  33.420  1.00  0.00    -0.206 F 
HETATM   19  C19 UNL     1      53.474  90.934  32.339  1.00  0.00     0.081 C 
HETATM   20  C20 UNL     1      51.989  90.866  31.986  1.00  0.00     0.036 C 
ENDBRANCH  10  12
ENDBRANCH   1  10
BRANCH   3  21
HETATM   21  C6  UNL     1      48.716  95.131  34.243  1.00  0.00     0.015 A 
HETATM   22  C7  UNL     1      49.603  95.731  33.392  1.00  0.00     0.020 A 
HETATM   23  C8  UNL     1      49.679  97.065  33.423  1.00  0.00     0.008 A 
HETATM   24  C9  UNL     1      48.862  97.725  34.305  1.00  0.00     0.050 A 
HETATM   25  S1  UNL     1      48.014  96.451  35.061  1.00  0.00    -0.101 SA
ENDBRANCH   3  21
TORSDOF 3
ENDMDL
MODEL 3
REMARK VINA RESULT: -9.747671918      3.550      6.493
REMARK  3 active torsions:
REMARK  status: ('A' for Active; 'I' for Inactive)
REMARK    1  A    between atoms: C2_2  and  N1_3 
REMARK    2  A    between atoms: N1_3  and  C3_5 
REMARK    3  A    between atoms: C5_7  and  C6_8 
ROOT
HETATM    1  C3  UNL     1      50.107  91.909  36.249  1.00  0.00     0.036 A 
HETATM    2  C4  UNL     1      50.890  91.105  35.457  1.00  0.00     0.042 A 
HETATM    3  C5  UNL     1      51.375  91.512  34.216  1.00  0.00    -0.016 A 
HETATM    4  C10 UNL     1      51.084  92.746  33.735  1.00  0.00     0.020 A 
HETATM    5  C11 UNL     1      50.306  93.569  34.500  1.00  0.00    -0.049 A 
HETATM    6  C12 UNL     1      49.826  93.177  35.719  1.00  0.00    -0.025 A 
HETATM    7  C13 UNL     1      49.044  94.286  36.269  1.00  0.00     0.042 C 
HETATM    8  C14 UNL     1      48.583  95.033  35.040  1.00  0.00     0.009 C 
HETATM    9  C15 UNL     1      49.846  94.961  34.189  1.00  0.00     0.039 C 
ENDROOT
BRANCH   1  10
HETATM   10  N1  UNL     1      49.597  91.539  37.498  1.00  0.00    -0.381 N 
ATOM     11  H1  UNL     1      50.115  91.895  38.303  1.00  0.00     0.160 HD
BRANCH  10  12
HETATM   12  C2  UNL     1      48.462  90.739  37.813  1.00  0.00     0.027 C 
HETATM   13  C1  UNL     1      48.148  90.958  39.314  1.00  0.00     0.038 C 
HETATM   14  C16 UNL     1      47.185  91.140  37.109  1.00  0.00     0.036 C 
HETATM   15  C17 UNL     1      46.388  89.971  36.635  1.00  0.00     0.081 C 
HETATM   16  C18 UNL     1      46.285  88.835  37.596  1.00  0.00     0.243 C 
HETATM   17  F1  UNL     1      46.034  87.687  36.829  1.00  0.00    -0.206 F 
HETATM   18  F2  UNL     1      45.151  88.950  38.414  1.00  0.00    -0.206 F 
HETATM   19  C19 UNL     1      47.516  88.574  38.411  1.00  0.00     0.081 C 
HETATM   20  C20 UNL     1      48.689  89.245  37.698  1.00  0.00     0.036 C 
ENDBRANCH  10  12
ENDBRANCH   1  10
BRANCH   3  21
HETATM   21  C6  UNL     1      52.205  90.593  33.435  1.00  0.00     0.015 A 
HETATM   22  C7  UNL     1      53.133  90.906  32.480  1.00  0.00     0.020 A 
HETATM   23  C8  UNL     1      53.777  89.893  31.891  1.00  0.00     0.008 A 
HETATM   24  C9  UNL     1      53.455  88.621  32.292  1.00  0.00     0.050 A 
HETATM   25  S1  UNL     1      52.261  88.890  33.481  1.00  0.00    -0.101 SA
ENDBRANCH   3  21
TORSDOF 3
ENDMDL
MODEL 4
REMARK VINA RESULT: -9.703342854      3.300      6.383
REMARK  3 active torsions:
REMARK  status: ('A' for Active; 'I' for Inactive)
REMARK    1  A    between atoms: C2_2  and  N1_3 
REMARK    2  A    between atoms: N1_3  and  C3_5 
REMARK    3  A    between atoms: C5_7  and  C6_8 
ROOT
HETATM    1  C3  UNL     1      48.015  90.638  35.150  1.00  0.00     0.036 A 
HETATM    2  C4  UNL     1      49.187  90.315  34.510  1.00  0.00     0.042 A 
HETATM    3  C5  UNL     1      49.952  91.253  33.819  1.00  0.00    -0.016 A 
HETATM    4  C10 UNL     1      49.557  92.549  33.754  1.00  0.00     0.020 A 
HETATM    5  C11 UNL     1      48.394  92.900  34.381  1.00  0.00    -0.049 A 
HETATM    6  C12 UNL     1      47.638  91.986  35.060  1.00  0.00    -0.025 A 
HETATM    7  C13 UNL     1      46.477  92.686  35.611  1.00  0.00     0.042 C 
HETATM    8  C14 UNL     1      46.295  93.856  34.672  1.00  0.00     0.009 C 
HETATM    9  C15 UNL     1      47.750  94.252  34.448  1.00  0.00     0.039 C 
ENDROOT
BRANCH   1  10
HETATM   10  N1  UNL     1      47.216  89.728  35.850  1.00  0.00    -0.381 N 
ATOM     11  H1  UNL     1      46.413  89.367  35.335  1.00  0.00     0.160 HD
BRANCH  10  12
HETATM   12  C2  UNL     1      47.359  89.231  37.177  1.00  0.00     0.027 C 
HETATM   13  C1  UNL     1      45.936  89.102  37.775  1.00  0.00     0.038 C 
HETATM   14  C16 UNL     1      47.926  87.832  37.275  1.00  0.00     0.036 C 
HETATM   15  C17 UNL     1      48.910  87.678  38.387  1.00  0.00     0.081 C 
HETATM   16  C18 UNL     1      48.530  88.330  39.674  1.00  0.00     0.243 C 
HETATM   17  F1  UNL     1      49.727  88.577  40.362  1.00  0.00    -0.206 F 
HETATM   18  F2  UNL     1      47.831  87.450  40.513  1.00  0.00    -0.206 F 
HETATM   19  C19 UNL     1      47.808  89.637  39.538  1.00  0.00     0.081 C 
HETATM   20  C20 UNL     1      48.076  90.166  38.130  1.00  0.00     0.036 C 
ENDBRANCH  10  12
ENDBRANCH   1  10
BRANCH   3  21
HETATM   21  C6  UNL     1      51.190  90.826  33.164  1.00  0.00     0.015 A 
HETATM   22  C7  UNL     1      51.992  91.556  32.331  1.00  0.00     0.020 A 
HETATM   23  C8  UNL     1      53.083  90.954  31.845  1.00  0.00     0.008 A 
HETATM   24  C9  UNL     1      53.309  89.655  32.221  1.00  0.00     0.050 A 
HETATM   25  S1  UNL     1      51.985  89.321  33.243  1.00  0.00    -0.101 SA
ENDBRANCH   3  21
TORSDOF 3
ENDMDL
MODEL 5
REMARK VINA RESULT: -9.596134295      1.065      1.398
REMARK  3 active torsions:
REMARK  status: ('A' for Active; 'I' for Inactive)
REMARK    1  A    between atoms: C2_2  and  N1_3 
REMARK    2  A    between atoms: N1_3  and  C3_5 
REMARK    3  A    between atoms: C5_7  and  C6_8 
ROOT
HETATM    1  C3  UNL     1      49.162  90.922  34.627  1.00  0.00     0.036 A 
HETATM    2  C4  UNL     1      49.121  90.098  35.725  1.00  0.00     0.042 A 
HETATM    3  C5  UNL     1      48.355  90.383  36.854  1.00  0.00    -0.016 A 
HETATM    4  C10 UNL     1      47.604  91.511  36.908  1.00  0.00     0.020 A 
HETATM    5  C11 UNL     1      47.625  92.351  35.830  1.00  0.00    -0.049 A 
HETATM    6  C12 UNL     1      48.374  92.079  34.720  1.00  0.00    -0.025 A 
HETATM    7  C13 UNL     1      48.167  93.166  33.762  1.00  0.00     0.042 C 
HETATM    8  C14 UNL     1      47.799  94.340  34.639  1.00  0.00     0.009 C 
HETATM    9  C15 UNL     1      46.894  93.648  35.653  1.00  0.00     0.039 C 
ENDROOT
BRANCH   1  10
HETATM   10  N1  UNL     1      49.919  90.675  33.477  1.00  0.00    -0.381 N 
ATOM     11  H1  UNL     1      49.384  90.597  32.612  1.00  0.00     0.160 HD
BRANCH  10  12
HETATM   12  C2  UNL     1      51.328  90.517  33.336  1.00  0.00     0.027 C 
HETATM   13  C1  UNL     1      52.002  91.538  34.286  1.00  0.00     0.038 C 
HETATM   14  C16 UNL     1      51.867  89.180  33.794  1.00  0.00     0.036 C 
HETATM   15  C17 UNL     1      52.916  88.632  32.884  1.00  0.00     0.081 C 
HETATM   16  C18 UNL     1      53.922  89.621  32.398  1.00  0.00     0.243 C 
HETATM   17  F1  UNL     1      54.427  89.113  31.192  1.00  0.00    -0.206 F 
HETATM   18  F2  UNL     1      55.043  89.675  33.239  1.00  0.00    -0.206 F 
HETATM   19  C19 UNL     1      53.386  90.994  32.121  1.00  0.00     0.081 C 
HETATM   20  C20 UNL     1      51.871  90.872  31.967  1.00  0.00     0.036 C 
ENDBRANCH  10  12
ENDBRANCH   1  10
BRANCH   3  21
HETATM   21  C6  UNL     1      48.367  89.450  37.983  1.00  0.00     0.015 A 
HETATM   22  C7  UNL     1      47.613  89.504  39.122  1.00  0.00     0.020 A 
HETATM   23  C8  UNL     1      47.794  88.535  40.026  1.00  0.00     0.008 A 
HETATM   24  C9  UNL     1      48.720  87.566  39.737  1.00  0.00     0.050 A 
HETATM   25  S1  UNL     1      49.306  88.046  38.208  1.00  0.00    -0.101 SA
ENDBRANCH   3  21
TORSDOF 3
ENDMDL
