MODEL 1
REMARK VINA RESULT: -10.586601024      0.000      0.000
REMARK  3 active torsions:
REMARK  status: ('A' for Active; 'I' for Inactive)
REMARK    1  A    between atoms: C4_6  and  N1_7 
REMARK    2  A    between atoms: N1_7  and  C5_9 
REMARK    3  A    between atoms: C6_10  and  C7_11 
ROOT
HETATM    1  C5  UNL     1      48.632  92.115  34.556  1.00  0.00     0.065 C 
HETATM    2  C6  UNL     1      48.098  91.805  35.789  1.00  0.00     0.084 C 
HETATM    3  O1  UNL     1      47.783  93.008  36.730  1.00  0.00    -0.317 OA
HETATM    4  C13 UNL     1      48.080  94.159  36.113  1.00  0.00     0.054 C 
HETATM    5  C14 UNL     1      47.578  95.292  35.775  1.00  0.00     0.006 C 
HETATM    6  C15 UNL     1      48.340  96.345  34.923  1.00  0.00     0.033 C 
HETATM    7  C16 UNL     1      48.914  95.817  33.672  1.00  0.00     0.031 C 
HETATM    8  C17 UNL     1      48.649  94.314  33.440  1.00  0.00    -0.017 C 
HETATM    9  C18 UNL     1      48.852  93.498  34.400  1.00  0.00    -0.027 C 
HETATM   10  C19 UNL     1      49.618  93.963  35.716  1.00  0.00     0.105 C 
ENDROOT
BRANCH   1  11
HETATM   11  N1  UNL     1      48.974  91.363  33.471  1.00  0.00    -0.383 N 
ATOM     12  H1  UNL     1      48.245  91.254  32.765  1.00  0.00     0.160 HD
BRANCH  11  13
HETATM   13  C4  UNL     1      50.237  90.692  33.176  1.00  0.00     0.082 C 
HETATM   14  C3  UNL     1      50.786  89.828  34.246  1.00  0.00     0.031 C 
HETATM   15  C2  UNL     1      51.987  89.073  33.645  1.00  0.00     0.081 C 
HETATM   16  C1  UNL     1      53.041  90.025  33.138  1.00  0.00     0.243 C 
HETATM   17  F1  UNL     1      53.515  90.791  34.179  1.00  0.00    -0.206 F 
HETATM   18  F2  UNL     1      54.040  89.255  32.584  1.00  0.00    -0.206 F 
HETATM   19  C21 UNL     1      52.390  90.903  32.056  1.00  0.00     0.081 C 
HETATM   20  C20 UNL     1      51.295  91.676  32.739  1.00  0.00     0.031 C 
ENDBRANCH  11  13
ENDBRANCH   1  11
BRANCH   2  21
HETATM   21  C7  UNL     1      47.755  90.559  36.315  1.00  0.00     0.045 C 
HETATM   22  C8  UNL     1      46.404  90.161  35.631  1.00  0.00     0.011 C 
HETATM   23  C9  UNL     1      46.330  88.664  35.561  1.00  0.00     0.001 C 
HETATM   24  C10 UNL     1      46.932  88.124  36.853  1.00  0.00     0.000 C 
HETATM   25  C11 UNL     1      46.587  89.124  37.923  1.00  0.00     0.001 C 
HETATM   26  C12 UNL     1      47.536  90.328  37.750  1.00  0.00     0.011 C 
ENDBRANCH   2  21
TORSDOF 3
ENDMDL
MODEL 2
REMARK VINA RESULT: -10.436257925      1.003      1.808
REMARK  3 active torsions:
REMARK  status: ('A' for Active; 'I' for Inactive)
REMARK    1  A    between atoms: C4_6  and  N1_7 
REMARK    2  A    between atoms: N1_7  and  C5_9 
REMARK    3  A    between atoms: C6_10  and  C7_11 
ROOT
HETATM    1  C5  UNL     1      48.600  92.893  34.483  1.00  0.00     0.065 C 
HETATM    2  C6  UNL     1      47.661  92.740  35.481  1.00  0.00     0.084 C 
HETATM    3  O1  UNL     1      47.185  94.045  36.191  1.00  0.00    -0.317 OA
HETATM    4  C13 UNL     1      47.791  95.107  35.644  1.00  0.00     0.054 C 
HETATM    5  C14 UNL     1      47.552  96.243  35.093  1.00  0.00     0.006 C 
HETATM    6  C15 UNL     1      48.659  97.149  34.488  1.00  0.00     0.033 C 
HETATM    7  C16 UNL     1      49.552  96.466  33.534  1.00  0.00     0.031 C 
HETATM    8  C17 UNL     1      49.219  94.975  33.313  1.00  0.00    -0.017 C 
HETATM    9  C18 UNL     1      49.007  94.234  34.331  1.00  0.00    -0.027 C 
HETATM   10  C19 UNL     1      49.344  94.751  35.799  1.00  0.00     0.105 C 
ENDROOT
BRANCH   1  11
HETATM   11  N1  UNL     1      49.197  92.022  33.620  1.00  0.00    -0.383 N 
ATOM     12  H1  UNL     1      48.740  91.919  32.714  1.00  0.00     0.160 HD
BRANCH  11  13
HETATM   13  C4  UNL     1      50.399  91.214  33.812  1.00  0.00     0.082 C 
HETATM   14  C3  UNL     1      51.475  91.391  32.810  1.00  0.00     0.031 C 
HETATM   15  C2  UNL     1      52.702  90.613  33.324  1.00  0.00     0.081 C 
HETATM   16  C1  UNL     1      52.389  89.151  33.513  1.00  0.00     0.243 C 
HETATM   17  F1  UNL     1      52.023  88.594  32.309  1.00  0.00    -0.206 F 
HETATM   18  F2  UNL     1      53.530  88.561  34.014  1.00  0.00    -0.206 F 
HETATM   19  C21 UNL     1      51.249  89.051  34.540  1.00  0.00     0.081 C 
HETATM   20  C20 UNL     1      50.064  89.747  33.928  1.00  0.00     0.031 C 
ENDBRANCH  11  13
ENDBRANCH   1  11
BRANCH   2  21
HETATM   21  C7  UNL     1      47.033  91.579  35.931  1.00  0.00     0.045 C 
HETATM   22  C8  UNL     1      48.093  90.829  36.806  1.00  0.00     0.011 C 
HETATM   23  C9  UNL     1      47.369  90.029  37.848  1.00  0.00     0.001 C 
HETATM   24  C10 UNL     1      46.115  89.465  37.190  1.00  0.00     0.000 C 
HETATM   25  C11 UNL     1      46.482  89.197  35.756  1.00  0.00     0.001 C 
HETATM   26  C12 UNL     1      46.497  90.555  35.024  1.00  0.00     0.011 C 
ENDBRANCH   2  21
TORSDOF 3
ENDMDL
MODEL 3
REMARK VINA RESULT: -10.330512422      0.962      4.585
REMARK  3 active torsions:
REMARK  status: ('A' for Active; 'I' for Inactive)
REMARK    1  A    between atoms: C4_6  and  N1_7 
REMARK    2  A    between atoms: N1_7  and  C5_9 
REMARK    3  A    between atoms: C6_10  and  C7_11 
ROOT
HETATM    1  C5  UNL     1      48.015  90.832  34.265  1.00  0.00     0.065 C 
HETATM    2  C6  UNL     1      47.798  92.056  34.861  1.00  0.00     0.084 C 
HETATM    3  O1  UNL     1      46.913  92.054  36.145  1.00  0.00    -0.317 OA
HETATM    4  C13 UNL     1      46.547  90.800  36.444  1.00  0.00     0.054 C 
HETATM    5  C14 UNL     1      46.564  89.933  37.392  1.00  0.00     0.006 C 
HETATM    6  C15 UNL     1      46.067  88.471  37.222  1.00  0.00     0.033 C 
HETATM    7  C16 UNL     1      46.650  87.759  36.070  1.00  0.00     0.031 C 
HETATM    8  C17 UNL     1      47.649  88.599  35.247  1.00  0.00    -0.017 C 
HETATM    9  C18 UNL     1      47.326  89.789  34.916  1.00  0.00    -0.027 C 
HETATM   10  C19 UNL     1      45.832  90.308  35.099  1.00  0.00     0.105 C 
ENDROOT
BRANCH   1  11
HETATM   11  N1  UNL     1      48.760  90.434  33.194  1.00  0.00    -0.383 N 
ATOM     12  H1  UNL     1      48.232  90.220  32.347  1.00  0.00     0.160 HD
BRANCH  11  13
HETATM   13  C4  UNL     1      50.208  90.270  33.088  1.00  0.00     0.082 C 
HETATM   14  C3  UNL     1      50.889  89.684  34.264  1.00  0.00     0.031 C 
HETATM   15  C2  UNL     1      52.349  89.416  33.851  1.00  0.00     0.081 C 
HETATM   16  C1  UNL     1      53.041  90.681  33.414  1.00  0.00     0.243 C 
HETATM   17  F1  UNL     1      53.066  91.581  34.454  1.00  0.00    -0.206 F 
HETATM   18  F2  UNL     1      54.315  90.325  33.026  1.00  0.00    -0.206 F 
HETATM   19  C21 UNL     1      52.261  91.243  32.213  1.00  0.00     0.081 C 
HETATM   20  C20 UNL     1      50.883  91.569  32.717  1.00  0.00     0.031 C 
ENDBRANCH  11  13
ENDBRANCH   1  11
BRANCH   2  21
HETATM   21  C7  UNL     1      48.291  93.312  34.505  1.00  0.00     0.045 C 
HETATM   22  C8  UNL     1      49.397  93.653  35.559  1.00  0.00     0.011 C 
HETATM   23  C9  UNL     1      50.412  94.546  34.909  1.00  0.00     0.001 C 
HETATM   24  C10 UNL     1      49.651  95.498  33.992  1.00  0.00     0.000 C 
HETATM   25  C11 UNL     1      48.331  95.757  34.666  1.00  0.00     0.001 C 
HETATM   26  C12 UNL     1      47.447  94.513  34.438  1.00  0.00     0.011 C 
ENDBRANCH   2  21
TORSDOF 3
ENDMDL
MODEL 4
REMARK VINA RESULT: -10.136151039      1.187      4.660
REMARK  3 active torsions:
REMARK  status: ('A' for Active; 'I' for Inactive)
REMARK    1  A    between atoms: C4_6  and  N1_7 
REMARK    2  A    between atoms: N1_7  and  C5_9 
REMARK    3  A    between atoms: C6_10  and  C7_11 
ROOT
HETATM    1  C5  UNL     1      49.183  91.077  35.406  1.00  0.00     0.065 C 
HETATM    2  C6  UNL     1      48.316  92.147  35.342  1.00  0.00     0.084 C 
HETATM    3  O1  UNL     1      46.819  91.846  35.661  1.00  0.00    -0.317 OA
HETATM    4  C13 UNL     1      46.672  90.553  35.977  1.00  0.00     0.054 C 
HETATM    5  C14 UNL     1      46.220  89.774  36.893  1.00  0.00     0.006 C 
HETATM    6  C15 UNL     1      46.372  88.228  36.853  1.00  0.00     0.033 C 
HETATM    7  C16 UNL     1      47.751  87.757  36.627  1.00  0.00     0.031 C 
HETATM    8  C17 UNL     1      48.788  88.889  36.474  1.00  0.00    -0.017 C 
HETATM    9  C18 UNL     1      48.521  89.868  35.699  1.00  0.00    -0.027 C 
HETATM   10  C19 UNL     1      47.283  89.802  34.701  1.00  0.00     0.105 C 
ENDROOT
BRANCH   1  11
HETATM   11  N1  UNL     1      50.534  90.960  35.256  1.00  0.00    -0.383 N 
ATOM     12  H1  UNL     1      51.092  91.248  36.060  1.00  0.00     0.160 HD
BRANCH  11  13
HETATM   13  C4  UNL     1      51.294  90.479  34.105  1.00  0.00     0.082 C 
HETATM   14  C3  UNL     1      51.803  89.092  34.188  1.00  0.00     0.031 C 
HETATM   15  C2  UNL     1      52.378  88.739  32.803  1.00  0.00     0.081 C 
HETATM   16  C1  UNL     1      53.482  89.686  32.405  1.00  0.00     0.243 C 
HETATM   17  F1  UNL     1      54.513  89.605  33.313  1.00  0.00    -0.206 F 
HETATM   18  F2  UNL     1      53.891  89.314  31.143  1.00  0.00    -0.206 F 
HETATM   19  C21 UNL     1      52.885  91.103  32.370  1.00  0.00     0.081 C 
HETATM   20  C20 UNL     1      52.435  91.410  33.771  1.00  0.00     0.031 C 
ENDBRANCH  11  13
ENDBRANCH   1  11
BRANCH   2  21
HETATM   21  C7  UNL     1      48.586  93.488  35.069  1.00  0.00     0.045 C 
HETATM   22  C8  UNL     1      47.197  94.163  34.811  1.00  0.00     0.011 C 
HETATM   23  C9  UNL     1      47.290  95.607  35.207  1.00  0.00     0.001 C 
HETATM   24  C10 UNL     1      48.673  96.098  34.792  1.00  0.00     0.000 C 
HETATM   25  C11 UNL     1      49.020  95.349  33.534  1.00  0.00     0.001 C 
HETATM   26  C12 UNL     1      49.432  93.922  33.948  1.00  0.00     0.011 C 
ENDBRANCH   2  21
TORSDOF 3
ENDMDL
MODEL 5
REMARK VINA RESULT: -10.064941753      2.642      6.141
REMARK  3 active torsions:
REMARK  status: ('A' for Active; 'I' for Inactive)
REMARK    1  A    between atoms: C4_6  and  N1_7 
REMARK    2  A    between atoms: N1_7  and  C5_9 
REMARK    3  A    between atoms: C6_10  and  C7_11 
ROOT
HETATM    1  C5  UNL     1      48.848  90.624  34.416  1.00  0.00     0.065 C 
HETATM    2  C6  UNL     1      50.077  90.000  34.481  1.00  0.00     0.084 C 
HETATM    3  O1  UNL     1      50.237  88.900  35.575  1.00  0.00    -0.317 OA
HETATM    4  C13 UNL     1      49.087  88.753  36.246  1.00  0.00     0.054 C 
HETATM    5  C14 UNL     1      48.215  87.875  36.590  1.00  0.00     0.006 C 
HETATM    6  C15 UNL     1      46.901  88.224  37.341  1.00  0.00     0.033 C 
HETATM    7  C16 UNL     1      46.105  89.294  36.712  1.00  0.00     0.031 C 
HETATM    8  C17 UNL     1      46.727  89.867  35.421  1.00  0.00    -0.017 C 
HETATM    9  C18 UNL     1      47.966  90.176  35.419  1.00  0.00    -0.027 C 
HETATM   10  C19 UNL     1      48.793  90.234  36.778  1.00  0.00     0.105 C 
ENDROOT
BRANCH   1  11
HETATM   11  N1  UNL     1      48.323  91.566  33.581  1.00  0.00    -0.383 N 
ATOM     12  H1  UNL     1      47.914  91.208  32.717  1.00  0.00     0.160 HD
BRANCH  11  13
HETATM   13  C4  UNL     1      48.262  93.016  33.749  1.00  0.00     0.082 C 
HETATM   14  C3  UNL     1      49.561  93.722  33.826  1.00  0.00     0.031 C 
HETATM   15  C2  UNL     1      49.256  95.232  33.790  1.00  0.00     0.081 C 
HETATM   16  C1  UNL     1      48.360  95.642  34.931  1.00  0.00     0.243 C 
HETATM   17  F1  UNL     1      48.982  95.376  36.129  1.00  0.00    -0.206 F 
HETATM   18  F2  UNL     1      48.114  96.990  34.779  1.00  0.00    -0.206 F 
HETATM   19  C21 UNL     1      47.049  94.848  34.798  1.00  0.00     0.081 C 
HETATM   20  C20 UNL     1      47.416  93.397  34.940  1.00  0.00     0.031 C 
ENDBRANCH  11  13
ENDBRANCH   1  11
BRANCH   2  21
HETATM   21  C7  UNL     1      51.203  90.181  33.678  1.00  0.00     0.045 C 
HETATM   22  C8  UNL     1      52.007  88.840  33.758  1.00  0.00     0.011 C 
HETATM   23  C9  UNL     1      52.766  88.665  32.476  1.00  0.00     0.001 C 
HETATM   24  C10 UNL     1      53.264  90.043  32.056  1.00  0.00     0.000 C 
HETATM   25  C11 UNL     1      53.552  90.787  33.332  1.00  0.00     0.001 C 
HETATM   26  C12 UNL     1      52.198  91.235  33.919  1.00  0.00     0.011 C 
ENDBRANCH   2  21
TORSDOF 3
ENDMDL
