MODEL 1
REMARK VINA RESULT: -7.821098306      0.000      0.000
REMARK  5 active torsions:
REMARK  status: ('A' for Active; 'I' for Inactive)
REMARK    1  A    between atoms: C2_2  and  C3_3 
REMARK    2  A    between atoms: C3_3  and  C5_5 
REMARK    3  A    between atoms: C5_5  and  C6_6 
REMARK    4  A    between atoms: C14_18  and  O1_19 
REMARK    5  A    between atoms: O1_19  and  C15_20 
ROOT
HETATM    1  C6  UNL     1      49.962  92.674  34.765  1.00  0.00     0.052 C 
HETATM    2  C7  UNL     1      50.799  91.657  34.090  1.00  0.00    -0.023 A 
HETATM    3  C8  UNL     1      52.148  91.565  34.234  1.00  0.00     0.035 A 
HETATM    4  C9  UNL     1      52.907  90.591  33.607  1.00  0.00     0.056 A 
HETATM    5 CL1  UNL     1      54.661  90.533  33.841  1.00  0.00    -0.083 Cl
HETATM    6  C10 UNL     1      52.254  89.688  32.810  1.00  0.00     0.058 A 
HETATM    7 CL2  UNL     1      53.191  88.439  32.002  1.00  0.00    -0.082 Cl
HETATM    8  C11 UNL     1      50.887  89.757  32.646  1.00  0.00     0.055 A 
HETATM    9  C12 UNL     1      50.138  90.754  33.291  1.00  0.00     0.036 A 
HETATM   10  N1  UNL     1      48.743  90.857  33.126  1.00  0.00    -0.387 N 
ATOM     11  H1  UNL     1      48.317  90.542  32.255  1.00  0.00     0.159 HD
HETATM   12  C13 UNL     1      47.911  91.400  34.162  1.00  0.00     0.152 C 
HETATM   13  C14 UNL     1      48.728  91.921  35.300  1.00  0.00     0.148 C 
ENDROOT
BRANCH   1  14
HETATM   14  C5  UNL     1      49.564  93.808  33.890  1.00  0.00     0.016 C 
BRANCH  14  15
HETATM   15  C3  UNL     1      49.797  95.166  34.463  1.00  0.00    -0.018 C 
HETATM   16  C4  UNL     1      49.586  96.267  33.443  1.00  0.00     0.010 C 
BRANCH  15  17
HETATM   17  C2  UNL     1      48.895  95.478  35.635  1.00  0.00    -0.000 C 
HETATM   18  C1  UNL     1      47.453  95.533  35.125  1.00  0.00     0.005 C 
ENDBRANCH  15  17
ENDBRANCH  14  15
ENDBRANCH   1  14
BRANCH  13  19
HETATM   19  O1  UNL     1      49.098  90.868  36.100  1.00  0.00    -0.374 OA
BRANCH  19  20
HETATM   20  C15 UNL     1      48.509  90.826  37.329  1.00  0.00     0.050 C 
HETATM   21  C16 UNL     1      49.434  90.026  38.251  1.00  0.00     0.045 C 
HETATM   22  C17 UNL     1      47.177  90.107  37.347  1.00  0.00     0.045 C 
HETATM   23  C18 UNL     1      48.314  92.168  37.976  1.00  0.00     0.045 C 
ENDBRANCH  19  20
ENDBRANCH  13  19
TORSDOF 5
ENDMDL
MODEL 2
REMARK VINA RESULT: -7.677737862      2.750      5.132
REMARK  5 active torsions:
REMARK  status: ('A' for Active; 'I' for Inactive)
REMARK    1  A    between atoms: C2_2  and  C3_3 
REMARK    2  A    between atoms: C3_3  and  C5_5 
REMARK    3  A    between atoms: C5_5  and  C6_6 
REMARK    4  A    between atoms: C14_18  and  O1_19 
REMARK    5  A    between atoms: O1_19  and  C15_20 
ROOT
HETATM    1  C6  UNL     1      49.626  91.786  34.589  1.00  0.00     0.052 C 
HETATM    2  C7  UNL     1      49.132  90.875  35.645  1.00  0.00    -0.023 A 
HETATM    3  C8  UNL     1      49.840  90.547  36.759  1.00  0.00     0.035 A 
HETATM    4  C9  UNL     1      49.346  89.708  37.744  1.00  0.00     0.056 A 
HETATM    5 CL1  UNL     1      50.326  89.326  39.168  1.00  0.00    -0.083 Cl
HETATM    6  C10 UNL     1      48.089  89.194  37.573  1.00  0.00     0.058 A 
HETATM    7 CL2  UNL     1      47.435  88.127  38.808  1.00  0.00    -0.082 Cl
HETATM    8  C11 UNL     1      47.348  89.509  36.453  1.00  0.00     0.055 A 
HETATM    9  C12 UNL     1      47.869  90.362  35.467  1.00  0.00     0.036 A 
HETATM   10  N1  UNL     1      47.140  90.685  34.306  1.00  0.00    -0.387 N 
ATOM     11  H1  UNL     1      46.464  90.018  33.936  1.00  0.00     0.159 HD
HETATM   12  C13 UNL     1      47.333  91.939  33.634  1.00  0.00     0.152 C 
HETATM   13  C14 UNL     1      48.448  92.720  34.249  1.00  0.00     0.148 C 
ENDROOT
BRANCH   1  14
HETATM   14  C5  UNL     1      50.129  91.089  33.375  1.00  0.00     0.016 C 
BRANCH  14  15
HETATM   15  C3  UNL     1      51.592  90.792  33.372  1.00  0.00    -0.018 C 
HETATM   16  C4  UNL     1      51.882  89.323  33.602  1.00  0.00     0.010 C 
BRANCH  15  17
HETATM   17  C2  UNL     1      52.272  91.174  32.077  1.00  0.00    -0.000 C 
HETATM   18  C1  UNL     1      53.557  90.352  31.953  1.00  0.00     0.005 C 
ENDBRANCH  15  17
ENDBRANCH  14  15
ENDBRANCH   1  14
BRANCH  13  19
HETATM   19  O1  UNL     1      47.980  93.356  35.372  1.00  0.00    -0.374 OA
BRANCH  19  20
HETATM   20  C15 UNL     1      47.872  94.712  35.280  1.00  0.00     0.050 C 
HETATM   21  C16 UNL     1      48.551  95.309  36.517  1.00  0.00     0.045 C 
HETATM   22  C17 UNL     1      46.445  95.217  35.304  1.00  0.00     0.045 C 
HETATM   23  C18 UNL     1      48.552  95.315  34.085  1.00  0.00     0.045 C 
ENDBRANCH  19  20
ENDBRANCH  13  19
TORSDOF 5
ENDMDL
MODEL 3
REMARK VINA RESULT: -7.614012971      2.853      5.286
REMARK  5 active torsions:
REMARK  status: ('A' for Active; 'I' for Inactive)
REMARK    1  A    between atoms: C2_2  and  C3_3 
REMARK    2  A    between atoms: C3_3  and  C5_5 
REMARK    3  A    between atoms: C5_5  and  C6_6 
REMARK    4  A    between atoms: C14_18  and  O1_19 
REMARK    5  A    between atoms: O1_19  and  C15_20 
ROOT
HETATM    1  C6  UNL     1      49.215  91.287  34.614  1.00  0.00     0.052 C 
HETATM    2  C7  UNL     1      48.769  90.579  35.834  1.00  0.00    -0.023 A 
HETATM    3  C8  UNL     1      49.580  90.299  36.890  1.00  0.00     0.035 A 
HETATM    4  C9  UNL     1      49.134  89.653  38.030  1.00  0.00     0.056 A 
HETATM    5 CL1  UNL     1      50.248  89.322  39.366  1.00  0.00    -0.083 Cl
HETATM    6  C10 UNL     1      47.815  89.286  38.081  1.00  0.00     0.058 A 
HETATM    7 CL2  UNL     1      47.219  88.464  39.517  1.00  0.00    -0.082 Cl
HETATM    8  C11 UNL     1      46.971  89.556  37.026  1.00  0.00     0.055 A 
HETATM    9  C12 UNL     1      47.445  90.212  35.879  1.00  0.00     0.036 A 
HETATM   10  N1  UNL     1      46.607  90.484  34.780  1.00  0.00    -0.387 N 
ATOM     11  H1  UNL     1      45.818  89.868  34.587  1.00  0.00     0.159 HD
HETATM   12  C13 UNL     1      46.846  91.614  33.927  1.00  0.00     0.152 C 
HETATM   13  C14 UNL     1      48.113  92.316  34.294  1.00  0.00     0.148 C 
ENDROOT
BRANCH   1  14
HETATM   14  C5  UNL     1      49.470  90.392  33.454  1.00  0.00     0.016 C 
BRANCH  14  15
HETATM   15  C3  UNL     1      50.890  90.333  32.996  1.00  0.00    -0.018 C 
HETATM   16  C4  UNL     1      51.610  91.653  33.180  1.00  0.00     0.010 C 
BRANCH  15  17
HETATM   17  C2  UNL     1      51.704  89.286  33.722  1.00  0.00    -0.000 C 
HETATM   18  C1  UNL     1      52.624  88.609  32.705  1.00  0.00     0.005 C 
ENDBRANCH  15  17
ENDBRANCH  14  15
ENDBRANCH   1  14
BRANCH  13  19
HETATM   19  O1  UNL     1      47.872  93.135  35.369  1.00  0.00    -0.374 OA
BRANCH  19  20
HETATM   20  C15 UNL     1      48.095  94.464  35.160  1.00  0.00     0.050 C 
HETATM   21  C16 UNL     1      49.123  94.923  36.199  1.00  0.00     0.045 C 
HETATM   22  C17 UNL     1      46.873  95.331  35.370  1.00  0.00     0.045 C 
HETATM   23  C18 UNL     1      48.669  94.798  33.812  1.00  0.00     0.045 C 
ENDBRANCH  19  20
ENDBRANCH  13  19
TORSDOF 5
ENDMDL
MODEL 4
REMARK VINA RESULT: -7.515362424      2.274      4.822
REMARK  5 active torsions:
REMARK  status: ('A' for Active; 'I' for Inactive)
REMARK    1  A    between atoms: C2_2  and  C3_3 
REMARK    2  A    between atoms: C3_3  and  C5_5 
REMARK    3  A    between atoms: C5_5  and  C6_6 
REMARK    4  A    between atoms: C14_18  and  O1_19 
REMARK    5  A    between atoms: O1_19  and  C15_20 
ROOT
HETATM    1  C6  UNL     1      48.833  90.324  36.589  1.00  0.00     0.052 C 
HETATM    2  C7  UNL     1      49.968  90.512  35.660  1.00  0.00    -0.023 A 
HETATM    3  C8  UNL     1      50.389  89.572  34.772  1.00  0.00     0.035 A 
HETATM    4  C9  UNL     1      51.442  89.780  33.898  1.00  0.00     0.056 A 
HETATM    5 CL1  UNL     1      51.934  88.508  32.768  1.00  0.00    -0.083 Cl
HETATM    6  C10 UNL     1      52.079  90.992  33.943  1.00  0.00     0.058 A 
HETATM    7 CL2  UNL     1      53.420  91.286  32.844  1.00  0.00    -0.082 Cl
HETATM    8  C11 UNL     1      51.674  91.964  34.833  1.00  0.00     0.055 A 
HETATM    9  C12 UNL     1      50.604  91.730  35.711  1.00  0.00     0.036 A 
HETATM   10  N1  UNL     1      50.183  92.699  36.642  1.00  0.00    -0.387 N 
ATOM     11  H1  UNL     1      50.859  93.368  37.010  1.00  0.00     0.159 HD
HETATM   12  C13 UNL     1      48.818  92.762  37.081  1.00  0.00     0.152 C 
HETATM   13  C14 UNL     1      48.015  91.629  36.530  1.00  0.00     0.148 C 
ENDROOT
BRANCH   1  14
HETATM   14  C5  UNL     1      49.238  90.003  37.984  1.00  0.00     0.016 C 
BRANCH  14  15
HETATM   15  C3  UNL     1      48.636  88.761  38.552  1.00  0.00    -0.018 C 
HETATM   16  C4  UNL     1      47.192  88.957  38.965  1.00  0.00     0.010 C 
BRANCH  15  17
HETATM   17  C2  UNL     1      48.661  87.596  37.589  1.00  0.00    -0.000 C 
HETATM   18  C1  UNL     1      50.071  87.002  37.597  1.00  0.00     0.005 C 
ENDBRANCH  15  17
ENDBRANCH  14  15
ENDBRANCH   1  14
BRANCH  13  19
HETATM   19  O1  UNL     1      47.650  91.927  35.241  1.00  0.00    -0.374 OA
BRANCH  19  20
HETATM   20  C15 UNL     1      46.309  92.024  35.016  1.00  0.00     0.050 C 
HETATM   21  C16 UNL     1      46.030  91.395  33.647  1.00  0.00     0.045 C 
HETATM   22  C17 UNL     1      45.802  93.448  34.932  1.00  0.00     0.045 C 
HETATM   23  C18 UNL     1      45.452  91.289  36.007  1.00  0.00     0.045 C 
ENDBRANCH  19  20
ENDBRANCH  13  19
TORSDOF 5
ENDMDL
MODEL 5
REMARK VINA RESULT: -7.487037293      2.381      4.935
REMARK  5 active torsions:
REMARK  status: ('A' for Active; 'I' for Inactive)
REMARK    1  A    between atoms: C2_2  and  C3_3 
REMARK    2  A    between atoms: C3_3  and  C5_5 
REMARK    3  A    between atoms: C5_5  and  C6_6 
REMARK    4  A    between atoms: C14_18  and  O1_19 
REMARK    5  A    between atoms: O1_19  and  C15_20 
ROOT
HETATM    1  C6  UNL     1      48.201  90.687  36.871  1.00  0.00     0.052 C 
HETATM    2  C7  UNL     1      49.424  90.783  36.044  1.00  0.00    -0.023 A 
HETATM    3  C8  UNL     1      49.821  89.830  35.158  1.00  0.00     0.035 A 
HETATM    4  C9  UNL     1      50.959  89.953  34.380  1.00  0.00     0.056 A 
HETATM    5 CL1  UNL     1      51.414  88.670  33.248  1.00  0.00    -0.083 Cl
HETATM    6  C10 UNL     1      51.708  91.091  34.521  1.00  0.00     0.058 A 
HETATM    7 CL2  UNL     1      53.159  91.277  33.545  1.00  0.00    -0.082 Cl
HETATM    8  C11 UNL     1      51.330  92.074  35.411  1.00  0.00     0.055 A 
HETATM    9  C12 UNL     1      50.172  91.927  36.190  1.00  0.00     0.036 A 
HETATM   10  N1  UNL     1      49.774  92.908  37.119  1.00  0.00    -0.387 N 
ATOM     11  H1  UNL     1      50.480  93.493  37.565  1.00  0.00     0.159 HD
HETATM   12  C13 UNL     1      48.390  93.099  37.449  1.00  0.00     0.152 C 
HETATM   13  C14 UNL     1      47.527  92.070  36.795  1.00  0.00     0.148 C 
ENDROOT
BRANCH   1  14
HETATM   14  C5  UNL     1      48.454  90.287  38.281  1.00  0.00     0.016 C 
BRANCH  14  15
HETATM   15  C3  UNL     1      47.373  89.477  38.917  1.00  0.00    -0.018 C 
HETATM   16  C4  UNL     1      46.512  88.763  37.896  1.00  0.00     0.010 C 
BRANCH  15  17
HETATM   17  C2  UNL     1      47.901  88.420  39.860  1.00  0.00    -0.000 C 
HETATM   18  C1  UNL     1      49.359  88.754  40.182  1.00  0.00     0.005 C 
ENDBRANCH  15  17
ENDBRANCH  14  15
ENDBRANCH   1  14
BRANCH  13  19
HETATM   19  O1  UNL     1      47.303  92.441  35.492  1.00  0.00    -0.374 OA
BRANCH  19  20
HETATM   20  C15 UNL     1      46.010  92.352  35.068  1.00  0.00     0.050 C 
HETATM   21  C16 UNL     1      46.016  91.583  33.743  1.00  0.00     0.045 C 
HETATM   22  C17 UNL     1      45.369  93.691  34.769  1.00  0.00     0.045 C 
HETATM   23  C18 UNL     1      45.096  91.602  35.995  1.00  0.00     0.045 C 
ENDBRANCH  19  20
ENDBRANCH  13  19
TORSDOF 5
ENDMDL
